MODEL        1
REMARK 921   NORMALIZED FREE ENERGY PREDICTED BY IDOCK:   -5.82 KCAL/MOL
REMARK 922        TOTAL FREE ENERGY PREDICTED BY IDOCK:  -13.70 KCAL/MOL
REMARK 923 INTER-LIGAND FREE ENERGY PREDICTED BY IDOCK:  -10.24 KCAL/MOL
REMARK 924 INTRA-LIGAND FREE ENERGY PREDICTED BY IDOCK:   -3.46 KCAL/MOL
REMARK 927      BINDING AFFINITY PREDICTED BY RF-SCORE:    0.00 PKD
ROOT
HETATM    1  C   UNL     1     -10.361   9.779  66.814  1.00  0.00    -0.218 C  
HETATM    2  N   UNL     1     -11.396  10.803  66.907  1.00  0.00    -0.279 NA 
HETATM    3  H   UNL     1     -11.755  10.851  67.861  1.00  0.00     0.000 HD 
ENDROOT
BRANCH   2   4
HETATM    4  C   UNL     1     -10.999  12.166  66.441  1.00  0.00    -0.288 C  
HETATM    5  C   UNL     1     -11.155  13.240  67.548  1.00  0.00    -0.270 C  
HETATM    6  C   UNL     1     -10.568  14.581  67.056  1.00  0.00    -0.278 C  
HETATM    7  O   UNL     1     -10.539  12.817  68.767  1.00  0.00    -0.290 OA 
HETATM    8  H   UNL     1     -10.635  13.476  69.445  1.00  0.00     0.000 HD 
HETATM    9  O   UNL     1     -13.046  12.739  65.191  1.00  0.00    -0.750 OA 
HETATM   10  O   UNL     1     -11.288  15.004  65.897  1.00  0.00    -0.338 OA 
HETATM   11  H   UNL     1     -13.420  13.054  64.377  1.00  0.00     0.000 HD 
HETATM   12  C   UNL     1     -11.104  14.109  64.787  1.00  0.00    -0.387 C  
HETATM   13  C   UNL     1     -11.269  11.772  63.917  1.00  0.00    -0.493 C  
HETATM   14  C   UNL     1     -11.614  12.685  65.099  1.00  0.00    -0.348 C  
BRANCH   6  15
HETATM   15  O   UNL     1      -9.171  14.452  66.779  1.00  0.00    -0.247 OA 
BRANCH  15  16
HETATM   16  C   UNL     1      -8.358  15.602  67.067  1.00  0.00    -0.228 C  
HETATM   17  H1  UNL     1      -4.940  15.418  69.926  1.00  0.00     0.000 HD 
HETATM   18  C   UNL     1      -8.632  16.243  68.446  1.00  0.00    -0.200 C  
HETATM   19  C   UNL     1      -6.879  15.137  66.972  1.00  0.00     0.343 C  
HETATM   20  H2  UNL     1      -6.141  16.116  70.882  1.00  0.00     0.000 HD 
HETATM   21  C   UNL     1      -6.848  14.721  69.513  1.00  0.00    -0.169 C  
HETATM   22  C   UNL     1      -8.300  15.235  69.560  1.00  0.00    -0.190 C  
HETATM   23  O   UNL     1      -5.999  16.283  66.971  1.00  0.00    -0.290 OA 
HETATM   24  H   UNL     1      -5.094  15.998  66.913  1.00  0.00     0.000 HD 
HETATM   25  N   UNL     1      -5.900  15.759  69.957  1.00  0.00    -0.156 NA 
HETATM   26  C   UNL     1      -6.503  14.142  68.108  1.00  0.00    -0.126 C  
BRANCH  18  27
HETATM   27  N   UNL     1      -7.926  17.516  68.600  1.00  0.00    -0.273 N  
HETATM   28  H   UNL     1      -6.925  17.495  68.796  1.00  0.00     0.000 HD 
HETATM   29  C   UNL     1      -8.547  18.739  68.493  1.00  0.00    -0.344 C  
HETATM   30  O   UNL     1      -9.737  18.883  68.233  1.00  0.00    -0.321 OA 
BRANCH  29  31
HETATM   31  C   UNL     1      -7.612  19.942  68.697  1.00  0.00    -0.216 C  
HETATM   32  H   UNL     1      -6.356  20.586  70.077  1.00  0.00     0.000 HD 
HETATM   33  O   UNL     1      -6.934  19.842  69.951  1.00  0.00    -0.282 OA 
BRANCH  31  34
HETATM   34  C   UNL     1      -6.567  20.018  67.584  1.00  0.00    -0.264 C  
BRANCH  34  35
HETATM   35  C   UNL     1      -7.205  20.298  66.223  1.00  0.00    -0.265 C  
HETATM   36  H1  UNL     1      -7.303  19.421  64.373  1.00  0.00     0.000 HD 
HETATM   37  H2  UNL     1      -7.136  18.316  65.639  1.00  0.00     0.000 HD 
HETATM   38  N   UNL     1      -6.878  19.235  65.280  1.00  0.00    -0.445 NA 
ENDBRANCH  34  35
ENDBRANCH  31  34
ENDBRANCH  29  31
ENDBRANCH  18  27
BRANCH  26  39
HETATM   39  O   UNL     1      -7.187  12.892  68.043  1.00  0.00    -0.090 OA 
BRANCH  39  40
HETATM   40  C   UNL     1      -6.996  11.955  69.108  1.00  0.00    -0.079 C  
HETATM   41  H1  UNL     1      -4.224  10.733  67.401  1.00  0.00     0.000 HD 
HETATM   42  O   UNL     1      -8.032  10.968  69.133  1.00  0.00    -0.138 OA 
HETATM   43  H2  UNL     1      -5.252  11.984  66.980  1.00  0.00     0.000 HD 
HETATM   44  N   UNL     1      -5.158  11.124  67.520  1.00  0.00    -0.038 NA 
HETATM   45  C   UNL     1      -5.562  11.355  68.925  1.00  0.00    -0.042 C  
HETATM   46  C   UNL     1      -7.813   9.953  70.049  1.00  0.00    -0.180 C  
HETATM   47  C   UNL     1      -5.334  10.124  69.813  1.00  0.00    -0.038 C  
HETATM   48  C   UNL     1      -6.581   9.547  70.393  1.00  0.00    -0.086 C  
BRANCH  46  49
HETATM   49  C   UNL     1      -9.060   9.299  70.602  1.00  0.00    -0.253 C  
BRANCH  49  50
HETATM   50  N   UNL     1     -10.252  10.146  70.501  1.00  0.00    -0.391 NA 
HETATM   51  H   UNL     1     -10.358  10.530  69.562  1.00  0.00     0.000 HD 
BRANCH  50  52
HETATM   52  C   UNL     1     -11.464   9.424  70.927  1.00  0.00    -0.316 C  
BRANCH  52  53
HETATM   53  C   UNL     1     -12.714  10.280  70.709  1.00  0.00    -0.346 C  
HETATM   54  O   UNL     1     -12.831  10.660  69.341  1.00  0.00    -0.629 OA 
HETATM   55  H   UNL     1     -13.606  11.192  69.206  1.00  0.00     0.000 HD 
ENDBRANCH  52  53
ENDBRANCH  50  52
ENDBRANCH  49  50
ENDBRANCH  46  49
ENDBRANCH  39  40
ENDBRANCH  26  39
ENDBRANCH  15  16
ENDBRANCH   6  15
ENDBRANCH   2   4
TORSDOF 13
ENDMDL
MODEL        2
REMARK 921   NORMALIZED FREE ENERGY PREDICTED BY IDOCK:   -5.69 KCAL/MOL
REMARK 922        TOTAL FREE ENERGY PREDICTED BY IDOCK:  -13.48 KCAL/MOL
REMARK 923 INTER-LIGAND FREE ENERGY PREDICTED BY IDOCK:  -11.26 KCAL/MOL
REMARK 924 INTRA-LIGAND FREE ENERGY PREDICTED BY IDOCK:   -2.22 KCAL/MOL
REMARK 927      BINDING AFFINITY PREDICTED BY RF-SCORE:    0.00 PKD
ROOT
HETATM    1  C   UNL     1     -10.450   4.321  65.030  1.00  0.00    -0.165 C  
HETATM    2  N   UNL     1      -9.163   4.911  64.676  1.00  0.00    -0.317 NA 
HETATM    3  H   UNL     1      -9.195   5.275  63.723  1.00  0.00     0.000 HD 
ENDROOT
BRANCH   2   4
HETATM    4  C   UNL     1      -8.658   5.964  65.608  1.00  0.00    -0.155 C  
HETATM    5  C   UNL     1      -7.945   7.122  64.864  1.00  0.00    -0.127 C  
HETATM    6  C   UNL     1      -7.605   8.250  65.864  1.00  0.00    -0.082 C  
HETATM    7  O   UNL     1      -8.742   7.608  63.782  1.00  0.00    -0.255 OA 
HETATM    8  H   UNL     1      -8.304   8.317  63.326  1.00  0.00     0.000 HD 
HETATM    9  O   UNL     1      -6.618   4.820  66.387  1.00  0.00    -0.043 OA 
HETATM   10  O   UNL     1      -6.726   7.731  66.863  1.00  0.00    -0.063 OA 
HETATM   11  H   UNL     1      -6.097   4.540  67.130  1.00  0.00     0.000 HD 
HETATM   12  C   UNL     1      -7.357   6.723  67.670  1.00  0.00    -0.096 C  
HETATM   13  C   UNL     1      -8.568   4.538  67.742  1.00  0.00    -0.107 C  
HETATM   14  C   UNL     1      -7.800   5.503  66.832  1.00  0.00    -0.101 C  
BRANCH   6  15
HETATM   15  O   UNL     1      -8.795   8.786  66.447  1.00  0.00    -0.133 OA 
BRANCH  15  16
HETATM   16  C   UNL     1      -9.072  10.168  66.167  1.00  0.00    -0.155 C  
HETATM   17  H1  UNL     1     -10.137  13.060  69.391  1.00  0.00     0.000 HD 
HETATM   18  C   UNL     1     -10.571  10.541  66.234  1.00  0.00    -0.133 C  
HETATM   19  C   UNL     1      -8.262  11.002  67.197  1.00  0.00    -0.133 C  
HETATM   20  H2  UNL     1     -11.654  12.698  68.749  1.00  0.00     0.000 HD 
HETATM   21  C   UNL     1     -10.324  11.101  68.737  1.00  0.00    -0.205 C  
HETATM   22  C   UNL     1     -11.097  10.313  67.662  1.00  0.00    -0.319 C  
HETATM   23  O   UNL     1      -8.262  12.395  66.814  1.00  0.00    -0.343 OA 
HETATM   24  H   UNL     1      -7.766  12.906  67.445  1.00  0.00     0.000 HD 
HETATM   25  N   UNL     1     -10.649  12.538  68.681  1.00  0.00    -0.230 NA 
HETATM   26  C   UNL     1      -8.793  10.819  68.648  1.00  0.00    -0.152 C  
BRANCH  18  27
HETATM   27  N   UNL     1     -10.811  11.900  65.748  1.00  0.00    -0.286 N  
HETATM   28  H   UNL     1     -10.739  12.673  66.410  1.00  0.00     0.000 HD 
HETATM   29  C   UNL     1     -11.131  12.185  64.440  1.00  0.00    -0.333 C  
HETATM   30  O   UNL     1     -11.217  11.341  63.555  1.00  0.00    -0.344 OA 
BRANCH  29  31
HETATM   31  C   UNL     1     -11.346  13.681  64.156  1.00  0.00    -0.304 C  
HETATM   32  H   UNL     1     -12.716  14.812  63.297  1.00  0.00     0.000 HD 
HETATM   33  O   UNL     1     -12.583  13.888  63.472  1.00  0.00    -0.842 OA 
BRANCH  31  34
HETATM   34  C   UNL     1     -11.367  14.488  65.455  1.00  0.00    -0.341 C  
BRANCH  34  35
HETATM   35  C   UNL     1     -10.556  15.778  65.335  1.00  0.00    -0.421 C  
HETATM   36  H1  UNL     1     -10.688  17.581  64.368  1.00  0.00     0.000 HD 
HETATM   37  H2  UNL     1     -12.188  16.900  64.742  1.00  0.00     0.000 HD 
HETATM   38  N   UNL     1     -11.228  16.720  64.448  1.00  0.00    -1.107 NA 
ENDBRANCH  34  35
ENDBRANCH  31  34
ENDBRANCH  29  31
ENDBRANCH  18  27
BRANCH  26  39
HETATM   39  O   UNL     1      -8.628   9.503  69.172  1.00  0.00    -0.127 OA 
BRANCH  39  40
HETATM   40  C   UNL     1      -9.004   9.259  70.531  1.00  0.00    -0.250 C  
HETATM   41  H1  UNL     1      -5.752   8.186  71.133  1.00  0.00     0.000 HD 
HETATM   42  O   UNL     1      -9.912   8.157  70.636  1.00  0.00    -0.187 OA 
HETATM   43  H2  UNL     1      -6.423   8.768  69.715  1.00  0.00     0.000 HD 
HETATM   44  N   UNL     1      -6.617   8.318  70.610  1.00  0.00    -0.036 NA 
HETATM   45  C   UNL     1      -7.676   9.055  71.334  1.00  0.00    -0.037 C  
HETATM   46  C   UNL     1     -10.189   7.785  71.942  1.00  0.00    -0.202 C  
HETATM   47  C   UNL     1      -7.932   8.491  72.739  1.00  0.00    -0.090 C  
HETATM   48  C   UNL     1      -9.302   7.936  72.936  1.00  0.00    -0.309 C  
BRANCH  46  49
HETATM   49  C   UNL     1     -11.545   7.153  72.160  1.00  0.00    -0.279 C  
BRANCH  49  50
HETATM   50  N   UNL     1     -12.447   7.301  71.014  1.00  0.00    -0.508 NA 
HETATM   51  H   UNL     1     -12.351   6.523  70.362  1.00  0.00     0.000 HD 
BRANCH  50  52
HETATM   52  C   UNL     1     -13.845   7.474  71.446  1.00  0.00    -0.338 C  
BRANCH  52  53
HETATM   53  C   UNL     1     -14.077   8.888  71.986  1.00  0.00    -0.411 C  
HETATM   54  O   UNL     1     -14.376   8.850  73.379  1.00  0.00    -1.192 OA 
HETATM   55  H   UNL     1     -14.521   9.728  73.714  1.00  0.00     0.000 HD 
ENDBRANCH  52  53
ENDBRANCH  50  52
ENDBRANCH  49  50
ENDBRANCH  46  49
ENDBRANCH  39  40
ENDBRANCH  26  39
ENDBRANCH  15  16
ENDBRANCH   6  15
ENDBRANCH   2   4
TORSDOF 13
ENDMDL
MODEL        3
REMARK 921   NORMALIZED FREE ENERGY PREDICTED BY IDOCK:   -5.56 KCAL/MOL
REMARK 922        TOTAL FREE ENERGY PREDICTED BY IDOCK:  -13.24 KCAL/MOL
REMARK 923 INTER-LIGAND FREE ENERGY PREDICTED BY IDOCK:  -10.48 KCAL/MOL
REMARK 924 INTRA-LIGAND FREE ENERGY PREDICTED BY IDOCK:   -2.76 KCAL/MOL
REMARK 927      BINDING AFFINITY PREDICTED BY RF-SCORE:    0.00 PKD
ROOT
HETATM    1  C   UNL     1      -9.414   5.325  68.950  1.00  0.00    -0.128 C  
HETATM    2  N   UNL     1      -9.786   5.467  67.546  1.00  0.00    -0.135 NA 
HETATM    3  H   UNL     1     -10.799   5.549  67.460  1.00  0.00     0.000 HD 
ENDROOT
BRANCH   2   4
HETATM    4  C   UNL     1      -9.119   6.584  66.812  1.00  0.00    -0.144 C  
HETATM    5  C   UNL     1     -10.120   7.676  66.356  1.00  0.00    -0.027 C  
HETATM    6  C   UNL     1      -9.347   8.874  65.761  1.00  0.00    -0.219 C  
HETATM    7  O   UNL     1     -10.964   8.084  67.435  1.00  0.00    -0.512 OA 
HETATM    8  H   UNL     1     -11.578   8.753  67.155  1.00  0.00     0.000 HD 
HETATM    9  O   UNL     1      -8.869   5.486  64.618  1.00  0.00    -0.324 OA 
HETATM   10  O   UNL     1      -8.603   8.426  64.627  1.00  0.00    -0.131 OA 
HETATM   11  H   UNL     1      -8.287   5.259  63.903  1.00  0.00     0.000 HD 
HETATM   12  C   UNL     1      -7.576   7.487  64.988  1.00  0.00    -0.098 C  
HETATM   13  C   UNL     1      -6.998   5.324  66.097  1.00  0.00    -0.063 C  
HETATM   14  C   UNL     1      -8.159   6.211  65.634  1.00  0.00    -0.128 C  
BRANCH   6  15
HETATM   15  O   UNL     1      -8.491   9.462  66.743  1.00  0.00    -0.125 OA 
BRANCH  15  16
HETATM   16  C   UNL     1      -8.426  10.899  66.750  1.00  0.00    -0.139 C  
HETATM   17  H1  UNL     1     -10.610  13.343  69.775  1.00  0.00     0.000 HD 
HETATM   18  C   UNL     1      -9.703  11.593  66.223  1.00  0.00    -0.218 C  
HETATM   19  C   UNL     1      -8.146  11.325  68.218  1.00  0.00    -0.137 C  
HETATM   20  H2  UNL     1     -11.634  13.465  68.441  1.00  0.00     0.000 HD 
HETATM   21  C   UNL     1     -10.674  11.629  68.609  1.00  0.00    -0.212 C  
HETATM   22  C   UNL     1     -10.894  11.246  67.133  1.00  0.00    -0.321 C  
HETATM   23  O   UNL     1      -7.792  12.724  68.266  1.00  0.00    -0.129 OA 
HETATM   24  H   UNL     1      -7.621  12.985  69.164  1.00  0.00     0.000 HD 
HETATM   25  N   UNL     1     -10.756  13.089  68.799  1.00  0.00    -0.244 NA 
HETATM   26  C   UNL     1      -9.349  11.018  69.156  1.00  0.00    -0.021 C  
BRANCH  18  27
HETATM   27  N   UNL     1      -9.507  13.035  66.065  1.00  0.00    -0.454 N  
HETATM   28  H   UNL     1      -8.736  13.478  66.567  1.00  0.00     0.000 HD 
HETATM   29  C   UNL     1     -10.312  13.822  65.274  1.00  0.00    -0.361 C  
HETATM   30  O   UNL     1     -11.247  13.393  64.606  1.00  0.00    -0.330 OA 
BRANCH  29  31
HETATM   31  C   UNL     1      -9.925  15.309  65.263  1.00  0.00    -0.287 C  
HETATM   32  H   UNL     1     -10.737  17.017  64.696  1.00  0.00     0.000 HD 
HETATM   33  O   UNL     1     -10.976  16.097  64.703  1.00  0.00    -0.642 OA 
BRANCH  31  34
HETATM   34  C   UNL     1      -9.641  15.812  66.679  1.00  0.00    -0.266 C  
BRANCH  34  35
HETATM   35  C   UNL     1     -10.697  16.812  67.149  1.00  0.00    -0.189 C  
HETATM   36  H1  UNL     1     -11.948  17.072  68.752  1.00  0.00     0.000 HD 
HETATM   37  H2  UNL     1     -10.512  16.270  69.135  1.00  0.00     0.000 HD 
HETATM   38  N   UNL     1     -11.244  16.406  68.438  1.00  0.00    -0.361 NA 
ENDBRANCH  34  35
ENDBRANCH  31  34
ENDBRANCH  29  31
ENDBRANCH  18  27
BRANCH  26  39
HETATM   39  O   UNL     1      -9.623   9.628  69.324  1.00  0.00    -0.167 OA 
BRANCH  39  40
HETATM   40  C   UNL     1     -10.124   9.179  70.586  1.00  0.00    -0.247 C  
HETATM   41  H1  UNL     1      -7.006   7.771  71.210  1.00  0.00     0.000 HD 
HETATM   42  O   UNL     1     -11.105   8.149  70.428  1.00  0.00    -0.253 OA 
HETATM   43  H2  UNL     1      -7.521   8.642  69.877  1.00  0.00     0.000 HD 
HETATM   44  N   UNL     1      -7.816   8.059  70.660  1.00  0.00    -0.088 NA 
HETATM   45  C   UNL     1      -8.882   8.738  71.430  1.00  0.00    -0.225 C  
HETATM   46  C   UNL     1     -11.511   7.577  71.623  1.00  0.00    -0.261 C  
HETATM   47  C   UNL     1      -9.287   7.958  72.689  1.00  0.00    -0.275 C  
HETATM   48  C   UNL     1     -10.701   7.483  72.688  1.00  0.00    -0.354 C  
BRANCH  46  49
HETATM   49  C   UNL     1     -12.918   7.022  71.630  1.00  0.00    -0.352 C  
BRANCH  49  50
HETATM   50  N   UNL     1     -13.947   8.045  71.420  1.00  0.00    -0.575 NA 
HETATM   51  H   UNL     1     -14.884   7.650  71.485  1.00  0.00     0.000 HD 
BRANCH  50  52
HETATM   52  C   UNL     1     -13.775   9.179  72.345  1.00  0.00    -0.480 C  
BRANCH  52  53
HETATM   53  C   UNL     1     -13.303  10.428  71.596  1.00  0.00    -0.333 C  
HETATM   54  O   UNL     1     -13.323  10.206  70.188  1.00  0.00    -0.525 OA 
HETATM   55  H   UNL     1     -13.030  10.981  69.723  1.00  0.00     0.000 HD 
ENDBRANCH  52  53
ENDBRANCH  50  52
ENDBRANCH  49  50
ENDBRANCH  46  49
ENDBRANCH  39  40
ENDBRANCH  26  39
ENDBRANCH  15  16
ENDBRANCH   6  15
ENDBRANCH   2   4
TORSDOF 13
ENDMDL
MODEL        4
REMARK 921   NORMALIZED FREE ENERGY PREDICTED BY IDOCK:   -5.55 KCAL/MOL
REMARK 922        TOTAL FREE ENERGY PREDICTED BY IDOCK:  -13.23 KCAL/MOL
REMARK 923 INTER-LIGAND FREE ENERGY PREDICTED BY IDOCK:  -10.95 KCAL/MOL
REMARK 924 INTRA-LIGAND FREE ENERGY PREDICTED BY IDOCK:   -2.28 KCAL/MOL
REMARK 927      BINDING AFFINITY PREDICTED BY RF-SCORE:    0.00 PKD
ROOT
HETATM    1  C   UNL     1      -7.011  18.232  65.571  1.00  0.00    -0.103 C  
HETATM    2  N   UNL     1      -8.422  18.505  65.826  1.00  0.00    -0.387 NA 
HETATM    3  H   UNL     1      -8.947  18.473  64.952  1.00  0.00     0.000 HD 
ENDROOT
BRANCH   2   4
HETATM    4  C   UNL     1      -9.074  17.629  66.845  1.00  0.00    -0.253 C  
HETATM    5  C   UNL     1     -10.317  16.892  66.286  1.00  0.00    -0.308 C  
HETATM    6  C   UNL     1     -10.835  15.880  67.332  1.00  0.00    -0.291 C  
HETATM    7  O   UNL     1     -10.021  16.251  65.043  1.00  0.00    -0.409 OA 
HETATM    8  H   UNL     1     -10.784  15.800  64.700  1.00  0.00     0.000 HD 
HETATM    9  O   UNL     1     -10.303  19.366  68.092  1.00  0.00    -0.408 OA 
HETATM   10  O   UNL     1     -11.211  16.588  68.514  1.00  0.00    -0.360 OA 
HETATM   11  H   UNL     1     -10.503  19.746  68.939  1.00  0.00     0.000 HD 
HETATM   12  C   UNL     1     -10.084  17.212  69.154  1.00  0.00    -0.254 C  
HETATM   13  C   UNL     1      -8.149  18.779  68.948  1.00  0.00    -0.267 C  
HETATM   14  C   UNL     1      -9.404  18.256  68.241  1.00  0.00    -0.308 C  
BRANCH   6  15
HETATM   15  O   UNL     1      -9.843  14.890  67.614  1.00  0.00    -0.216 OA 
BRANCH  15  16
HETATM   16  C   UNL     1      -9.733  13.813  66.668  1.00  0.00    -0.289 C  
HETATM   17  H1  UNL     1     -11.135   9.687  67.614  1.00  0.00     0.000 HD 
HETATM   18  C   UNL     1      -8.607  12.803  66.985  1.00  0.00    -0.177 C  
HETATM   19  C   UNL     1     -11.111  13.097  66.646  1.00  0.00    -0.292 C  
HETATM   20  H2  UNL     1      -9.474   9.544  67.865  1.00  0.00     0.000 HD 
HETATM   21  C   UNL     1     -10.254  11.400  68.382  1.00  0.00    -0.198 C  
HETATM   22  C   UNL     1      -8.891  12.117  68.332  1.00  0.00    -0.143 C  
HETATM   23  O   UNL     1     -11.176  12.185  65.527  1.00  0.00    -0.313 OA 
HETATM   24  H   UNL     1     -12.019  11.747  65.514  1.00  0.00     0.000 HD 
HETATM   25  N   UNL     1     -10.234  10.162  67.581  1.00  0.00    -0.190 NA 
HETATM   26  C   UNL     1     -11.412  12.364  67.985  1.00  0.00    -0.322 C  
BRANCH  18  27
HETATM   27  N   UNL     1      -8.412  11.852  65.890  1.00  0.00    -0.372 N  
HETATM   28  H   UNL     1      -9.155  11.747  65.199  1.00  0.00     0.000 HD 
HETATM   29  C   UNL     1      -7.275  11.090  65.749  1.00  0.00     0.097 C  
HETATM   30  O   UNL     1      -6.309  11.153  66.502  1.00  0.00    -0.118 OA 
BRANCH  29  31
HETATM   31  C   UNL     1      -7.291  10.153  64.530  1.00  0.00    -0.121 C  
HETATM   32  H   UNL     1      -6.534   8.398  64.037  1.00  0.00     0.000 HD 
HETATM   33  O   UNL     1      -6.524   8.977  64.791  1.00  0.00    -0.066 OA 
BRANCH  31  34
HETATM   34  C   UNL     1      -8.719   9.737  64.178  1.00  0.00    -0.233 C  
BRANCH  34  35
HETATM   35  C   UNL     1      -9.128  10.227  62.789  1.00  0.00    -0.284 C  
HETATM   36  H1  UNL     1      -9.659  11.988  61.885  1.00  0.00     0.000 HD 
HETATM   37  H2  UNL     1      -8.592  12.185  63.180  1.00  0.00     0.000 HD 
HETATM   38  N   UNL     1      -9.386  11.661  62.811  1.00  0.00    -0.318 NA 
ENDBRANCH  34  35
ENDBRANCH  31  34
ENDBRANCH  29  31
ENDBRANCH  18  27
BRANCH  26  39
HETATM   39  O   UNL     1     -11.573  13.231  69.106  1.00  0.00    -0.279 OA 
BRANCH  39  40
HETATM   40  C   UNL     1     -12.583  12.918  70.070  1.00  0.00     0.116 C  
HETATM   41  H1  UNL     1     -11.518  15.659  71.927  1.00  0.00     0.000 HD 
HETATM   42  O   UNL     1     -12.286  11.706  70.769  1.00  0.00    -0.376 OA 
HETATM   43  H2  UNL     1     -10.950  15.099  70.456  1.00  0.00     0.000 HD 
HETATM   44  N   UNL     1     -11.434  14.845  71.317  1.00  0.00    -0.308 NA 
HETATM   45  C   UNL     1     -12.712  14.167  71.005  1.00  0.00    -0.362 C  
HETATM   46  C   UNL     1     -13.154  11.438  71.815  1.00  0.00    -0.418 C  
HETATM   47  C   UNL     1     -13.540  13.863  72.262  1.00  0.00    -0.642 C  
HETATM   48  C   UNL     1     -13.757  12.410  72.517  1.00  0.00    -0.023 C  
BRANCH  46  49
HETATM   49  C   UNL     1     -13.340   9.974  72.144  1.00  0.00    -0.368 C  
BRANCH  49  50
HETATM   50  N   UNL     1     -12.085   9.217  72.149  1.00  0.00    -0.348 NA 
HETATM   51  H   UNL     1     -11.631   9.252  73.061  1.00  0.00     0.000 HD 
BRANCH  50  52
HETATM   52  C   UNL     1     -12.291   7.827  71.704  1.00  0.00    -0.321 C  
BRANCH  52  53
HETATM   53  C   UNL     1     -11.312   7.461  70.585  1.00  0.00    -0.281 C  
HETATM   54  O   UNL     1     -11.315   8.460  69.568  1.00  0.00    -0.438 OA 
HETATM   55  H   UNL     1     -10.707   8.232  68.874  1.00  0.00     0.000 HD 
ENDBRANCH  52  53
ENDBRANCH  50  52
ENDBRANCH  49  50
ENDBRANCH  46  49
ENDBRANCH  39  40
ENDBRANCH  26  39
ENDBRANCH  15  16
ENDBRANCH   6  15
ENDBRANCH   2   4
TORSDOF 13
ENDMDL
MODEL        5
REMARK 921   NORMALIZED FREE ENERGY PREDICTED BY IDOCK:   -5.54 KCAL/MOL
REMARK 922        TOTAL FREE ENERGY PREDICTED BY IDOCK:  -13.21 KCAL/MOL
REMARK 923 INTER-LIGAND FREE ENERGY PREDICTED BY IDOCK:  -10.26 KCAL/MOL
REMARK 924 INTRA-LIGAND FREE ENERGY PREDICTED BY IDOCK:   -2.95 KCAL/MOL
REMARK 927      BINDING AFFINITY PREDICTED BY RF-SCORE:    0.00 PKD
ROOT
HETATM    1  C   UNL     1     -10.513   7.310  73.424  1.00  0.00    -0.377 C  
HETATM    2  N   UNL     1     -11.196   6.964  72.181  1.00  0.00    -0.249 NA 
HETATM    3  H   UNL     1     -11.895   6.241  72.356  1.00  0.00     0.000 HD 
ENDROOT
BRANCH   2   4
HETATM    4  C   UNL     1     -11.818   8.108  71.448  1.00  0.00    -0.295 C  
HETATM    5  C   UNL     1     -10.931   9.378  71.466  1.00  0.00    -0.359 C  
HETATM    6  C   UNL     1     -11.550  10.457  70.550  1.00  0.00    -0.344 C  
HETATM    7  O   UNL     1      -9.588   9.074  71.079  1.00  0.00    -0.231 OA 
HETATM    8  H   UNL     1      -9.044   9.853  71.091  1.00  0.00     0.000 HD 
HETATM    9  O   UNL     1     -13.407   8.840  73.186  1.00  0.00    -0.918 OA 
HETATM   10  O   UNL     1     -12.847  10.793  71.044  1.00  0.00    -0.359 OA 
HETATM   11  H   UNL     1     -14.304   9.066  73.400  1.00  0.00     0.000 HD 
HETATM   12  C   UNL     1     -13.764   9.689  70.958  1.00  0.00    -0.027 C  
HETATM   13  C   UNL     1     -14.259   7.313  71.555  1.00  0.00    -0.540 C  
HETATM   14  C   UNL     1     -13.297   8.481  71.800  1.00  0.00    -0.367 C  
BRANCH   6  15
HETATM   15  O   UNL     1     -11.613   9.999  69.198  1.00  0.00    -0.104 OA 
BRANCH  15  16
HETATM   16  C   UNL     1     -11.423  10.997  68.180  1.00  0.00    -0.302 C  
HETATM   17  H1  UNL     1      -7.839  11.008  65.526  1.00  0.00     0.000 HD 
HETATM   18  C   UNL     1     -10.362  12.065  68.529  1.00  0.00    -0.217 C  
HETATM   19  C   UNL     1     -11.023  10.241  66.884  1.00  0.00    -0.070 C  
HETATM   20  H2  UNL     1      -7.423  12.186  66.659  1.00  0.00     0.000 HD 
HETATM   21  C   UNL     1      -8.535  10.612  67.438  1.00  0.00    -0.122 C  
HETATM   22  C   UNL     1      -8.986  11.395  68.687  1.00  0.00    -0.133 C  
HETATM   23  O   UNL     1     -11.085  11.135  65.751  1.00  0.00    -0.155 OA 
HETATM   24  H   UNL     1     -10.840  10.672  64.958  1.00  0.00     0.000 HD 
HETATM   25  N   UNL     1      -8.138  11.526  66.352  1.00  0.00    -0.118 NA 
HETATM   26  C   UNL     1      -9.618   9.580  67.001  1.00  0.00    -0.164 C  
BRANCH  18  27
HETATM   27  N   UNL     1     -10.356  13.158  67.556  1.00  0.00    -0.223 N  
HETATM   28  H   UNL     1      -9.812  13.043  66.700  1.00  0.00     0.000 HD 
HETATM   29  C   UNL     1     -11.048  14.333  67.739  1.00  0.00    -0.280 C  
HETATM   30  O   UNL     1     -11.755  14.567  68.713  1.00  0.00    -0.296 OA 
BRANCH  29  31
HETATM   31  C   UNL     1     -10.892  15.342  66.590  1.00  0.00    -0.302 C  
HETATM   32  H   UNL     1      -9.647  16.789  66.088  1.00  0.00     0.000 HD 
HETATM   33  O   UNL     1      -9.743  16.165  66.798  1.00  0.00    -0.227 OA 
BRANCH  31  34
HETATM   34  C   UNL     1     -10.742  14.626  65.248  1.00  0.00    -0.396 C  
BRANCH  34  35
HETATM   35  C   UNL     1     -12.089  14.434  64.552  1.00  0.00    -0.481 C  
HETATM   36  H1  UNL     1     -13.760  13.264  64.754  1.00  0.00     0.000 HD 
HETATM   37  H2  UNL     1     -12.972  13.580  66.214  1.00  0.00     0.000 HD 
HETATM   38  N   UNL     1     -12.862  13.392  65.218  1.00  0.00    -0.686 NA 
ENDBRANCH  34  35
ENDBRANCH  31  34
ENDBRANCH  29  31
ENDBRANCH  18  27
BRANCH  26  39
HETATM   39  O   UNL     1      -9.541   8.531  67.964  1.00  0.00    -0.145 OA 
BRANCH  39  40
HETATM   40  C   UNL     1      -9.794   7.190  67.533  1.00  0.00    -0.151 C  
HETATM   41  H1  UNL     1      -8.835   6.100  70.693  1.00  0.00     0.000 HD 
HETATM   42  O   UNL     1      -8.840   6.763  66.555  1.00  0.00    -0.132 OA 
HETATM   43  H2  UNL     1      -8.930   7.663  70.102  1.00  0.00     0.000 HD 
HETATM   44  N   UNL     1      -8.822   6.680  69.853  1.00  0.00    -0.143 NA 
HETATM   45  C   UNL     1      -9.813   6.301  68.821  1.00  0.00    -0.137 C  
HETATM   46  C   UNL     1      -8.950   5.424  66.217  1.00  0.00    -0.137 C  
HETATM   47  C   UNL     1      -9.775   4.803  68.489  1.00  0.00    -0.215 C  
HETATM   48  C   UNL     1      -9.388   4.497  67.082  1.00  0.00    -0.163 C  
BRANCH  46  49
HETATM   49  C   UNL     1      -8.496   5.070  64.818  1.00  0.00    -0.148 C  
BRANCH  49  50
HETATM   50  N   UNL     1      -8.451   6.223  63.914  1.00  0.00    -0.332 NA 
HETATM   51  H   UNL     1      -8.923   7.032  64.317  1.00  0.00     0.000 HD 
BRANCH  50  52
HETATM   52  C   UNL     1      -7.069   6.547  63.521  1.00  0.00    -0.055 C  
BRANCH  52  53
HETATM   53  C   UNL     1      -6.730   8.000  63.863  1.00  0.00    -0.066 C  
HETATM   54  O   UNL     1      -6.995   8.852  62.752  1.00  0.00    -0.094 OA 
HETATM   55  H   UNL     1      -6.784   9.754  62.964  1.00  0.00     0.000 HD 
ENDBRANCH  52  53
ENDBRANCH  50  52
ENDBRANCH  49  50
ENDBRANCH  46  49
ENDBRANCH  39  40
ENDBRANCH  26  39
ENDBRANCH  15  16
ENDBRANCH   6  15
ENDBRANCH   2   4
TORSDOF 13
ENDMDL
MODEL        6
REMARK 921   NORMALIZED FREE ENERGY PREDICTED BY IDOCK:   -5.54 KCAL/MOL
REMARK 922        TOTAL FREE ENERGY PREDICTED BY IDOCK:  -13.21 KCAL/MOL
REMARK 923 INTER-LIGAND FREE ENERGY PREDICTED BY IDOCK:  -11.48 KCAL/MOL
REMARK 924 INTRA-LIGAND FREE ENERGY PREDICTED BY IDOCK:   -1.73 KCAL/MOL
REMARK 927      BINDING AFFINITY PREDICTED BY RF-SCORE:    0.00 PKD
ROOT
HETATM    1  C   UNL     1     -14.028  13.445  72.083  1.00  0.00    -0.437 C  
HETATM    2  N   UNL     1     -12.916  12.500  72.068  1.00  0.00    -0.323 NA 
HETATM    3  H   UNL     1     -13.216  11.601  72.446  1.00  0.00     0.000 HD 
ENDROOT
BRANCH   2   4
HETATM    4  C   UNL     1     -12.256  12.301  70.743  1.00  0.00    -0.260 C  
HETATM    5  C   UNL     1     -12.743  13.318  69.679  1.00  0.00     0.405 C  
HETATM    6  C   UNL     1     -11.901  13.167  68.393  1.00  0.00    -0.351 C  
HETATM    7  O   UNL     1     -12.692  14.655  70.182  1.00  0.00    -0.496 OA 
HETATM    8  H   UNL     1     -12.991  15.277  69.530  1.00  0.00     0.000 HD 
HETATM    9  O   UNL     1     -13.594  10.388  69.949  1.00  0.00    -0.317 OA 
HETATM   10  O   UNL     1     -12.071  11.845  67.881  1.00  0.00    -0.558 OA 
HETATM   11  H   UNL     1     -13.590   9.511  69.584  1.00  0.00     0.000 HD 
HETATM   12  C   UNL     1     -11.541  10.846  68.769  1.00  0.00    -0.309 C  
HETATM   13  C   UNL     1     -11.546   9.853  71.062  1.00  0.00    -0.470 C  
HETATM   14  C   UNL     1     -12.250  10.856  70.141  1.00  0.00    -0.343 C  
BRANCH   6  15
HETATM   15  O   UNL     1     -10.523  13.448  68.653  1.00  0.00    -0.243 OA 
BRANCH  15  16
HETATM   16  C   UNL     1      -9.987  14.629  68.033  1.00  0.00    -0.220 C  
HETATM   17  H1  UNL     1      -5.890  14.718  66.275  1.00  0.00     0.000 HD 
HETATM   18  C   UNL     1      -8.933  15.371  68.885  1.00  0.00    -0.208 C  
HETATM   19  C   UNL     1      -9.370  14.180  66.680  1.00  0.00    -0.282 C  
HETATM   20  H2  UNL     1      -5.634  15.470  67.763  1.00  0.00     0.000 HD 
HETATM   21  C   UNL     1      -7.065  13.962  67.807  1.00  0.00    -0.172 C  
HETATM   22  C   UNL     1      -7.716  14.457  69.113  1.00  0.00    -0.050 C  
HETATM   23  O   UNL     1      -9.061  15.335  65.870  1.00  0.00    -0.436 OA 
HETATM   24  H   UNL     1      -8.682  15.060  65.043  1.00  0.00     0.000 HD 
HETATM   25  N   UNL     1      -6.321  15.045  67.139  1.00  0.00    -0.196 NA 
HETATM   26  C   UNL     1      -8.115  13.281  66.878  1.00  0.00     0.097 C  
BRANCH  18  27
HETATM   27  N   UNL     1      -8.574  16.662  68.296  1.00  0.00    -0.204 N  
HETATM   28  H   UNL     1      -7.728  16.719  67.730  1.00  0.00     0.000 HD 
HETATM   29  C   UNL     1      -9.324  17.802  68.471  1.00  0.00    -0.295 C  
HETATM   30  O   UNL     1     -10.372  17.844  69.107  1.00  0.00    -0.340 OA 
BRANCH  29  31
HETATM   31  C   UNL     1      -8.755  19.045  67.767  1.00  0.00    -0.298 C  
HETATM   32  H   UNL     1      -7.161  20.198  67.920  1.00  0.00     0.000 HD 
HETATM   33  O   UNL     1      -7.512  19.430  68.356  1.00  0.00    -0.294 OA 
BRANCH  31  34
HETATM   34  C   UNL     1      -8.527  18.775  66.279  1.00  0.00    -0.256 C  
BRANCH  34  35
HETATM   35  C   UNL     1      -7.049  18.884  65.902  1.00  0.00    -0.260 C  
HETATM   36  H1  UNL     1      -5.867  20.018  64.669  1.00  0.00     0.000 HD 
HETATM   37  H2  UNL     1      -7.229  20.836  65.243  1.00  0.00     0.000 HD 
HETATM   38  N   UNL     1      -6.852  19.945  64.921  1.00  0.00    -0.346 NA 
ENDBRANCH  34  35
ENDBRANCH  31  34
ENDBRANCH  29  31
ENDBRANCH  18  27
BRANCH  26  39
HETATM   39  O   UNL     1      -8.386  12.020  67.486  1.00  0.00    -0.148 OA 
BRANCH  39  40
HETATM   40  C   UNL     1      -8.797  10.934  66.650  1.00  0.00    -0.159 C  
HETATM   41  H1  UNL     1      -5.856   9.290  67.509  1.00  0.00     0.000 HD 
HETATM   42  O   UNL     1      -8.771  11.296  65.266  1.00  0.00    -0.095 OA 
HETATM   43  H2  UNL     1      -6.415  10.782  68.020  1.00  0.00     0.000 HD 
HETATM   44  N   UNL     1      -6.460  10.079  67.282  1.00  0.00    -0.067 NA 
HETATM   45  C   UNL     1      -7.869   9.723  67.000  1.00  0.00    -0.102 C  
HETATM   46  C   UNL     1      -9.017  10.237  64.408  1.00  0.00    -0.227 C  
HETATM   47  C   UNL     1      -7.995   8.585  65.977  1.00  0.00    -0.107 C  
HETATM   48  C   UNL     1      -8.681   8.973  64.710  1.00  0.00    -0.187 C  
BRANCH  46  49
HETATM   49  C   UNL     1      -9.646  10.608  63.084  1.00  0.00    -0.348 C  
BRANCH  49  50
HETATM   50  N   UNL     1     -10.326  11.907  63.109  1.00  0.00    -0.628 NA 
HETATM   51  H   UNL     1     -10.303  12.357  62.194  1.00  0.00     0.000 HD 
BRANCH  50  52
HETATM   52  C   UNL     1     -11.704  11.785  63.616  1.00  0.00    -0.415 C  
BRANCH  52  53
HETATM   53  C   UNL     1     -12.179  13.106  64.227  1.00  0.00    -0.396 C  
HETATM   54  O   UNL     1     -12.455  14.061  63.206  1.00  0.00    -1.139 OA 
HETATM   55  H   UNL     1     -12.749  14.881  63.585  1.00  0.00     0.000 HD 
ENDBRANCH  52  53
ENDBRANCH  50  52
ENDBRANCH  49  50
ENDBRANCH  46  49
ENDBRANCH  39  40
ENDBRANCH  26  39
ENDBRANCH  15  16
ENDBRANCH   6  15
ENDBRANCH   2   4
TORSDOF 13
ENDMDL
MODEL        7
REMARK 921   NORMALIZED FREE ENERGY PREDICTED BY IDOCK:   -5.47 KCAL/MOL
REMARK 922        TOTAL FREE ENERGY PREDICTED BY IDOCK:  -13.09 KCAL/MOL
REMARK 923 INTER-LIGAND FREE ENERGY PREDICTED BY IDOCK:  -10.41 KCAL/MOL
REMARK 924 INTRA-LIGAND FREE ENERGY PREDICTED BY IDOCK:   -2.67 KCAL/MOL
REMARK 927      BINDING AFFINITY PREDICTED BY RF-SCORE:    0.00 PKD
ROOT
HETATM    1  C   UNL     1     -10.264   7.392  73.636  1.00  0.00    -0.329 C  
HETATM    2  N   UNL     1     -11.035   6.925  72.487  1.00  0.00    -0.248 NA 
HETATM    3  H   UNL     1     -11.768   6.287  72.795  1.00  0.00     0.000 HD 
ENDROOT
BRANCH   2   4
HETATM    4  C   UNL     1     -11.619   7.996  71.625  1.00  0.00    -0.275 C  
HETATM    5  C   UNL     1     -10.709   9.247  71.534  1.00  0.00    -0.355 C  
HETATM    6  C   UNL     1     -11.288  10.236  70.497  1.00  0.00    -0.341 C  
HETATM    7  O   UNL     1      -9.364   8.884  71.213  1.00  0.00    -0.223 OA 
HETATM    8  H   UNL     1      -8.807   9.651  71.158  1.00  0.00     0.000 HD 
HETATM    9  O   UNL     1     -13.233   8.929  73.240  1.00  0.00    -0.831 OA 
HETATM   10  O   UNL     1     -12.590  10.641  70.922  1.00  0.00    -0.344 OA 
HETATM   11  H   UNL     1     -14.131   9.191  73.407  1.00  0.00     0.000 HD 
HETATM   12  C   UNL     1     -13.524   9.548  70.928  1.00  0.00    -0.043 C  
HETATM   13  C   UNL     1     -14.076   7.256  71.754  1.00  0.00    -0.485 C  
HETATM   14  C   UNL     1     -13.098   8.427  71.901  1.00  0.00    -0.358 C  
BRANCH   6  15
HETATM   15  O   UNL     1     -11.329   9.641  69.198  1.00  0.00    -0.087 OA 
BRANCH  15  16
HETATM   16  C   UNL     1     -11.062  10.518  68.090  1.00  0.00    -0.287 C  
HETATM   17  H1  UNL     1      -7.249  10.316  65.786  1.00  0.00     0.000 HD 
HETATM   18  C   UNL     1     -10.055  11.648  68.403  1.00  0.00    -0.206 C  
HETATM   19  C   UNL     1     -10.531   9.626  66.934  1.00  0.00    -0.212 C  
HETATM   20  H2  UNL     1      -6.958  11.629  66.804  1.00  0.00     0.000 HD 
HETATM   21  C   UNL     1      -8.112  10.128  67.662  1.00  0.00    -0.109 C  
HETATM   22  C   UNL     1      -8.689  11.038  68.763  1.00  0.00    -0.146 C  
HETATM   23  O   UNL     1     -10.503  10.380  65.702  1.00  0.00    -0.214 OA 
HETATM   24  H   UNL     1     -10.178   9.834  64.995  1.00  0.00     0.000 HD 
HETATM   25  N   UNL     1      -7.631  10.918  66.514  1.00  0.00    -0.138 NA 
HETATM   26  C   UNL     1      -9.133   9.023  67.254  1.00  0.00    -0.133 C  
BRANCH  18  27
HETATM   27  N   UNL     1      -9.977  12.619  67.311  1.00  0.00    -0.210 N  
HETATM   28  H   UNL     1      -9.467  12.360  66.466  1.00  0.00     0.000 HD 
HETATM   29  C   UNL     1     -10.557  13.866  67.370  1.00  0.00    -0.267 C  
HETATM   30  O   UNL     1     -11.215  14.272  68.322  1.00  0.00    -0.255 OA 
BRANCH  29  31
HETATM   31  C   UNL     1     -10.341  14.721  66.111  1.00  0.00    -0.304 C  
HETATM   32  H   UNL     1      -8.893  15.807  65.325  1.00  0.00     0.000 HD 
HETATM   33  O   UNL     1      -9.026  15.279  66.103  1.00  0.00    -0.301 OA 
BRANCH  31  34
HETATM   34  C   UNL     1     -10.524  13.887  64.844  1.00  0.00    -0.446 C  
BRANCH  34  35
HETATM   35  C   UNL     1     -12.000  13.616  64.549  1.00  0.00    -0.418 C  
HETATM   36  H1  UNL     1     -13.466  12.318  65.155  1.00  0.00     0.000 HD 
HETATM   37  H2  UNL     1     -12.315  12.645  66.347  1.00  0.00     0.000 HD 
HETATM   38  N   UNL     1     -12.482  12.499  65.352  1.00  0.00    -0.647 NA 
ENDBRANCH  34  35
ENDBRANCH  31  34
ENDBRANCH  29  31
ENDBRANCH  18  27
BRANCH  26  39
HETATM   39  O   UNL     1      -9.128   8.096  68.338  1.00  0.00    -0.137 OA 
BRANCH  39  40
HETATM   40  C   UNL     1      -9.464   6.731  68.070  1.00  0.00    -0.119 C  
HETATM   41  H1  UNL     1      -8.371   5.936  71.274  1.00  0.00     0.000 HD 
HETATM   42  O   UNL     1      -8.589   6.155  67.095  1.00  0.00    -0.105 OA 
HETATM   43  H2  UNL     1      -8.431   7.430  70.522  1.00  0.00     0.000 HD 
HETATM   44  N   UNL     1      -8.382   6.422  70.377  1.00  0.00    -0.125 NA 
HETATM   45  C   UNL     1      -9.447   5.986  69.446  1.00  0.00    -0.134 C  
HETATM   46  C   UNL     1      -8.778   4.795  66.911  1.00  0.00    -0.107 C  
HETATM   47  C   UNL     1      -9.495   4.461  69.278  1.00  0.00    -0.249 C  
HETATM   48  C   UNL     1      -9.204   3.988  67.894  1.00  0.00    -0.200 C  
BRANCH  46  49
HETATM   49  C   UNL     1      -8.423   4.273  65.536  1.00  0.00    -0.114 C  
BRANCH  49  50
HETATM   50  N   UNL     1      -8.944   2.928  65.274  1.00  0.00    -0.138 NA 
HETATM   51  H   UNL     1      -9.669   2.672  65.944  1.00  0.00     0.000 HD 
BRANCH  50  52
HETATM   52  C   UNL     1      -9.420   2.795  63.886  1.00  0.00    -0.120 C  
BRANCH  52  53
HETATM   53  C   UNL     1     -10.751   3.526  63.694  1.00  0.00    -0.260 C  
HETATM   54  O   UNL     1     -10.598   4.619  62.792  1.00  0.00    -0.394 OA 
HETATM   55  H   UNL     1     -11.424   5.074  62.673  1.00  0.00     0.000 HD 
ENDBRANCH  52  53
ENDBRANCH  50  52
ENDBRANCH  49  50
ENDBRANCH  46  49
ENDBRANCH  39  40
ENDBRANCH  26  39
ENDBRANCH  15  16
ENDBRANCH   6  15
ENDBRANCH   2   4
TORSDOF 13
ENDMDL
MODEL        8
REMARK 921   NORMALIZED FREE ENERGY PREDICTED BY IDOCK:   -5.46 KCAL/MOL
REMARK 922        TOTAL FREE ENERGY PREDICTED BY IDOCK:  -13.07 KCAL/MOL
REMARK 923 INTER-LIGAND FREE ENERGY PREDICTED BY IDOCK:  -10.61 KCAL/MOL
REMARK 924 INTRA-LIGAND FREE ENERGY PREDICTED BY IDOCK:   -2.46 KCAL/MOL
REMARK 927      BINDING AFFINITY PREDICTED BY RF-SCORE:    0.00 PKD
ROOT
HETATM    1  C   UNL     1     -11.276  10.669  66.854  1.00  0.00     0.027 C  
HETATM    2  N   UNL     1     -12.055  11.901  66.921  1.00  0.00    -0.505 NA 
HETATM    3  H   UNL     1     -12.408  12.040  67.868  1.00  0.00     0.000 HD 
ENDROOT
BRANCH   2   4
HETATM    4  C   UNL     1     -11.353  13.134  66.453  1.00  0.00    -0.315 C  
HETATM    5  C   UNL     1     -11.196  14.190  67.576  1.00  0.00    -0.306 C  
HETATM    6  C   UNL     1     -10.316  15.356  67.073  1.00  0.00    -0.280 C  
HETATM    7  O   UNL     1     -10.655  13.604  68.762  1.00  0.00    -0.249 OA 
HETATM    8  H   UNL     1     -10.559  14.252  69.451  1.00  0.00     0.000 HD 
HETATM    9  O   UNL     1     -13.244  14.218  65.299  1.00  0.00    -0.704 OA 
HETATM   10  O   UNL     1     -10.956  15.966  65.951  1.00  0.00    -0.264 OA 
HETATM   11  H   UNL     1     -13.560  14.632  64.504  1.00  0.00     0.000 HD 
HETATM   12  C   UNL     1     -11.042  15.077  64.824  1.00  0.00    -0.376 C  
HETATM   13  C   UNL     1     -11.811  12.871  63.939  1.00  0.00    -0.541 C  
HETATM   14  C   UNL     1     -11.874  13.816  65.144  1.00  0.00    -0.352 C  
BRANCH   6  15
HETATM   15  O   UNL     1      -9.007  14.894  66.734  1.00  0.00    -0.239 OA 
BRANCH  15  16
HETATM   16  C   UNL     1      -7.909  15.695  67.204  1.00  0.00    -0.217 C  
HETATM   17  H1  UNL     1      -5.308  14.383  70.581  1.00  0.00     0.000 HD 
HETATM   18  C   UNL     1      -8.178  16.413  68.546  1.00  0.00    -0.201 C  
HETATM   19  C   UNL     1      -6.688  14.744  67.336  1.00  0.00    -0.029 C  
HETATM   20  H2  UNL     1      -6.341  15.469  71.354  1.00  0.00     0.000 HD 
HETATM   21  C   UNL     1      -7.239  14.384  69.825  1.00  0.00     0.052 C  
HETATM   22  C   UNL     1      -8.410  15.371  69.654  1.00  0.00    -0.127 C  
HETATM   23  O   UNL     1      -5.482  15.514  67.533  1.00  0.00    -0.279 OA 
HETATM   24  H   UNL     1      -4.734  14.932  67.614  1.00  0.00     0.000 HD 
HETATM   25  N   UNL     1      -6.083  15.035  70.467  1.00  0.00    -0.120 NA 
HETATM   26  C   UNL     1      -6.879  13.699  68.473  1.00  0.00    -0.098 C  
BRANCH  18  27
HETATM   27  N   UNL     1      -7.114  17.364  68.872  1.00  0.00    -0.246 N  
HETATM   28  H   UNL     1      -6.179  17.002  69.058  1.00  0.00     0.000 HD 
HETATM   29  C   UNL     1      -7.315  18.724  68.939  1.00  0.00    -0.294 C  
HETATM   30  O   UNL     1      -8.388  19.271  68.707  1.00  0.00    -0.361 OA 
BRANCH  29  31
HETATM   31  C   UNL     1      -6.058  19.530  69.304  1.00  0.00    -0.281 C  
HETATM   32  H   UNL     1      -5.078  21.091  68.598  1.00  0.00     0.000 HD 
HETATM   33  O   UNL     1      -5.855  20.593  68.372  1.00  0.00    -0.272 OA 
BRANCH  31  34
HETATM   34  C   UNL     1      -6.178  20.127  70.706  1.00  0.00    -0.284 C  
BRANCH  34  35
HETATM   35  C   UNL     1      -5.168  19.512  71.675  1.00  0.00    -0.398 C  
HETATM   36  H1  UNL     1      -4.473  17.650  72.178  1.00  0.00     0.000 HD 
HETATM   37  H2  UNL     1      -4.969  17.777  70.568  1.00  0.00     0.000 HD 
HETATM   38  N   UNL     1      -5.146  18.061  71.532  1.00  0.00    -0.525 NA 
ENDBRANCH  34  35
ENDBRANCH  31  34
ENDBRANCH  29  31
ENDBRANCH  18  27
BRANCH  26  39
HETATM   39  O   UNL     1      -7.929  12.763  68.240  1.00  0.00    -0.139 OA 
BRANCH  39  40
HETATM   40  C   UNL     1      -7.864  11.489  68.888  1.00  0.00    -0.071 C  
HETATM   41  H1  UNL     1      -6.842  10.113  65.862  1.00  0.00     0.000 HD 
HETATM   42  O   UNL     1      -9.166  11.006  69.233  1.00  0.00    -0.073 OA 
HETATM   43  H2  UNL     1      -7.198  11.707  66.227  1.00  0.00     0.000 HD 
HETATM   44  N   UNL     1      -7.356  10.733  66.488  1.00  0.00    -0.133 NA 
HETATM   45  C   UNL     1      -7.075  10.537  67.928  1.00  0.00    -0.083 C  
HETATM   46  C   UNL     1      -9.168   9.712  69.727  1.00  0.00    -0.219 C  
HETATM   47  C   UNL     1      -7.186   9.066  68.355  1.00  0.00    -0.077 C  
HETATM   48  C   UNL     1      -8.262   8.797  69.351  1.00  0.00    -0.108 C  
BRANCH  46  49
HETATM   49  C   UNL     1     -10.291   9.387  70.686  1.00  0.00    -0.284 C  
BRANCH  49  50
HETATM   50  N   UNL     1     -11.512  10.158  70.433  1.00  0.00    -0.299 NA 
HETATM   51  H   UNL     1     -12.099   9.708  69.731  1.00  0.00     0.000 HD 
BRANCH  50  52
HETATM   52  C   UNL     1     -12.258  10.411  71.678  1.00  0.00    -0.245 C  
BRANCH  52  53
HETATM   53  C   UNL     1     -13.296   9.314  71.924  1.00  0.00    -0.429 C  
HETATM   54  O   UNL     1     -12.823   8.382  72.893  1.00  0.00    -0.659 OA 
HETATM   55  H   UNL     1     -13.468   7.701  73.045  1.00  0.00     0.000 HD 
ENDBRANCH  52  53
ENDBRANCH  50  52
ENDBRANCH  49  50
ENDBRANCH  46  49
ENDBRANCH  39  40
ENDBRANCH  26  39
ENDBRANCH  15  16
ENDBRANCH   6  15
ENDBRANCH   2   4
TORSDOF 13
ENDMDL
MODEL        9
REMARK 921   NORMALIZED FREE ENERGY PREDICTED BY IDOCK:   -5.30 KCAL/MOL
REMARK 922        TOTAL FREE ENERGY PREDICTED BY IDOCK:  -12.80 KCAL/MOL
REMARK 923 INTER-LIGAND FREE ENERGY PREDICTED BY IDOCK:  -10.61 KCAL/MOL
REMARK 924 INTRA-LIGAND FREE ENERGY PREDICTED BY IDOCK:   -2.19 KCAL/MOL
REMARK 927      BINDING AFFINITY PREDICTED BY RF-SCORE:    0.00 PKD
ROOT
HETATM    1  C   UNL     1      -7.841   6.528  62.387  1.00  0.00    -0.102 C  
HETATM    2  N   UNL     1      -8.546   6.707  63.652  1.00  0.00    -0.247 NA 
HETATM    3  H   UNL     1      -8.621   5.814  64.139  1.00  0.00     0.000 HD 
ENDROOT
BRANCH   2   4
HETATM    4  C   UNL     1      -7.974   7.741  64.567  1.00  0.00    -0.135 C  
HETATM    5  C   UNL     1      -7.935   9.149  63.921  1.00  0.00    -0.142 C  
HETATM    6  C   UNL     1      -7.498  10.192  64.974  1.00  0.00    -0.140 C  
HETATM    7  O   UNL     1      -9.199   9.488  63.346  1.00  0.00    -0.400 OA 
HETATM    8  H   UNL     1      -9.175  10.351  62.950  1.00  0.00     0.000 HD 
HETATM    9  O   UNL     1      -5.583   7.218  64.266  1.00  0.00    -0.032 OA 
HETATM   10  O   UNL     1      -6.189   9.859  65.437  1.00  0.00    -0.074 OA 
HETATM   11  H   UNL     1      -4.751   7.027  64.683  1.00  0.00     0.000 HD 
HETATM   12  C   UNL     1      -6.165   8.609  66.147  1.00  0.00    -0.052 C  
HETATM   13  C   UNL     1      -6.669   6.162  66.116  1.00  0.00    -0.056 C  
HETATM   14  C   UNL     1      -6.603   7.427  65.255  1.00  0.00    -0.044 C  
BRANCH   6  15
HETATM   15  O   UNL     1      -8.433  10.243  66.055  1.00  0.00    -0.132 OA 
BRANCH  15  16
HETATM   16  C   UNL     1      -8.658  11.537  66.638  1.00  0.00    -0.176 C  
HETATM   17  H1  UNL     1     -12.067  12.316  69.406  1.00  0.00     0.000 HD 
HETATM   18  C   UNL     1      -9.835  12.319  66.012  1.00  0.00    -0.248 C  
HETATM   19  C   UNL     1      -8.909  11.305  68.154  1.00  0.00    -0.159 C  
HETATM   20  H2  UNL     1     -12.659  12.944  67.957  1.00  0.00     0.000 HD 
HETATM   21  C   UNL     1     -11.448  11.271  67.726  1.00  0.00    -0.275 C  
HETATM   22  C   UNL     1     -11.147  11.549  66.240  1.00  0.00    -0.321 C  
HETATM   23  O   UNL     1      -8.867  12.564  68.860  1.00  0.00    -0.374 OA 
HETATM   24  H   UNL     1      -9.021  12.422  69.787  1.00  0.00     0.000 HD 
HETATM   25  N   UNL     1     -11.868  12.500  68.423  1.00  0.00    -0.327 NA 
HETATM   26  C   UNL     1     -10.248  10.557  68.418  1.00  0.00    -0.172 C  
BRANCH  18  27
HETATM   27  N   UNL     1      -9.890  13.696  66.503  1.00  0.00    -0.285 N  
HETATM   28  H   UNL     1      -9.546  13.891  67.444  1.00  0.00     0.000 HD 
HETATM   29  C   UNL     1     -10.383  14.742  65.757  1.00  0.00    -0.340 C  
HETATM   30  O   UNL     1     -10.795  14.630  64.607  1.00  0.00    -0.385 OA 
BRANCH  29  31
HETATM   31  C   UNL     1     -10.350  16.101  66.476  1.00  0.00    -0.308 C  
HETATM   32  H   UNL     1     -10.510  16.768  68.326  1.00  0.00     0.000 HD 
HETATM   33  O   UNL     1     -10.530  15.928  67.882  1.00  0.00    -0.271 OA 
BRANCH  31  34
HETATM   34  C   UNL     1      -9.019  16.813  66.239  1.00  0.00    -0.325 C  
BRANCH  34  35
HETATM   35  C   UNL     1      -9.132  18.320  66.469  1.00  0.00    -0.282 C  
HETATM   36  H1  UNL     1     -10.467  19.828  66.088  1.00  0.00     0.000 HD 
HETATM   37  H2  UNL     1     -11.193  18.320  66.314  1.00  0.00     0.000 HD 
HETATM   38  N   UNL     1     -10.392  18.823  65.935  1.00  0.00    -0.582 NA 
ENDBRANCH  34  35
ENDBRANCH  31  34
ENDBRANCH  29  31
ENDBRANCH  18  27
BRANCH  26  39
HETATM   39  O   UNL     1     -10.279   9.218  67.928  1.00  0.00    -0.189 OA 
BRANCH  39  40
HETATM   40  C   UNL     1     -10.152   8.146  68.866  1.00  0.00    -0.202 C  
HETATM   41  H1  UNL     1     -10.820   5.929  66.272  1.00  0.00     0.000 HD 
HETATM   42  O   UNL     1     -11.229   8.139  69.809  1.00  0.00    -0.129 OA 
HETATM   43  H2  UNL     1     -10.702   7.598  66.227  1.00  0.00     0.000 HD 
HETATM   44  N   UNL     1     -10.892   6.788  66.818  1.00  0.00    -0.295 NA 
HETATM   45  C   UNL     1     -10.042   6.828  68.029  1.00  0.00    -0.159 C  
HETATM   46  C   UNL     1     -11.232   7.034  70.644  1.00  0.00    -0.288 C  
HETATM   47  C   UNL     1     -10.200   5.575  68.901  1.00  0.00    -0.284 C  
HETATM   48  C   UNL     1     -10.756   5.840  70.260  1.00  0.00    -0.380 C  
BRANCH  46  49
HETATM   49  C   UNL     1     -11.854   7.253  72.005  1.00  0.00    -0.296 C  
BRANCH  49  50
HETATM   50  N   UNL     1     -13.222   6.737  72.107  1.00  0.00    -0.540 NA 
HETATM   51  H   UNL     1     -13.392   6.308  73.016  1.00  0.00     0.000 HD 
BRANCH  50  52
HETATM   52  C   UNL     1     -14.217   7.784  71.811  1.00  0.00    -0.444 C  
BRANCH  52  53
HETATM   53  C   UNL     1     -13.645   9.175  72.096  1.00  0.00    -0.474 C  
HETATM   54  O   UNL     1     -13.526   9.925  70.890  1.00  0.00    -0.540 OA 
HETATM   55  H   UNL     1     -13.171  10.789  71.067  1.00  0.00     0.000 HD 
ENDBRANCH  52  53
ENDBRANCH  50  52
ENDBRANCH  49  50
ENDBRANCH  46  49
ENDBRANCH  39  40
ENDBRANCH  26  39
ENDBRANCH  15  16
ENDBRANCH   6  15
ENDBRANCH   2   4
TORSDOF 13
ENDMDL
MODEL       10
REMARK 921   NORMALIZED FREE ENERGY PREDICTED BY IDOCK:   -5.26 KCAL/MOL
REMARK 922        TOTAL FREE ENERGY PREDICTED BY IDOCK:  -12.71 KCAL/MOL
REMARK 923 INTER-LIGAND FREE ENERGY PREDICTED BY IDOCK:   -9.34 KCAL/MOL
REMARK 924 INTRA-LIGAND FREE ENERGY PREDICTED BY IDOCK:   -3.37 KCAL/MOL
REMARK 927      BINDING AFFINITY PREDICTED BY RF-SCORE:    0.00 PKD
ROOT
HETATM    1  C   UNL     1     -10.308  15.393  67.275  1.00  0.00    -0.271 C  
HETATM    2  N   UNL     1     -11.590  14.801  67.645  1.00  0.00    -0.347 NA 
HETATM    3  H   UNL     1     -12.060  14.440  66.814  1.00  0.00     0.000 HD 
ENDROOT
BRANCH   2   4
HETATM    4  C   UNL     1     -11.533  13.744  68.698  1.00  0.00    -0.301 C  
HETATM    5  C   UNL     1     -12.157  12.405  68.230  1.00  0.00    -0.048 C  
HETATM    6  C   UNL     1     -11.910  11.315  69.297  1.00  0.00    -0.354 C  
HETATM    7  O   UNL     1     -11.640  12.013  66.957  1.00  0.00    -0.422 OA 
HETATM    8  H   UNL     1     -12.023  11.192  66.670  1.00  0.00     0.000 HD 
HETATM    9  O   UNL     1     -13.442  14.489  70.071  1.00  0.00    -0.224 OA 
HETATM   10  O   UNL     1     -12.535  11.715  70.518  1.00  0.00    -0.308 OA 
HETATM   11  H   UNL     1     -13.760  14.711  70.937  1.00  0.00     0.000 HD 
HETATM   12  C   UNL     1     -11.934  12.897  71.074  1.00  0.00     0.267 C  
HETATM   13  C   UNL     1     -11.289  15.287  70.738  1.00  0.00    -0.365 C  
HETATM   14  C   UNL     1     -12.058  14.110  70.127  1.00  0.00    -0.346 C  
BRANCH   6  15
HETATM   15  O   UNL     1     -10.510  11.094  69.481  1.00  0.00    -0.164 OA 
BRANCH  15  16
HETATM   16  C   UNL     1     -10.145   9.909  70.210  1.00  0.00    -0.237 C  
HETATM   17  H1  UNL     1      -7.829   6.598  68.321  1.00  0.00     0.000 HD 
HETATM   18  C   UNL     1     -10.979   8.660  69.847  1.00  0.00    -0.168 C  
HETATM   19  C   UNL     1      -8.639   9.655  69.922  1.00  0.00    -0.203 C  
HETATM   20  H2  UNL     1      -9.400   5.990  68.257  1.00  0.00     0.000 HD 
HETATM   21  C   UNL     1      -9.277   8.050  68.012  1.00  0.00    -0.135 C  
HETATM   22  C   UNL     1     -10.755   8.299  68.368  1.00  0.00    -0.072 C  
HETATM   23  O   UNL     1      -8.125   8.655  70.828  1.00  0.00    -0.102 OA 
HETATM   24  H   UNL     1      -7.204   8.499  70.652  1.00  0.00     0.000 HD 
HETATM   25  N   UNL     1      -8.807   6.763  68.557  1.00  0.00    -0.124 NA 
HETATM   26  C   UNL     1      -8.385   9.255  68.440  1.00  0.00    -0.119 C  
BRANCH  18  27
HETATM   27  N   UNL     1     -10.703   7.545  70.754  1.00  0.00    -0.225 N  
HETATM   28  H   UNL     1      -9.829   7.030  70.639  1.00  0.00     0.000 HD 
HETATM   29  C   UNL     1     -11.565   7.157  71.754  1.00  0.00    -0.280 C  
HETATM   30  O   UNL     1     -12.627   7.719  72.000  1.00  0.00    -0.303 OA 
BRANCH  29  31
HETATM   31  C   UNL     1     -11.073   5.957  72.580  1.00  0.00    -0.283 C  
HETATM   32  H   UNL     1     -10.026   4.313  72.271  1.00  0.00     0.000 HD 
HETATM   33  O   UNL     1     -10.330   5.055  71.760  1.00  0.00    -0.204 OA 
BRANCH  31  34
HETATM   34  C   UNL     1     -10.181   6.415  73.734  1.00  0.00    -0.306 C  
BRANCH  34  35
HETATM   35  C   UNL     1      -8.711   6.079  73.484  1.00  0.00    -0.125 C  
HETATM   36  H1  UNL     1      -6.896   7.031  73.533  1.00  0.00     0.000 HD 
HETATM   37  H2  UNL     1      -8.021   7.658  74.625  1.00  0.00     0.000 HD 
HETATM   38  N   UNL     1      -7.876   7.255  73.700  1.00  0.00    -0.103 NA 
ENDBRANCH  34  35
ENDBRANCH  31  34
ENDBRANCH  29  31
ENDBRANCH  18  27
BRANCH  26  39
HETATM   39  O   UNL     1      -8.673  10.283  67.495  1.00  0.00    -0.125 OA 
BRANCH  39  40
HETATM   40  C   UNL     1      -8.557   9.981  66.102  1.00  0.00    -0.133 C  
HETATM   41  H1  UNL     1      -5.239  11.009  66.258  1.00  0.00     0.000 HD 
HETATM   42  O   UNL     1      -9.316  10.892  65.300  1.00  0.00    -0.197 OA 
HETATM   43  H2  UNL     1      -6.378  10.938  67.482  1.00  0.00     0.000 HD 
HETATM   44  N   UNL     1      -6.236  11.011  66.474  1.00  0.00    -0.120 NA 
HETATM   45  C   UNL     1      -7.028   9.979  65.770  1.00  0.00    -0.112 C  
HETATM   46  C   UNL     1      -9.118  10.735  63.938  1.00  0.00    -0.191 C  
HETATM   47  C   UNL     1      -6.765   9.965  64.257  1.00  0.00    -0.126 C  
HETATM   48  C   UNL     1      -7.957  10.300  63.426  1.00  0.00    -0.147 C  
BRANCH  46  49
HETATM   49  C   UNL     1     -10.285  11.135  63.064  1.00  0.00    -0.214 C  
BRANCH  49  50
HETATM   50  N   UNL     1     -11.518  11.379  63.818  1.00  0.00    -0.513 NA 
HETATM   51  H   UNL     1     -11.330  11.495  64.814  1.00  0.00     0.000 HD 
BRANCH  50  52
HETATM   52  C   UNL     1     -12.264  12.528  63.274  1.00  0.00    -0.413 C  
BRANCH  52  53
HETATM   53  C   UNL     1     -12.040  13.778  64.129  1.00  0.00    -0.433 C  
HETATM   54  O   UNL     1     -13.136  13.983  65.016  1.00  0.00    -0.742 OA 
HETATM   55  H   UNL     1     -12.996  14.759  65.546  1.00  0.00     0.000 HD 
ENDBRANCH  52  53
ENDBRANCH  50  52
ENDBRANCH  49  50
ENDBRANCH  46  49
ENDBRANCH  39  40
ENDBRANCH  26  39
ENDBRANCH  15  16
ENDBRANCH   6  15
ENDBRANCH   2   4
TORSDOF 13
ENDMDL
MODEL       11
REMARK 921   NORMALIZED FREE ENERGY PREDICTED BY IDOCK:   -5.22 KCAL/MOL
REMARK 922        TOTAL FREE ENERGY PREDICTED BY IDOCK:  -12.65 KCAL/MOL
REMARK 923 INTER-LIGAND FREE ENERGY PREDICTED BY IDOCK:   -9.38 KCAL/MOL
REMARK 924 INTRA-LIGAND FREE ENERGY PREDICTED BY IDOCK:   -3.27 KCAL/MOL
REMARK 927      BINDING AFFINITY PREDICTED BY RF-SCORE:    0.00 PKD
ROOT
HETATM    1  C   UNL     1     -11.191  15.043  65.539  1.00  0.00    -0.344 C  
HETATM    2  N   UNL     1     -11.839  13.831  66.031  1.00  0.00    -0.370 NA 
HETATM    3  H   UNL     1     -12.797  13.781  65.684  1.00  0.00     0.000 HD 
ENDROOT
BRANCH   2   4
HETATM    4  C   UNL     1     -11.124  12.553  65.738  1.00  0.00    -0.308 C  
HETATM    5  C   UNL     1      -9.760  12.456  66.467  1.00  0.00    -0.240 C  
HETATM    6  C   UNL     1      -9.159  11.048  66.260  1.00  0.00    -0.182 C  
HETATM    7  O   UNL     1      -9.895  12.764  67.856  1.00  0.00    -0.209 OA 
HETATM    8  H   UNL     1      -9.058  12.705  68.303  1.00  0.00     0.000 HD 
HETATM    9  O   UNL     1     -10.224  13.135  63.517  1.00  0.00    -0.568 OA 
HETATM   10  O   UNL     1      -8.952  10.835  64.862  1.00  0.00    -0.192 OA 
HETATM   11  H   UNL     1     -10.125  12.883  62.607  1.00  0.00     0.000 HD 
HETATM   12  C   UNL     1     -10.188  10.803  64.129  1.00  0.00    -0.344 C  
HETATM   13  C   UNL     1     -12.314  11.975  63.536  1.00  0.00    -0.661 C  
HETATM   14  C   UNL     1     -10.961  12.136  64.238  1.00  0.00    -0.339 C  
BRANCH   6  15
HETATM   15  O   UNL     1     -10.013  10.045  66.815  1.00  0.00    -0.191 OA 
BRANCH  15  16
HETATM   16  C   UNL     1      -9.358   8.926  67.436  1.00  0.00    -0.136 C  
HETATM   17  H1  UNL     1      -9.542   8.231  71.838  1.00  0.00     0.000 HD 
HETATM   18  C   UNL     1      -8.068   9.293  68.205  1.00  0.00    -0.107 C  
HETATM   19  C   UNL     1     -10.394   8.280  68.397  1.00  0.00    -0.199 C  
HETATM   20  H2  UNL     1      -8.021   8.939  71.672  1.00  0.00     0.000 HD 
HETATM   21  C   UNL     1      -9.447   9.670  70.348  1.00  0.00    -0.222 C  
HETATM   22  C   UNL     1      -8.410  10.245  69.364  1.00  0.00    -0.169 C  
HETATM   23  O   UNL     1      -9.915   6.995  68.849  1.00  0.00    -0.154 OA 
HETATM   24  H   UNL     1     -10.549   6.600  69.437  1.00  0.00     0.000 HD 
HETATM   25  N   UNL     1      -8.856   8.611  71.187  1.00  0.00    -0.180 NA 
HETATM   26  C   UNL     1     -10.734   9.207  69.600  1.00  0.00    -0.225 C  
BRANCH  18  27
HETATM   27  N   UNL     1      -7.342   8.100  68.641  1.00  0.00    -0.087 N  
HETATM   28  H   UNL     1      -7.880   7.275  68.910  1.00  0.00     0.000 HD 
HETATM   29  C   UNL     1      -5.969   8.036  68.707  1.00  0.00    -0.039 C  
HETATM   30  O   UNL     1      -5.224   8.954  68.383  1.00  0.00    -0.033 OA 
BRANCH  29  31
HETATM   31  C   UNL     1      -5.423   6.686  69.200  1.00  0.00    -0.014 C  
HETATM   32  H   UNL     1      -5.755   5.446  70.700  1.00  0.00     0.000 HD 
HETATM   33  O   UNL     1      -6.093   6.281  70.395  1.00  0.00    -0.032 OA 
BRANCH  31  34
HETATM   34  C   UNL     1      -5.614   5.599  68.142  1.00  0.00    -0.012 C  
BRANCH  34  35
HETATM   35  C   UNL     1      -6.730   4.626  68.522  1.00  0.00    -0.050 C  
HETATM   36  H1  UNL     1      -8.641   4.184  67.925  1.00  0.00     0.000 HD 
HETATM   37  H2  UNL     1      -7.660   4.772  66.682  1.00  0.00     0.000 HD 
HETATM   38  N   UNL     1      -7.896   4.833  67.672  1.00  0.00    -0.090 NA 
ENDBRANCH  34  35
ENDBRANCH  31  34
ENDBRANCH  29  31
ENDBRANCH  18  27
BRANCH  26  39
HETATM   39  O   UNL     1     -11.408  10.412  69.242  1.00  0.00    -0.237 OA 
BRANCH  39  40
HETATM   40  C   UNL     1     -11.667  11.378  70.265  1.00  0.00    -0.306 C  
HETATM   41  H1  UNL     1     -14.458   9.515  71.179  1.00  0.00     0.000 HD 
HETATM   42  O   UNL     1     -12.074  12.634  69.712  1.00  0.00    -0.294 OA 
HETATM   43  H2  UNL     1     -13.333   9.207  69.978  1.00  0.00     0.000 HD 
HETATM   44  N   UNL     1     -13.767   9.930  70.553  1.00  0.00     0.197 NA 
HETATM   45  C   UNL     1     -12.727  10.742  71.224  1.00  0.00    -0.441 C  
HETATM   46  C   UNL     1     -12.480  13.556  70.663  1.00  0.00    -0.333 C  
HETATM   47  C   UNL     1     -13.321  11.774  72.194  1.00  0.00    -0.334 C  
HETATM   48  C   UNL     1     -13.048  13.192  71.822  1.00  0.00    -0.478 C  
BRANCH  46  49
HETATM   49  C   UNL     1     -12.282  15.006  70.283  1.00  0.00    -0.340 C  
BRANCH  49  50
HETATM   50  N   UNL     1     -11.372  15.191  69.149  1.00  0.00    -0.279 NA 
HETATM   51  H   UNL     1     -11.882  15.414  68.294  1.00  0.00     0.000 HD 
BRANCH  50  52
HETATM   52  C   UNL     1     -10.343  16.203  69.443  1.00  0.00    -0.277 C  
BRANCH  52  53
HETATM   53  C   UNL     1      -9.028  15.864  68.736  1.00  0.00    -0.216 C  
HETATM   54  O   UNL     1      -8.356  14.802  69.408  1.00  0.00    -0.342 OA 
HETATM   55  H   UNL     1      -7.539  14.592  68.969  1.00  0.00     0.000 HD 
ENDBRANCH  52  53
ENDBRANCH  50  52
ENDBRANCH  49  50
ENDBRANCH  46  49
ENDBRANCH  39  40
ENDBRANCH  26  39
ENDBRANCH  15  16
ENDBRANCH   6  15
ENDBRANCH   2   4
TORSDOF 13
ENDMDL
MODEL       12
REMARK 921   NORMALIZED FREE ENERGY PREDICTED BY IDOCK:   -5.14 KCAL/MOL
REMARK 922        TOTAL FREE ENERGY PREDICTED BY IDOCK:  -12.50 KCAL/MOL
REMARK 923 INTER-LIGAND FREE ENERGY PREDICTED BY IDOCK:  -10.40 KCAL/MOL
REMARK 924 INTRA-LIGAND FREE ENERGY PREDICTED BY IDOCK:   -2.10 KCAL/MOL
REMARK 927      BINDING AFFINITY PREDICTED BY RF-SCORE:    0.00 PKD
ROOT
HETATM    1  C   UNL     1      -5.300  15.008  70.697  1.00  0.00    -0.134 C  
HETATM    2  N   UNL     1      -6.675  14.782  70.264  1.00  0.00    -0.261 NA 
HETATM    3  H   UNL     1      -7.051  15.631  69.840  1.00  0.00     0.000 HD 
ENDROOT
BRANCH   2   4
HETATM    4  C   UNL     1      -6.881  13.620  69.348  1.00  0.00    -0.022 C  
HETATM    5  C   UNL     1      -6.020  12.394  69.743  1.00  0.00    -0.136 C  
HETATM    6  C   UNL     1      -6.408  11.182  68.866  1.00  0.00    -0.050 C  
HETATM    7  O   UNL     1      -6.157  12.095  71.134  1.00  0.00    -0.485 OA 
HETATM    8  H   UNL     1      -5.629  11.343  71.377  1.00  0.00     0.000 HD 
HETATM    9  O   UNL     1      -5.467  14.374  67.474  1.00  0.00    -0.340 OA 
HETATM   10  O   UNL     1      -6.155  11.503  67.498  1.00  0.00    -0.056 OA 
HETATM   11  H   UNL     1      -5.401  14.531  66.539  1.00  0.00     0.000 HD 
HETATM   12  C   UNL     1      -6.998  12.567  67.024  1.00  0.00     0.043 C  
HETATM   13  C   UNL     1      -7.791  14.917  67.326  1.00  0.00    -0.235 C  
HETATM   14  C   UNL     1      -6.772  13.878  67.808  1.00  0.00    -0.176 C  
BRANCH   6  15
HETATM   15  O   UNL     1      -7.778  10.827  69.070  1.00  0.00    -0.114 OA 
BRANCH  15  16
HETATM   16  C   UNL     1      -8.018   9.544  69.672  1.00  0.00    -0.120 C  
HETATM   17  H1  UNL     1     -10.590   6.467  67.719  1.00  0.00     0.000 HD 
HETATM   18  C   UNL     1      -9.425   9.388  70.292  1.00  0.00    -0.251 C  
HETATM   19  C   UNL     1      -7.797   8.482  68.559  1.00  0.00    -0.108 C  
HETATM   20  H2  UNL     1     -11.651   7.121  68.856  1.00  0.00     0.000 HD 
HETATM   21  C   UNL     1     -10.321   8.497  68.046  1.00  0.00    -0.217 C  
HETATM   22  C   UNL     1     -10.493   9.514  69.191  1.00  0.00    -0.224 C  
HETATM   23  O   UNL     1      -7.745   7.161  69.141  1.00  0.00    -0.104 OA 
HETATM   24  H   UNL     1      -7.610   6.511  68.461  1.00  0.00     0.000 HD 
HETATM   25  N   UNL     1     -10.704   7.140  68.477  1.00  0.00    -0.183 NA 
HETATM   26  C   UNL     1      -8.883   8.563  67.448  1.00  0.00    -0.134 C  
BRANCH  18  27
HETATM   27  N   UNL     1      -9.542   8.147  71.059  1.00  0.00    -0.156 N  
HETATM   28  H   UNL     1     -10.076   7.375  70.657  1.00  0.00     0.000 HD 
HETATM   29  C   UNL     1      -8.967   7.971  72.297  1.00  0.00    -0.171 C  
HETATM   30  O   UNL     1      -8.283   8.817  72.862  1.00  0.00    -0.410 OA 
BRANCH  29  31
HETATM   31  C   UNL     1      -9.225   6.590  72.921  1.00  0.00    -0.135 C  
HETATM   32  H   UNL     1      -8.486   5.500  74.391  1.00  0.00     0.000 HD 
HETATM   33  O   UNL     1      -8.326   6.354  74.006  1.00  0.00    -0.114 OA 
BRANCH  31  34
HETATM   34  C   UNL     1     -10.658   6.485  73.445  1.00  0.00    -0.309 C  
BRANCH  34  35
HETATM   35  C   UNL     1     -11.557   5.703  72.487  1.00  0.00    -0.246 C  
HETATM   36  H1  UNL     1     -12.919   6.097  71.006  1.00  0.00     0.000 HD 
HETATM   37  H2  UNL     1     -11.713   7.271  71.149  1.00  0.00     0.000 HD 
HETATM   38  N   UNL     1     -12.319   6.618  71.645  1.00  0.00    -0.355 NA 
ENDBRANCH  34  35
ENDBRANCH  31  34
ENDBRANCH  29  31
ENDBRANCH  18  27
BRANCH  26  39
HETATM   39  O   UNL     1      -8.854   9.767  66.685  1.00  0.00    -0.136 OA 
BRANCH  39  40
HETATM   40  C   UNL     1      -9.467   9.770  65.392  1.00  0.00    -0.269 C  
HETATM   41  H1  UNL     1      -6.285   9.876  63.993  1.00  0.00     0.000 HD 
HETATM   42  O   UNL     1     -10.156  10.999  65.139  1.00  0.00    -0.254 OA 
HETATM   43  H2  UNL     1      -6.724   9.815  65.607  1.00  0.00     0.000 HD 
HETATM   44  N   UNL     1      -7.024  10.077  64.667  1.00  0.00    -0.134 NA 
HETATM   45  C   UNL     1      -8.333   9.462  64.357  1.00  0.00    -0.167 C  
HETATM   46  C   UNL     1     -10.639  11.111  63.845  1.00  0.00    -0.364 C  
HETATM   47  C   UNL     1      -8.782   9.728  62.913  1.00  0.00    -0.229 C  
HETATM   48  C   UNL     1     -10.035  10.528  62.798  1.00  0.00    -0.048 C  
BRANCH  46  49
HETATM   49  C   UNL     1     -11.869  11.976  63.686  1.00  0.00    -0.506 C  
BRANCH  49  50
HETATM   50  N   UNL     1     -11.558  13.393  63.473  1.00  0.00    -0.668 NA 
HETATM   51  H   UNL     1     -11.975  13.741  62.610  1.00  0.00     0.000 HD 
BRANCH  50  52
HETATM   52  C   UNL     1     -11.955  14.212  64.632  1.00  0.00    -0.445 C  
BRANCH  52  53
HETATM   53  C   UNL     1     -11.125  15.496  64.702  1.00  0.00    -0.359 C  
HETATM   54  O   UNL     1     -11.627  16.469  63.790  1.00  0.00    -1.617 OA 
HETATM   55  H   UNL     1     -11.112  17.266  63.833  1.00  0.00     0.000 HD 
ENDBRANCH  52  53
ENDBRANCH  50  52
ENDBRANCH  49  50
ENDBRANCH  46  49
ENDBRANCH  39  40
ENDBRANCH  26  39
ENDBRANCH  15  16
ENDBRANCH   6  15
ENDBRANCH   2   4
TORSDOF 13
ENDMDL
MODEL       13
REMARK 921   NORMALIZED FREE ENERGY PREDICTED BY IDOCK:   -5.12 KCAL/MOL
REMARK 922        TOTAL FREE ENERGY PREDICTED BY IDOCK:  -12.48 KCAL/MOL
REMARK 923 INTER-LIGAND FREE ENERGY PREDICTED BY IDOCK:   -9.76 KCAL/MOL
REMARK 924 INTRA-LIGAND FREE ENERGY PREDICTED BY IDOCK:   -2.71 KCAL/MOL
REMARK 927      BINDING AFFINITY PREDICTED BY RF-SCORE:    0.00 PKD
ROOT
HETATM    1  C   UNL     1      -5.913   4.854  63.597  1.00  0.00    -0.018 C  
HETATM    2  N   UNL     1      -7.183   5.559  63.454  1.00  0.00    -0.047 NA 
HETATM    3  H   UNL     1      -7.602   5.343  62.549  1.00  0.00     0.000 HD 
ENDROOT
BRANCH   2   4
HETATM    4  C   UNL     1      -8.177   5.325  64.545  1.00  0.00    -0.135 C  
HETATM    5  C   UNL     1      -7.544   5.430  65.955  1.00  0.00    -0.087 C  
HETATM    6  C   UNL     1      -8.652   5.350  67.029  1.00  0.00    -0.109 C  
HETATM    7  O   UNL     1      -6.775   6.627  66.088  1.00  0.00    -0.046 OA 
HETATM    8  H   UNL     1      -6.387   6.691  66.953  1.00  0.00     0.000 HD 
HETATM    9  O   UNL     1      -8.260   2.863  64.446  1.00  0.00    -0.082 OA 
HETATM   10  O   UNL     1      -9.318   4.092  66.913  1.00  0.00    -0.154 OA 
HETATM   11  H   UNL     1      -8.803   2.086  64.390  1.00  0.00     0.000 HD 
HETATM   12  C   UNL     1     -10.023   3.964  65.667  1.00  0.00    -0.104 C  
HETATM   13  C   UNL     1      -9.915   4.025  63.171  1.00  0.00    -0.140 C  
HETATM   14  C   UNL     1      -9.073   4.046  64.452  1.00  0.00    -0.142 C  
BRANCH   6  15
HETATM   15  O   UNL     1      -9.571   6.437  66.891  1.00  0.00    -0.139 OA 
BRANCH  15  16
HETATM   16  C   UNL     1     -10.048   7.024  68.114  1.00  0.00    -0.169 C  
HETATM   17  H1  UNL     1      -8.778  11.092  69.428  1.00  0.00     0.000 HD 
HETATM   18  C   UNL     1      -9.008   7.040  69.257  1.00  0.00    -0.138 C  
HETATM   19  C   UNL     1     -10.493   8.472  67.768  1.00  0.00    -0.223 C  
HETATM   20  H2  UNL     1      -7.784  10.108  70.371  1.00  0.00     0.000 HD 
HETATM   21  C   UNL     1      -8.178   9.350  68.476  1.00  0.00    -0.113 C  
HETATM   22  C   UNL     1      -7.802   7.903  68.848  1.00  0.00    -0.117 C  
HETATM   23  O   UNL     1     -11.239   9.035  68.869  1.00  0.00    -0.439 OA 
HETATM   24  H   UNL     1     -11.511   9.921  68.658  1.00  0.00     0.000 HD 
HETATM   25  N   UNL     1      -8.529  10.135  69.674  1.00  0.00    -0.175 NA 
HETATM   26  C   UNL     1      -9.289   9.379  67.383  1.00  0.00    -0.126 C  
BRANCH  18  27
HETATM   27  N   UNL     1      -9.606   7.461  70.524  1.00  0.00    -0.172 N  
HETATM   28  H   UNL     1      -9.554   8.447  70.783  1.00  0.00     0.000 HD 
HETATM   29  C   UNL     1     -10.236   6.591  71.385  1.00  0.00    -0.197 C  
HETATM   30  O   UNL     1     -10.381   5.393  71.164  1.00  0.00    -0.219 OA 
BRANCH  29  31
HETATM   31  C   UNL     1     -10.784   7.251  72.660  1.00  0.00    -0.278 C  
HETATM   32  H   UNL     1     -10.089   7.806  74.422  1.00  0.00     0.000 HD 
HETATM   33  O   UNL     1      -9.750   7.397  73.634  1.00  0.00    -0.256 OA 
BRANCH  31  34
HETATM   34  C   UNL     1     -11.365   8.632  72.355  1.00  0.00    -0.353 C  
BRANCH  34  35
HETATM   35  C   UNL     1     -12.837   8.553  71.952  1.00  0.00    -0.363 C  
HETATM   36  H1  UNL     1     -14.213   9.704  70.958  1.00  0.00     0.000 HD 
HETATM   37  H2  UNL     1     -12.627   9.931  70.425  1.00  0.00     0.000 HD 
HETATM   38  N   UNL     1     -13.231   9.756  71.227  1.00  0.00    -0.384 NA 
ENDBRANCH  34  35
ENDBRANCH  31  34
ENDBRANCH  29  31
ENDBRANCH  18  27
BRANCH  26  39
HETATM   39  O   UNL     1      -8.631   9.001  66.176  1.00  0.00    -0.124 OA 
BRANCH  39  40
HETATM   40  C   UNL     1      -9.191   9.429  64.931  1.00  0.00    -0.183 C  
HETATM   41  H1  UNL     1      -6.238   8.448  63.378  1.00  0.00     0.000 HD 
HETATM   42  O   UNL     1      -9.326  10.852  64.875  1.00  0.00    -0.208 OA 
HETATM   43  H2  UNL     1      -6.664   8.344  64.993  1.00  0.00     0.000 HD 
HETATM   44  N   UNL     1      -6.832   8.831  64.113  1.00  0.00    -0.082 NA 
HETATM   45  C   UNL     1      -8.279   8.841  63.803  1.00  0.00    -0.163 C  
HETATM   46  C   UNL     1      -9.724  11.327  63.636  1.00  0.00    -0.321 C  
HETATM   47  C   UNL     1      -8.583   9.462  62.432  1.00  0.00    -0.221 C  
HETATM   48  C   UNL     1      -9.407  10.704  62.491  1.00  0.00    -0.316 C  
BRANCH  46  49
HETATM   49  C   UNL     1     -10.500  12.625  63.658  1.00  0.00    -0.314 C  
BRANCH  49  50
HETATM   50  N   UNL     1      -9.838  13.684  64.425  1.00  0.00    -0.679 NA 
HETATM   51  H   UNL     1      -9.246  14.262  63.829  1.00  0.00     0.000 HD 
BRANCH  50  52
HETATM   52  C   UNL     1     -10.812  14.499  65.171  1.00  0.00    -0.395 C  
BRANCH  52  53
HETATM   53  C   UNL     1     -11.934  14.987  64.251  1.00  0.00    -0.295 C  
HETATM   54  O   UNL     1     -11.638  16.286  63.743  1.00  0.00    -1.539 OA 
HETATM   55  H   UNL     1     -12.334  16.589  63.172  1.00  0.00     0.000 HD 
ENDBRANCH  52  53
ENDBRANCH  50  52
ENDBRANCH  49  50
ENDBRANCH  46  49
ENDBRANCH  39  40
ENDBRANCH  26  39
ENDBRANCH  15  16
ENDBRANCH   6  15
ENDBRANCH   2   4
TORSDOF 13
ENDMDL
MODEL       14
REMARK 921   NORMALIZED FREE ENERGY PREDICTED BY IDOCK:   -5.10 KCAL/MOL
REMARK 922        TOTAL FREE ENERGY PREDICTED BY IDOCK:  -12.44 KCAL/MOL
REMARK 923 INTER-LIGAND FREE ENERGY PREDICTED BY IDOCK:  -10.45 KCAL/MOL
REMARK 924 INTRA-LIGAND FREE ENERGY PREDICTED BY IDOCK:   -1.99 KCAL/MOL
REMARK 927      BINDING AFFINITY PREDICTED BY RF-SCORE:    0.00 PKD
ROOT
HETATM    1  C   UNL     1     -12.283  11.449  70.741  1.00  0.00    -0.376 C  
HETATM    2  N   UNL     1     -13.037  12.549  70.147  1.00  0.00     0.679 NA 
HETATM    3  H   UNL     1     -13.995  12.544  70.497  1.00  0.00     0.000 HD 
ENDROOT
BRANCH   2   4
HETATM    4  C   UNL     1     -12.438  13.907  70.318  1.00  0.00    -0.314 C  
HETATM    5  C   UNL     1     -10.898  13.902  70.145  1.00  0.00     0.509 C  
HETATM    6  C   UNL     1     -10.369  15.354  70.162  1.00  0.00    -0.239 C  
HETATM    7  O   UNL     1     -10.516  13.223  68.947  1.00  0.00    -0.363 OA 
HETATM    8  H   UNL     1      -9.572  13.220  68.841  1.00  0.00     0.000 HD 
HETATM    9  O   UNL     1     -12.452  14.009  72.782  1.00  0.00    -0.131 OA 
HETATM   10  O   UNL     1     -10.691  15.948  71.421  1.00  0.00     0.123 OA 
HETATM   11  H   UNL     1     -12.692  14.503  73.557  1.00  0.00     0.000 HD 
HETATM   12  C   UNL     1     -12.110  16.087  71.608  1.00  0.00    -0.472 C  
HETATM   13  C   UNL     1     -14.343  14.968  71.676  1.00  0.00    -0.680 C  
HETATM   14  C   UNL     1     -12.832  14.722  71.595  1.00  0.00    -0.332 C  
BRANCH   6  15
HETATM   15  O   UNL     1     -10.919  16.106  69.078  1.00  0.00    -0.271 OA 
BRANCH  15  16
HETATM   16  C   UNL     1     -10.149  17.238  68.637  1.00  0.00    -0.341 C  
HETATM   17  H1  UNL     1      -8.125  17.310  64.664  1.00  0.00     0.000 HD 
HETATM   18  C   UNL     1      -8.620  17.023  68.686  1.00  0.00    -0.265 C  
HETATM   19  C   UNL     1     -10.606  17.548  67.185  1.00  0.00    -0.264 C  
HETATM   20  H2  UNL     1      -6.842  16.927  65.689  1.00  0.00     0.000 HD 
HETATM   21  C   UNL     1      -8.666  16.120  66.273  1.00  0.00    -0.337 C  
HETATM   22  C   UNL     1      -8.227  15.882  67.731  1.00  0.00    -0.157 C  
HETATM   23  O   UNL     1     -10.090  18.831  66.768  1.00  0.00    -0.324 OA 
HETATM   24  H   UNL     1     -10.369  19.020  65.879  1.00  0.00     0.000 HD 
HETATM   25  N   UNL     1      -7.835  17.153  65.628  1.00  0.00    -0.192 NA 
HETATM   26  C   UNL     1     -10.192  16.426  66.189  1.00  0.00    -0.348 C  
BRANCH  18  27
HETATM   27  N   UNL     1      -7.892  18.264  68.420  1.00  0.00    -0.296 N  
HETATM   28  H   UNL     1      -8.428  19.114  68.245  1.00  0.00     0.000 HD 
HETATM   29  C   UNL     1      -6.518  18.340  68.395  1.00  0.00    -0.208 C  
HETATM   30  O   UNL     1      -5.775  17.391  68.619  1.00  0.00    -0.152 OA 
BRANCH  29  31
HETATM   31  C   UNL     1      -5.969  19.743  68.089  1.00  0.00    -0.230 C  
HETATM   32  H   UNL     1      -6.367  21.217  66.838  1.00  0.00     0.000 HD 
HETATM   33  O   UNL     1      -6.707  20.349  67.027  1.00  0.00    -0.224 OA 
BRANCH  31  34
HETATM   34  C   UNL     1      -6.058  20.646  69.320  1.00  0.00    -0.304 C  
BRANCH  34  35
HETATM   35  C   UNL     1      -5.425  19.994  70.550  1.00  0.00    -0.264 C  
HETATM   36  H1  UNL     1      -5.721  19.949  72.578  1.00  0.00     0.000 HD 
HETATM   37  H2  UNL     1      -7.140  20.179  71.690  1.00  0.00     0.000 HD 
HETATM   38  N   UNL     1      -6.143  20.384  71.757  1.00  0.00    -0.630 NA 
ENDBRANCH  34  35
ENDBRANCH  31  34
ENDBRANCH  29  31
ENDBRANCH  18  27
BRANCH  26  39
HETATM   39  O   UNL     1     -10.835  15.173  66.415  1.00  0.00    -0.319 OA 
BRANCH  39  40
HETATM   40  C   UNL     1     -10.695  14.147  65.428  1.00  0.00    -0.342 C  
HETATM   41  H1  UNL     1     -14.111  14.401  64.827  1.00  0.00     0.000 HD 
HETATM   42  O   UNL     1     -10.394  12.881  66.023  1.00  0.00    -0.271 OA 
HETATM   43  H2  UNL     1     -13.163  15.271  65.896  1.00  0.00     0.000 HD 
HETATM   44  N   UNL     1     -13.249  14.400  65.372  1.00  0.00    -0.490 NA 
HETATM   45  C   UNL     1     -12.018  14.148  64.591  1.00  0.00    -0.445 C  
HETATM   46  C   UNL     1     -10.397  11.827  65.123  1.00  0.00    -0.279 C  
HETATM   47  C   UNL     1     -12.134  12.908  63.693  1.00  0.00    -0.611 C  
HETATM   48  C   UNL     1     -11.179  11.814  64.034  1.00  0.00    -0.461 C  
BRANCH  46  49
HETATM   49  C   UNL     1      -9.491  10.670  65.479  1.00  0.00    -0.214 C  
BRANCH  49  50
HETATM   50  N   UNL     1      -8.737  10.883  66.718  1.00  0.00    -0.144 NA 
HETATM   51  H   UNL     1      -9.051  11.721  67.206  1.00  0.00     0.000 HD 
BRANCH  50  52
HETATM   52  C   UNL     1      -8.790   9.698  67.592  1.00  0.00    -0.125 C  
BRANCH  52  53
HETATM   53  C   UNL     1      -9.870   8.720  67.120  1.00  0.00    -0.207 C  
HETATM   54  O   UNL     1      -9.579   7.398  67.565  1.00  0.00    -0.134 OA 
HETATM   55  H   UNL     1     -10.249   6.791  67.272  1.00  0.00     0.000 HD 
ENDBRANCH  52  53
ENDBRANCH  50  52
ENDBRANCH  49  50
ENDBRANCH  46  49
ENDBRANCH  39  40
ENDBRANCH  26  39
ENDBRANCH  15  16
ENDBRANCH   6  15
ENDBRANCH   2   4
TORSDOF 13
ENDMDL
MODEL       15
REMARK 921   NORMALIZED FREE ENERGY PREDICTED BY IDOCK:   -5.10 KCAL/MOL
REMARK 922        TOTAL FREE ENERGY PREDICTED BY IDOCK:  -12.43 KCAL/MOL
REMARK 923 INTER-LIGAND FREE ENERGY PREDICTED BY IDOCK:  -10.34 KCAL/MOL
REMARK 924 INTRA-LIGAND FREE ENERGY PREDICTED BY IDOCK:   -2.09 KCAL/MOL
REMARK 927      BINDING AFFINITY PREDICTED BY RF-SCORE:    0.00 PKD
ROOT
HETATM    1  C   UNL     1      -8.799   3.976  71.105  1.00  0.00    -0.092 C  
HETATM    2  N   UNL     1      -9.563   3.576  69.927  1.00  0.00    -0.180 NA 
HETATM    3  H   UNL     1     -10.554   3.505  70.161  1.00  0.00     0.000 HD 
ENDROOT
BRANCH   2   4
HETATM    4  C   UNL     1      -9.385   4.438  68.720  1.00  0.00    -0.151 C  
HETATM    5  C   UNL     1     -10.665   5.236  68.366  1.00  0.00     0.100 C  
HETATM    6  C   UNL     1     -10.359   6.228  67.221  1.00  0.00    -0.216 C  
HETATM    7  O   UNL     1     -11.186   5.910  69.513  1.00  0.00    -0.389 OA 
HETATM    8  H   UNL     1     -11.971   6.399  69.296  1.00  0.00     0.000 HD 
HETATM    9  O   UNL     1      -9.638   2.701  66.987  1.00  0.00    -0.403 OA 
HETATM   10  O   UNL     1      -9.941   5.491  66.071  1.00  0.00    -0.126 OA 
HETATM   11  H   UNL     1      -9.280   2.298  66.206  1.00  0.00     0.000 HD 
HETATM   12  C   UNL     1      -8.695   4.807  66.288  1.00  0.00    -0.114 C  
HETATM   13  C   UNL     1      -7.400   3.182  67.677  1.00  0.00    -0.054 C  
HETATM   14  C   UNL     1      -8.793   3.773  67.431  1.00  0.00    -0.122 C  
BRANCH   6  15
HETATM   15  O   UNL     1      -9.363   7.172  67.622  1.00  0.00    -0.127 OA 
BRANCH  15  16
HETATM   16  C   UNL     1      -9.386   8.443  66.949  1.00  0.00    -0.174 C  
HETATM   17  H1  UNL     1      -7.831  12.156  68.869  1.00  0.00     0.000 HD 
HETATM   18  C   UNL     1     -10.475   9.412  67.462  1.00  0.00    -0.280 C  
HETATM   19  C   UNL     1      -7.976   9.069  67.132  1.00  0.00    -0.102 C  
HETATM   20  H2  UNL     1      -9.493  12.327  69.101  1.00  0.00     0.000 HD 
HETATM   21  C   UNL     1      -8.821  10.363  69.193  1.00  0.00    -0.172 C  
HETATM   22  C   UNL     1     -10.212   9.751  68.940  1.00  0.00    -0.213 C  
HETATM   23  O   UNL     1      -7.825  10.210  66.259  1.00  0.00    -0.106 OA 
HETATM   24  H   UNL     1      -6.963  10.593  66.371  1.00  0.00     0.000 HD 
HETATM   25  N   UNL     1      -8.752  11.751  68.702  1.00  0.00    -0.109 NA 
HETATM   26  C   UNL     1      -7.694   9.455  68.613  1.00  0.00    -0.084 C  
BRANCH  18  27
HETATM   27  N   UNL     1     -10.583  10.600  66.615  1.00  0.00    -0.236 N  
HETATM   28  H   UNL     1      -9.982  10.666  65.793  1.00  0.00     0.000 HD 
HETATM   29  C   UNL     1     -11.454  11.633  66.874  1.00  0.00    -0.247 C  
HETATM   30  O   UNL     1     -12.240  11.647  67.816  1.00  0.00    -0.560 OA 
BRANCH  29  31
HETATM   31  C   UNL     1     -11.392  12.782  65.855  1.00  0.00    -0.324 C  
HETATM   32  H   UNL     1     -10.110  13.472  64.522  1.00  0.00     0.000 HD 
HETATM   33  O   UNL     1     -10.149  12.761  65.152  1.00  0.00    -0.278 OA 
BRANCH  31  34
HETATM   34  C   UNL     1     -12.528  12.674  64.838  1.00  0.00    -0.564 C  
BRANCH  34  35
HETATM   35  C   UNL     1     -12.283  13.560  63.616  1.00  0.00    -0.375 C  
HETATM   36  H1  UNL     1     -12.371  15.549  63.128  1.00  0.00     0.000 HD 
HETATM   37  H2  UNL     1     -11.989  15.264  64.749  1.00  0.00     0.000 HD 
HETATM   38  N   UNL     1     -12.534  14.958  63.943  1.00  0.00    -0.769 NA 
ENDBRANCH  34  35
ENDBRANCH  31  34
ENDBRANCH  29  31
ENDBRANCH  18  27
BRANCH  26  39
HETATM   39  O   UNL     1      -7.617   8.345  69.505  1.00  0.00    -0.086 OA 
BRANCH  39  40
HETATM   40  C   UNL     1      -8.147   8.493  70.825  1.00  0.00    -0.120 C  
HETATM   41  H1  UNL     1      -5.011   7.652  72.071  1.00  0.00     0.000 HD 
HETATM   42  O   UNL     1      -9.090   7.462  71.133  1.00  0.00    -0.147 OA 
HETATM   43  H2  UNL     1      -5.505   7.805  70.480  1.00  0.00     0.000 HD 
HETATM   44  N   UNL     1      -5.809   7.626  71.437  1.00  0.00    -0.035 NA 
HETATM   45  C   UNL     1      -6.921   8.533  71.799  1.00  0.00    -0.093 C  
HETATM   46  C   UNL     1      -9.520   7.473  72.450  1.00  0.00    -0.157 C  
HETATM   47  C   UNL     1      -7.346   8.388  73.267  1.00  0.00    -0.111 C  
HETATM   48  C   UNL     1      -8.744   7.904  73.456  1.00  0.00    -0.321 C  
BRANCH  46  49
HETATM   49  C   UNL     1     -10.908   6.922  72.683  1.00  0.00    -0.257 C  
BRANCH  49  50
HETATM   50  N   UNL     1     -11.879   7.944  73.084  1.00  0.00    -0.620 NA 
HETATM   51  H   UNL     1     -11.539   8.492  73.874  1.00  0.00     0.000 HD 
BRANCH  50  52
HETATM   52  C   UNL     1     -12.253   8.807  71.950  1.00  0.00    -0.361 C  
BRANCH  52  53
HETATM   53  C   UNL     1     -13.772   8.976  71.871  1.00  0.00    -0.441 C  
HETATM   54  O   UNL     1     -14.368   8.764  73.148  1.00  0.00    -1.119 OA 
HETATM   55  H   UNL     1     -15.312   8.869  73.099  1.00  0.00     0.000 HD 
ENDBRANCH  52  53
ENDBRANCH  50  52
ENDBRANCH  49  50
ENDBRANCH  46  49
ENDBRANCH  39  40
ENDBRANCH  26  39
ENDBRANCH  15  16
ENDBRANCH   6  15
ENDBRANCH   2   4
TORSDOF 13
ENDMDL
MODEL       16
REMARK 921   NORMALIZED FREE ENERGY PREDICTED BY IDOCK:   -5.08 KCAL/MOL
REMARK 922        TOTAL FREE ENERGY PREDICTED BY IDOCK:  -12.40 KCAL/MOL
REMARK 923 INTER-LIGAND FREE ENERGY PREDICTED BY IDOCK:  -10.24 KCAL/MOL
REMARK 924 INTRA-LIGAND FREE ENERGY PREDICTED BY IDOCK:   -2.16 KCAL/MOL
REMARK 927      BINDING AFFINITY PREDICTED BY RF-SCORE:    0.00 PKD
ROOT
HETATM    1  C   UNL     1      -8.655   7.866  74.017  1.00  0.00    -0.264 C  
HETATM    2  N   UNL     1      -8.713   7.105  72.772  1.00  0.00    -0.117 NA 
HETATM    3  H   UNL     1      -8.807   6.110  72.975  1.00  0.00     0.000 HD 
ENDROOT
BRANCH   2   4
HETATM    4  C   UNL     1      -9.768   7.530  71.805  1.00  0.00    -0.160 C  
HETATM    5  C   UNL     1      -9.670   9.034  71.442  1.00  0.00    -0.299 C  
HETATM    6  C   UNL     1     -10.674   9.363  70.315  1.00  0.00    -0.253 C  
HETATM    7  O   UNL     1      -8.336   9.388  71.071  1.00  0.00    -0.294 OA 
HETATM    8  H   UNL     1      -8.275  10.310  70.849  1.00  0.00     0.000 HD 
HETATM    9  O   UNL     1     -11.653   7.736  73.382  1.00  0.00    -0.623 OA 
HETATM   10  O   UNL     1     -11.996   9.085  70.779  1.00  0.00    -0.264 OA 
HETATM   11  H   UNL     1     -12.553   7.507  73.581  1.00  0.00     0.000 HD 
HETATM   12  C   UNL     1     -12.199   7.685  71.034  1.00  0.00    -0.236 C  
HETATM   13  C   UNL     1     -11.446   5.638  72.254  1.00  0.00    -0.278 C  
HETATM   14  C   UNL     1     -11.252   7.154  72.132  1.00  0.00    -0.255 C  
BRANCH   6  15
HETATM   15  O   UNL     1     -10.372   8.618  69.133  1.00  0.00    -0.211 OA 
BRANCH  15  16
HETATM   16  C   UNL     1     -10.618   9.283  67.882  1.00  0.00    -0.231 C  
HETATM   17  H1  UNL     1      -7.293  10.621  65.228  1.00  0.00     0.000 HD 
HETATM   18  C   UNL     1     -10.341  10.803  67.908  1.00  0.00    -0.185 C  
HETATM   19  C   UNL     1      -9.719   8.587  66.823  1.00  0.00    -0.236 C  
HETATM   20  H2  UNL     1      -7.711  12.062  65.997  1.00  0.00     0.000 HD 
HETATM   21  C   UNL     1      -7.903  10.375  67.195  1.00  0.00    -0.110 C  
HETATM   22  C   UNL     1      -8.851  11.053  68.202  1.00  0.00    -0.141 C  
HETATM   23  O   UNL     1     -10.107   9.005  65.496  1.00  0.00    -0.369 OA 
HETATM   24  H   UNL     1      -9.557   8.579  64.848  1.00  0.00     0.000 HD 
HETATM   25  N   UNL     1      -7.921  11.069  65.894  1.00  0.00    -0.106 NA 
HETATM   26  C   UNL     1      -8.206   8.850  67.075  1.00  0.00    -0.106 C  
BRANCH  18  27
HETATM   27  N   UNL     1     -10.796  11.455  66.680  1.00  0.00    -0.280 N  
HETATM   28  H   UNL     1     -10.489  11.075  65.784  1.00  0.00     0.000 HD 
HETATM   29  C   UNL     1     -11.619  12.558  66.674  1.00  0.00    -0.380 C  
HETATM   30  O   UNL     1     -12.071  13.082  67.686  1.00  0.00    -0.325 OA 
BRANCH  29  31
HETATM   31  C   UNL     1     -11.964  13.080  65.270  1.00  0.00    -0.407 C  
HETATM   32  H   UNL     1     -13.276  14.313  64.461  1.00  0.00     0.000 HD 
HETATM   33  O   UNL     1     -13.063  13.991  65.329  1.00  0.00    -0.782 OA 
BRANCH  31  34
HETATM   34  C   UNL     1     -10.769  13.799  64.643  1.00  0.00    -0.427 C  
BRANCH  34  35
HETATM   35  C   UNL     1     -10.913  15.319  64.725  1.00  0.00    -0.386 C  
HETATM   36  H1  UNL     1     -10.388  16.837  65.999  1.00  0.00     0.000 HD 
HETATM   37  H2  UNL     1      -9.319  15.529  66.024  1.00  0.00     0.000 HD 
HETATM   38  N   UNL     1     -10.292  15.823  65.944  1.00  0.00    -0.332 NA 
ENDBRANCH  34  35
ENDBRANCH  31  34
ENDBRANCH  29  31
ENDBRANCH  18  27
BRANCH  26  39
HETATM   39  O   UNL     1      -7.703   8.276  68.279  1.00  0.00    -0.102 OA 
BRANCH  39  40
HETATM   40  C   UNL     1      -7.819   6.862  68.461  1.00  0.00    -0.118 C  
HETATM   41  H1  UNL     1      -5.048   7.005  70.557  1.00  0.00     0.000 HD 
HETATM   42  O   UNL     1      -7.492   6.149  67.264  1.00  0.00    -0.079 OA 
HETATM   43  H2  UNL     1      -5.826   8.250  69.755  1.00  0.00     0.000 HD 
HETATM   44  N   UNL     1      -5.640   7.247  69.763  1.00  0.00    -0.023 NA 
HETATM   45  C   UNL     1      -6.909   6.490  69.680  1.00  0.00    -0.065 C  
HETATM   46  C   UNL     1      -7.444   4.774  67.429  1.00  0.00    -0.082 C  
HETATM   47  C   UNL     1      -6.701   4.974  69.803  1.00  0.00    -0.047 C  
HETATM   48  C   UNL     1      -7.093   4.201  68.590  1.00  0.00    -0.055 C  
BRANCH  46  49
HETATM   49  C   UNL     1      -7.768   3.962  66.195  1.00  0.00    -0.089 C  
BRANCH  49  50
HETATM   50  N   UNL     1      -9.116   4.210  65.675  1.00  0.00    -0.129 NA 
HETATM   51  H   UNL     1      -9.385   5.187  65.787  1.00  0.00     0.000 HD 
BRANCH  50  52
HETATM   52  C   UNL     1      -9.241   3.773  64.273  1.00  0.00    -0.141 C  
BRANCH  52  53
HETATM   53  C   UNL     1     -10.711   3.705  63.852  1.00  0.00    -0.255 C  
HETATM   54  O   UNL     1     -11.537   4.375  64.801  1.00  0.00    -1.000 OA 
HETATM   55  H   UNL     1     -12.450   4.332  64.541  1.00  0.00     0.000 HD 
ENDBRANCH  52  53
ENDBRANCH  50  52
ENDBRANCH  49  50
ENDBRANCH  46  49
ENDBRANCH  39  40
ENDBRANCH  26  39
ENDBRANCH  15  16
ENDBRANCH   6  15
ENDBRANCH   2   4
TORSDOF 13
ENDMDL
MODEL       17
REMARK 921   NORMALIZED FREE ENERGY PREDICTED BY IDOCK:   -5.08 KCAL/MOL
REMARK 922        TOTAL FREE ENERGY PREDICTED BY IDOCK:  -12.39 KCAL/MOL
REMARK 923 INTER-LIGAND FREE ENERGY PREDICTED BY IDOCK:   -9.02 KCAL/MOL
REMARK 924 INTRA-LIGAND FREE ENERGY PREDICTED BY IDOCK:   -3.37 KCAL/MOL
REMARK 927      BINDING AFFINITY PREDICTED BY RF-SCORE:    0.00 PKD
ROOT
HETATM    1  C   UNL     1     -11.010   6.179  73.124  1.00  0.00    -0.231 C  
HETATM    2  N   UNL     1     -11.426   6.194  71.725  1.00  0.00    -0.293 NA 
HETATM    3  H   UNL     1     -12.228   5.578  71.592  1.00  0.00     0.000 HD 
ENDROOT
BRANCH   2   4
HETATM    4  C   UNL     1     -11.718   7.542  71.153  1.00  0.00    -0.291 C  
HETATM    5  C   UNL     1     -10.500   8.497  71.232  1.00  0.00    -0.225 C  
HETATM    6  C   UNL     1     -10.815   9.806  70.474  1.00  0.00    -0.323 C  
HETATM    7  O   UNL     1      -9.320   7.871  70.723  1.00  0.00    -0.156 OA 
HETATM    8  H   UNL     1      -8.573   8.456  70.772  1.00  0.00     0.000 HD 
HETATM    9  O   UNL     1     -12.955   8.492  73.064  1.00  0.00    -0.719 OA 
HETATM   10  O   UNL     1     -11.938  10.437  71.089  1.00  0.00    -0.352 OA 
HETATM   11  H   UNL     1     -13.738   8.938  73.362  1.00  0.00     0.000 HD 
HETATM   12  C   UNL     1     -13.139   9.656  70.960  1.00  0.00    -0.241 C  
HETATM   13  C   UNL     1     -14.278   7.468  71.355  1.00  0.00    -0.523 C  
HETATM   14  C   UNL     1     -13.009   8.278  71.645  1.00  0.00    -0.337 C  
BRANCH   6  15
HETATM   15  O   UNL     1     -11.062   9.542  69.090  1.00  0.00    -0.171 OA 
BRANCH  15  16
HETATM   16  C   UNL     1     -10.806  10.627  68.182  1.00  0.00    -0.245 C  
HETATM   17  H1  UNL     1      -7.194  10.709  65.567  1.00  0.00     0.000 HD 
HETATM   18  C   UNL     1      -9.692  11.592  68.646  1.00  0.00    -0.143 C  
HETATM   19  C   UNL     1     -10.431   9.985  66.817  1.00  0.00    -0.198 C  
HETATM   20  H2  UNL     1      -6.727  11.739  66.818  1.00  0.00     0.000 HD 
HETATM   21  C   UNL     1      -7.934  10.159  67.424  1.00  0.00    -0.110 C  
HETATM   22  C   UNL     1      -8.357  10.834  68.743  1.00  0.00    -0.147 C  
HETATM   23  O   UNL     1     -10.430  10.992  65.782  1.00  0.00    -0.249 OA 
HETATM   24  H   UNL     1     -10.200  10.600  64.947  1.00  0.00     0.000 HD 
HETATM   25  N   UNL     1      -7.473  11.155  66.440  1.00  0.00    -0.132 NA 
HETATM   26  C   UNL     1      -9.067   9.239  66.876  1.00  0.00    -0.131 C  
BRANCH  18  27
HETATM   27  N   UNL     1      -9.614  12.777  67.790  1.00  0.00    -0.198 N  
HETATM   28  H   UNL     1      -8.869  12.825  67.094  1.00  0.00     0.000 HD 
HETATM   29  C   UNL     1     -10.496  13.829  67.879  1.00  0.00    -0.246 C  
HETATM   30  O   UNL     1     -11.443  13.866  68.657  1.00  0.00    -0.258 OA 
BRANCH  29  31
HETATM   31  C   UNL     1     -10.220  14.969  66.885  1.00  0.00    -0.258 C  
HETATM   32  H   UNL     1      -8.812  15.457  65.590  1.00  0.00     0.000 HD 
HETATM   33  O   UNL     1      -8.983  14.752  66.204  1.00  0.00    -0.205 OA 
BRANCH  31  34
HETATM   34  C   UNL     1     -11.336  15.074  65.847  1.00  0.00    -0.273 C  
BRANCH  34  35
HETATM   35  C   UNL     1     -11.094  14.145  64.656  1.00  0.00    -0.371 C  
HETATM   36  H1  UNL     1     -11.958  12.490  63.809  1.00  0.00     0.000 HD 
HETATM   37  H2  UNL     1     -13.059  13.506  64.590  1.00  0.00     0.000 HD 
HETATM   38  N   UNL     1     -12.120  13.110  64.603  1.00  0.00    -0.386 NA 
ENDBRANCH  34  35
ENDBRANCH  31  34
ENDBRANCH  29  31
ENDBRANCH  18  27
BRANCH  26  39
HETATM   39  O   UNL     1      -9.059   8.094  67.726  1.00  0.00    -0.135 OA 
BRANCH  39  40
HETATM   40  C   UNL     1      -8.769   6.818  67.149  1.00  0.00    -0.119 C  
HETATM   41  H1  UNL     1     -12.157   6.063  67.366  1.00  0.00     0.000 HD 
HETATM   42  O   UNL     1      -8.023   5.991  68.047  1.00  0.00    -0.107 OA 
HETATM   43  H2  UNL     1     -11.362   7.470  67.800  1.00  0.00     0.000 HD 
HETATM   44  N   UNL     1     -11.263   6.466  67.646  1.00  0.00    -0.280 NA 
HETATM   45  C   UNL     1     -10.141   6.199  66.719  1.00  0.00    -0.182 C  
HETATM   46  C   UNL     1      -7.846   4.693  67.594  1.00  0.00    -0.089 C  
HETATM   47  C   UNL     1     -10.016   4.711  66.359  1.00  0.00    -0.267 C  
HETATM   48  C   UNL     1      -8.741   4.078  66.806  1.00  0.00    -0.116 C  
BRANCH  46  49
HETATM   49  C   UNL     1      -6.597   3.999  68.088  1.00  0.00    -0.042 C  
BRANCH  49  50
HETATM   50  N   UNL     1      -6.326   4.235  69.509  1.00  0.00    -0.028 NA 
HETATM   51  H   UNL     1      -6.377   5.227  69.739  1.00  0.00     0.000 HD 
BRANCH  50  52
HETATM   52  C   UNL     1      -7.218   3.436  70.368  1.00  0.00    -0.041 C  
BRANCH  52  53
HETATM   53  C   UNL     1      -8.020   4.338  71.309  1.00  0.00    -0.077 C  
HETATM   54  O   UNL     1      -9.043   5.028  70.595  1.00  0.00    -0.126 OA 
HETATM   55  H   UNL     1      -9.540   5.588  71.179  1.00  0.00     0.000 HD 
ENDBRANCH  52  53
ENDBRANCH  50  52
ENDBRANCH  49  50
ENDBRANCH  46  49
ENDBRANCH  39  40
ENDBRANCH  26  39
ENDBRANCH  15  16
ENDBRANCH   6  15
ENDBRANCH   2   4
TORSDOF 13
ENDMDL
MODEL       18
REMARK 921   NORMALIZED FREE ENERGY PREDICTED BY IDOCK:   -5.06 KCAL/MOL
REMARK 922        TOTAL FREE ENERGY PREDICTED BY IDOCK:  -12.36 KCAL/MOL
REMARK 923 INTER-LIGAND FREE ENERGY PREDICTED BY IDOCK:  -11.53 KCAL/MOL
REMARK 924 INTRA-LIGAND FREE ENERGY PREDICTED BY IDOCK:   -0.84 KCAL/MOL
REMARK 927      BINDING AFFINITY PREDICTED BY RF-SCORE:    0.00 PKD
ROOT
HETATM    1  C   UNL     1     -11.603   8.216  72.441  1.00  0.00    -0.399 C  
HETATM    2  N   UNL     1     -10.535   9.124  72.035  1.00  0.00    -0.244 NA 
HETATM    3  H   UNL     1      -9.626   8.701  72.223  1.00  0.00     0.000 HD 
ENDROOT
BRANCH   2   4
HETATM    4  C   UNL     1     -10.595   9.597  70.619  1.00  0.00    -0.319 C  
HETATM    5  C   UNL     1     -11.856  10.450  70.331  1.00  0.00    -0.328 C  
HETATM    6  C   UNL     1     -11.767  11.045  68.908  1.00  0.00    -0.330 C  
HETATM    7  O   UNL     1     -12.022  11.474  71.315  1.00  0.00    -0.188 OA 
HETATM    8  H   UNL     1     -12.795  11.997  71.138  1.00  0.00     0.000 HD 
HETATM    9  O   UNL     1     -11.406   7.518  69.570  1.00  0.00    -0.457 OA 
HETATM   10  O   UNL     1     -11.706   9.976  67.963  1.00  0.00    -0.086 OA 
HETATM   11  H   UNL     1     -11.285   6.873  68.884  1.00  0.00     0.000 HD 
HETATM   12  C   UNL     1     -10.503   9.200  68.098  1.00  0.00    -0.211 C  
HETATM   13  C   UNL     1      -9.036   7.834  69.589  1.00  0.00    -0.143 C  
HETATM   14  C   UNL     1     -10.395   8.535  69.487  1.00  0.00    -0.218 C  
BRANCH   6  15
HETATM   15  O   UNL     1     -10.632  11.907  68.789  1.00  0.00    -0.216 OA 
BRANCH  15  16
HETATM   16  C   UNL     1     -10.912  13.308  68.635  1.00  0.00    -0.264 C  
HETATM   17  H1  UNL     1     -10.650  15.343  64.675  1.00  0.00     0.000 HD 
HETATM   18  C   UNL     1      -9.657  14.188  68.440  1.00  0.00    -0.225 C  
HETATM   19  C   UNL     1     -11.859  13.441  67.410  1.00  0.00    -0.375 C  
HETATM   20  H2  UNL     1      -9.183  15.786  65.379  1.00  0.00     0.000 HD 
HETATM   21  C   UNL     1      -9.828  13.877  65.889  1.00  0.00    -0.267 C  
HETATM   22  C   UNL     1      -8.937  13.783  67.142  1.00  0.00    -0.241 C  
HETATM   23  O   UNL     1     -12.410  14.775  67.354  1.00  0.00    -0.517 OA 
HETATM   24  H   UNL     1     -12.990  14.856  66.605  1.00  0.00     0.000 HD 
HETATM   25  N   UNL     1     -10.061  15.281  65.504  1.00  0.00    -0.364 NA 
HETATM   26  C   UNL     1     -11.148  13.070  66.077  1.00  0.00    -0.278 C  
BRANCH  18  27
HETATM   27  N   UNL     1      -9.984  15.614  68.490  1.00  0.00    -0.208 N  
HETATM   28  H   UNL     1     -10.938  15.901  68.270  1.00  0.00     0.000 HD 
HETATM   29  C   UNL     1      -9.066  16.586  68.818  1.00  0.00    -0.256 C  
HETATM   30  O   UNL     1      -7.902  16.353  69.126  1.00  0.00    -0.238 OA 
BRANCH  29  31
HETATM   31  C   UNL     1      -9.629  18.016  68.800  1.00  0.00    -0.301 C  
HETATM   32  H   UNL     1      -8.926  19.850  68.609  1.00  0.00     0.000 HD 
HETATM   33  O   UNL     1      -8.578  18.966  68.620  1.00  0.00    -0.342 OA 
BRANCH  31  34
HETATM   34  C   UNL     1     -10.644  18.191  67.671  1.00  0.00    -0.424 C  
BRANCH  34  35
HETATM   35  C   UNL     1     -10.257  19.333  66.730  1.00  0.00    -0.409 C  
HETATM   36  H1  UNL     1     -10.543  19.862  64.771  1.00  0.00     0.000 HD 
HETATM   37  H2  UNL     1     -11.810  18.953  65.420  1.00  0.00     0.000 HD 
HETATM   38  N   UNL     1     -10.802  19.101  65.398  1.00  0.00    -0.479 NA 
ENDBRANCH  34  35
ENDBRANCH  31  34
ENDBRANCH  29  31
ENDBRANCH  18  27
BRANCH  26  39
HETATM   39  O   UNL     1     -10.763  11.701  65.977  1.00  0.00    -0.264 OA 
BRANCH  39  40
HETATM   40  C   UNL     1      -9.773  11.340  65.010  1.00  0.00    -0.251 C  
HETATM   41  H1  UNL     1     -12.153  11.856  62.527  1.00  0.00     0.000 HD 
HETATM   42  O   UNL     1      -9.440   9.950  65.090  1.00  0.00    -0.236 OA 
HETATM   43  H2  UNL     1     -12.301  12.046  64.183  1.00  0.00     0.000 HD 
HETATM   44  N   UNL     1     -11.789  11.574  63.437  1.00  0.00    -0.230 NA 
HETATM   45  C   UNL     1     -10.332  11.771  63.613  1.00  0.00    -0.434 C  
HETATM   46  C   UNL     1      -8.597   9.519  64.078  1.00  0.00    -0.207 C  
HETATM   47  C   UNL     1      -9.515  11.180  62.456  1.00  0.00    -0.233 C  
HETATM   48  C   UNL     1      -8.600  10.072  62.856  1.00  0.00    -0.194 C  
BRANCH  46  49
HETATM   49  C   UNL     1      -7.707   8.349  64.431  1.00  0.00    -0.133 C  
BRANCH  49  50
HETATM   50  N   UNL     1      -8.448   7.108  64.674  1.00  0.00    -0.345 NA 
HETATM   51  H   UNL     1      -8.095   6.344  64.099  1.00  0.00     0.000 HD 
BRANCH  50  52
HETATM   52  C   UNL     1      -8.450   6.751  66.103  1.00  0.00    -0.135 C  
BRANCH  52  53
HETATM   53  C   UNL     1      -9.684   5.918  66.456  1.00  0.00    -0.155 C  
HETATM   54  O   UNL     1     -10.073   5.104  65.353  1.00  0.00    -0.384 OA 
HETATM   55  H   UNL     1     -10.839   4.587  65.572  1.00  0.00     0.000 HD 
ENDBRANCH  52  53
ENDBRANCH  50  52
ENDBRANCH  49  50
ENDBRANCH  46  49
ENDBRANCH  39  40
ENDBRANCH  26  39
ENDBRANCH  15  16
ENDBRANCH   6  15
ENDBRANCH   2   4
TORSDOF 13
ENDMDL
MODEL       19
REMARK 921   NORMALIZED FREE ENERGY PREDICTED BY IDOCK:   -5.01 KCAL/MOL
REMARK 922        TOTAL FREE ENERGY PREDICTED BY IDOCK:  -12.27 KCAL/MOL
REMARK 923 INTER-LIGAND FREE ENERGY PREDICTED BY IDOCK:  -10.72 KCAL/MOL
REMARK 924 INTRA-LIGAND FREE ENERGY PREDICTED BY IDOCK:   -1.55 KCAL/MOL
REMARK 927      BINDING AFFINITY PREDICTED BY RF-SCORE:    0.00 PKD
ROOT
HETATM    1  C   UNL     1     -11.385   5.390  72.172  1.00  0.00    -0.080 C  
HETATM    2  N   UNL     1     -11.546   6.678  72.840  1.00  0.00    -0.492 NA 
HETATM    3  H   UNL     1     -10.714   6.893  73.390  1.00  0.00     0.000 HD 
ENDROOT
BRANCH   2   4
HETATM    4  C   UNL     1     -11.879   7.830  71.949  1.00  0.00    -0.297 C  
HETATM    5  C   UNL     1     -10.843   8.977  72.049  1.00  0.00    -0.271 C  
HETATM    6  C   UNL     1     -11.152  10.052  70.983  1.00  0.00    -0.271 C  
HETATM    7  O   UNL     1      -9.509   8.480  71.916  1.00  0.00    -0.227 OA 
HETATM    8  H   UNL     1      -8.874   9.184  71.978  1.00  0.00     0.000 HD 
HETATM    9  O   UNL     1     -13.616   8.886  73.346  1.00  0.00    -0.970 OA 
HETATM   10  O   UNL     1     -12.455  10.583  71.228  1.00  0.00    -0.354 OA 
HETATM   11  H   UNL     1     -14.497   9.238  73.390  1.00  0.00     0.000 HD 
HETATM   12  C   UNL     1     -13.487   9.598  71.046  1.00  0.00    -0.163 C  
HETATM   13  C   UNL     1     -14.390   7.356  71.679  1.00  0.00    -0.614 C  
HETATM   14  C   UNL     1     -13.331   8.410  72.021  1.00  0.00    -0.343 C  
BRANCH   6  15
HETATM   15  O   UNL     1     -11.056   9.502  69.667  1.00  0.00    -0.234 OA 
BRANCH  15  16
HETATM   16  C   UNL     1      -9.755   9.037  69.267  1.00  0.00    -0.168 C  
HETATM   17  H1  UNL     1      -8.320   9.380  65.058  1.00  0.00     0.000 HD 
HETATM   18  C   UNL     1      -9.773   7.715  68.466  1.00  0.00    -0.158 C  
HETATM   19  C   UNL     1      -9.118  10.173  68.420  1.00  0.00    -0.133 C  
HETATM   20  H2  UNL     1      -8.801   7.765  65.119  1.00  0.00     0.000 HD 
HETATM   21  C   UNL     1      -9.970   9.043  66.268  1.00  0.00    -0.281 C  
HETATM   22  C   UNL     1     -10.543   7.917  67.150  1.00  0.00    -0.383 C  
HETATM   23  O   UNL     1      -7.713   9.906  68.213  1.00  0.00    -0.084 OA 
HETATM   24  H   UNL     1      -7.323  10.600  67.695  1.00  0.00     0.000 HD 
HETATM   25  N   UNL     1      -8.699   8.635  65.641  1.00  0.00    -0.173 NA 
HETATM   26  C   UNL     1      -9.855  10.378  67.065  1.00  0.00    -0.191 C  
BRANCH  18  27
HETATM   27  N   UNL     1      -8.423   7.190  68.262  1.00  0.00    -0.124 N  
HETATM   28  H   UNL     1      -7.984   7.318  67.350  1.00  0.00     0.000 HD 
HETATM   29  C   UNL     1      -7.716   6.530  69.241  1.00  0.00    -0.101 C  
HETATM   30  O   UNL     1      -8.132   6.344  70.380  1.00  0.00    -0.113 OA 
BRANCH  29  31
HETATM   31  C   UNL     1      -6.319   6.060  68.803  1.00  0.00    -0.041 C  
HETATM   32  H   UNL     1      -5.175   4.473  69.059  1.00  0.00     0.000 HD 
HETATM   33  O   UNL     1      -6.038   4.763  69.331  1.00  0.00    -0.023 OA 
BRANCH  31  34
HETATM   34  C   UNL     1      -6.216   5.999  67.279  1.00  0.00    -0.033 C  
BRANCH  34  35
HETATM   35  C   UNL     1      -6.750   4.677  66.725  1.00  0.00    -0.051 C  
HETATM   36  H1  UNL     1      -8.381   4.006  65.681  1.00  0.00     0.000 HD 
HETATM   37  H2  UNL     1      -7.958   5.603  65.326  1.00  0.00     0.000 HD 
HETATM   38  N   UNL     1      -8.025   4.887  66.050  1.00  0.00    -0.106 NA 
ENDBRANCH  34  35
ENDBRANCH  31  34
ENDBRANCH  29  31
ENDBRANCH  18  27
BRANCH  26  39
HETATM   39  O   UNL     1     -11.194  10.851  67.191  1.00  0.00    -0.316 OA 
BRANCH  39  40
HETATM   40  C   UNL     1     -11.439  12.253  67.046  1.00  0.00    -0.354 C  
HETATM   41  H1  UNL     1     -11.507  11.785  63.601  1.00  0.00     0.000 HD 
HETATM   42  O   UNL     1     -10.293  13.028  67.414  1.00  0.00    -0.232 OA 
HETATM   43  H2  UNL     1     -11.288  10.652  64.813  1.00  0.00     0.000 HD 
HETATM   44  N   UNL     1     -11.206  11.638  64.565  1.00  0.00    -0.299 NA 
HETATM   45  C   UNL     1     -11.899  12.478  65.567  1.00  0.00    -0.439 C  
HETATM   46  C   UNL     1     -10.427  14.382  67.150  1.00  0.00    -0.263 C  
HETATM   47  C   UNL     1     -11.908  13.965  65.185  1.00  0.00    -0.370 C  
HETATM   48  C   UNL     1     -11.173  14.847  66.136  1.00  0.00    -0.325 C  
BRANCH  46  49
HETATM   49  C   UNL     1      -9.635  15.299  68.054  1.00  0.00    -0.203 C  
BRANCH  49  50
HETATM   50  N   UNL     1     -10.384  16.485  68.478  1.00  0.00    -0.271 NA 
HETATM   51  H   UNL     1     -10.586  16.462  69.477  1.00  0.00     0.000 HD 
BRANCH  50  52
HETATM   52  C   UNL     1      -9.688  17.727  68.097  1.00  0.00    -0.313 C  
BRANCH  52  53
HETATM   53  C   UNL     1     -10.244  18.283  66.784  1.00  0.00    -0.378 C  
HETATM   54  O   UNL     1      -9.192  18.787  65.966  1.00  0.00    -0.476 OA 
HETATM   55  H   UNL     1      -9.537  19.133  65.151  1.00  0.00     0.000 HD 
ENDBRANCH  52  53
ENDBRANCH  50  52
ENDBRANCH  49  50
ENDBRANCH  46  49
ENDBRANCH  39  40
ENDBRANCH  26  39
ENDBRANCH  15  16
ENDBRANCH   6  15
ENDBRANCH   2   4
TORSDOF 13
ENDMDL
MODEL       20
REMARK 921   NORMALIZED FREE ENERGY PREDICTED BY IDOCK:   -4.97 KCAL/MOL
REMARK 922        TOTAL FREE ENERGY PREDICTED BY IDOCK:  -12.21 KCAL/MOL
REMARK 923 INTER-LIGAND FREE ENERGY PREDICTED BY IDOCK:   -9.55 KCAL/MOL
REMARK 924 INTRA-LIGAND FREE ENERGY PREDICTED BY IDOCK:   -2.66 KCAL/MOL
REMARK 927      BINDING AFFINITY PREDICTED BY RF-SCORE:    0.00 PKD
ROOT
HETATM    1  C   UNL     1      -5.243  14.660  69.970  1.00  0.00    -0.095 C  
HETATM    2  N   UNL     1      -6.688  14.456  70.027  1.00  0.00    -0.321 NA 
HETATM    3  H   UNL     1      -7.172  15.320  69.781  1.00  0.00     0.000 HD 
ENDROOT
BRANCH   2   4
HETATM    4  C   UNL     1      -7.213  13.325  69.205  1.00  0.00     0.059 C  
HETATM    5  C   UNL     1      -6.441  12.004  69.451  1.00  0.00    -0.115 C  
HETATM    6  C   UNL     1      -7.141  10.846  68.706  1.00  0.00    -0.083 C  
HETATM    7  O   UNL     1      -6.324  11.728  70.849  1.00  0.00    -0.476 OA 
HETATM    8  H   UNL     1      -5.851  10.918  71.000  1.00  0.00     0.000 HD 
HETATM    9  O   UNL     1      -6.133  13.895  67.062  1.00  0.00    -0.286 OA 
HETATM   10  O   UNL     1      -7.137  11.129  67.306  1.00  0.00    -0.095 OA 
HETATM   11  H   UNL     1      -6.242  14.040  66.130  1.00  0.00     0.000 HD 
HETATM   12  C   UNL     1      -7.927  12.286  66.983  1.00  0.00    -0.123 C  
HETATM   13  C   UNL     1      -8.357  14.717  67.374  1.00  0.00    -0.223 C  
HETATM   14  C   UNL     1      -7.392  13.563  67.668  1.00  0.00    -0.174 C  
BRANCH   6  15
HETATM   15  O   UNL     1      -8.472  10.661  69.193  1.00  0.00    -0.153 OA 
BRANCH  15  16
HETATM   16  C   UNL     1      -9.028   9.344  69.035  1.00  0.00    -0.141 C  
HETATM   17  H1  UNL     1     -13.206   8.386  70.268  1.00  0.00     0.000 HD 
HETATM   18  C   UNL     1      -9.148   8.545  70.353  1.00  0.00    -0.152 C  
HETATM   19  C   UNL     1     -10.428   9.527  68.385  1.00  0.00    -0.224 C  
HETATM   20  H2  UNL     1     -12.323   7.780  71.571  1.00  0.00     0.000 HD 
HETATM   21  C   UNL     1     -11.514   9.495  70.720  1.00  0.00    -0.310 C  
HETATM   22  C   UNL     1     -10.109   9.268  71.312  1.00  0.00    -0.361 C  
HETATM   23  O   UNL     1     -10.935   8.250  67.939  1.00  0.00    -0.480 OA 
HETATM   24  H   UNL     1     -11.791   8.362  67.541  1.00  0.00     0.000 HD 
HETATM   25  N   UNL     1     -12.277   8.235  70.659  1.00  0.00     0.007 NA 
HETATM   26  C   UNL     1     -11.433  10.226  69.346  1.00  0.00    -0.186 C  
BRANCH  18  27
HETATM   27  N   UNL     1      -9.528   7.153  70.106  1.00  0.00    -0.162 N  
HETATM   28  H   UNL     1     -10.393   6.968  69.599  1.00  0.00     0.000 HD 
HETATM   29  C   UNL     1      -8.774   6.081  70.527  1.00  0.00    -0.138 C  
HETATM   30  O   UNL     1      -7.705   6.185  71.119  1.00  0.00    -0.101 OA 
BRANCH  29  31
HETATM   31  C   UNL     1      -9.369   4.711  70.164  1.00  0.00    -0.144 C  
HETATM   32  H   UNL     1     -10.415   3.299  71.062  1.00  0.00     0.000 HD 
HETATM   33  O   UNL     1     -10.047   4.146  71.286  1.00  0.00    -0.169 OA 
BRANCH  31  34
HETATM   34  C   UNL     1     -10.360   4.833  69.006  1.00  0.00     0.002 C  
BRANCH  34  35
HETATM   35  C   UNL     1      -9.686   4.600  67.654  1.00  0.00    -0.161 C  
HETATM   36  H1  UNL     1      -8.643   5.681  66.260  1.00  0.00     0.000 HD 
HETATM   37  H2  UNL     1      -8.450   6.246  67.840  1.00  0.00     0.000 HD 
HETATM   38  N   UNL     1      -9.092   5.837  67.162  1.00  0.00    -0.112 NA 
ENDBRANCH  34  35
ENDBRANCH  31  34
ENDBRANCH  29  31
ENDBRANCH  18  27
BRANCH  26  39
HETATM   39  O   UNL     1     -11.101  11.576  69.662  1.00  0.00    -0.226 OA 
BRANCH  39  40
HETATM   40  C   UNL     1     -11.154  12.554  68.619  1.00  0.00    -0.265 C  
HETATM   41  H1  UNL     1     -12.896  14.634  70.794  1.00  0.00     0.000 HD 
HETATM   42  O   UNL     1     -12.008  12.137  67.549  1.00  0.00    -0.544 OA 
HETATM   43  H2  UNL     1     -12.280  13.103  71.069  1.00  0.00     0.000 HD 
HETATM   44  N   UNL     1     -12.608  13.758  70.359  1.00  0.00    -0.292 NA 
HETATM   45  C   UNL     1     -11.597  13.898  69.287  1.00  0.00    -0.309 C  
HETATM   46  C   UNL     1     -12.211  13.111  66.585  1.00  0.00    -0.267 C  
HETATM   47  C   UNL     1     -11.985  14.959  68.247  1.00  0.00    -0.245 C  
HETATM   48  C   UNL     1     -12.196  14.421  66.872  1.00  0.00    -0.300 C  
BRANCH  46  49
HETATM   49  C   UNL     1     -12.499  12.594  65.193  1.00  0.00    -0.463 C  
BRANCH  49  50
HETATM   50  N   UNL     1     -11.596  13.137  64.175  1.00  0.00    -0.388 NA 
HETATM   51  H   UNL     1     -10.801  13.616  64.598  1.00  0.00     0.000 HD 
BRANCH  50  52
HETATM   52  C   UNL     1     -11.157  12.093  63.232  1.00  0.00    -0.332 C  
BRANCH  52  53
HETATM   53  C   UNL     1      -9.834  11.470  63.686  1.00  0.00    -0.353 C  
HETATM   54  O   UNL     1      -8.801  11.741  62.742  1.00  0.00    -0.647 OA 
HETATM   55  H   UNL     1      -7.980  11.354  63.024  1.00  0.00     0.000 HD 
ENDBRANCH  52  53
ENDBRANCH  50  52
ENDBRANCH  49  50
ENDBRANCH  46  49
ENDBRANCH  39  40
ENDBRANCH  26  39
ENDBRANCH  15  16
ENDBRANCH   6  15
ENDBRANCH   2   4
TORSDOF 13
ENDMDL
MODEL       21
REMARK 921   NORMALIZED FREE ENERGY PREDICTED BY IDOCK:   -4.95 KCAL/MOL
REMARK 922        TOTAL FREE ENERGY PREDICTED BY IDOCK:  -12.18 KCAL/MOL
REMARK 923 INTER-LIGAND FREE ENERGY PREDICTED BY IDOCK:   -9.96 KCAL/MOL
REMARK 924 INTRA-LIGAND FREE ENERGY PREDICTED BY IDOCK:   -2.22 KCAL/MOL
REMARK 927      BINDING AFFINITY PREDICTED BY RF-SCORE:    0.00 PKD
ROOT
HETATM    1  C   UNL     1     -12.926   9.202  72.373  1.00  0.00    -0.398 C  
HETATM    2  N   UNL     1     -12.572   7.812  72.640  1.00  0.00    -0.541 NA 
HETATM    3  H   UNL     1     -13.355   7.201  72.405  1.00  0.00     0.000 HD 
ENDROOT
BRANCH   2   4
HETATM    4  C   UNL     1     -11.327   7.324  71.973  1.00  0.00    -0.260 C  
HETATM    5  C   UNL     1     -11.623   6.395  70.769  1.00  0.00    -0.338 C  
HETATM    6  C   UNL     1     -10.307   6.070  70.027  1.00  0.00    -0.229 C  
HETATM    7  O   UNL     1     -12.586   6.982  69.890  1.00  0.00    -0.219 OA 
HETATM    8  H   UNL     1     -12.767   6.412  69.152  1.00  0.00     0.000 HD 
HETATM    9  O   UNL     1     -10.727   5.544  73.571  1.00  0.00    -0.248 OA 
HETATM   10  O   UNL     1      -9.425   5.396  70.925  1.00  0.00    -0.158 OA 
HETATM   11  H   UNL     1     -10.053   5.161  74.120  1.00  0.00     0.000 HD 
HETATM   12  C   UNL     1      -9.017   6.236  72.019  1.00  0.00    -0.142 C  
HETATM   13  C   UNL     1      -9.710   7.677  73.938  1.00  0.00    -0.136 C  
HETATM   14  C   UNL     1     -10.216   6.693  72.877  1.00  0.00    -0.195 C  
BRANCH   6  15
HETATM   15  O   UNL     1      -9.709   7.262  69.511  1.00  0.00    -0.158 OA 
BRANCH  15  16
HETATM   16  C   UNL     1      -8.944   7.116  68.302  1.00  0.00    -0.125 C  
HETATM   17  H1  UNL     1      -8.869  10.282  65.162  1.00  0.00     0.000 HD 
HETATM   18  C   UNL     1      -9.793   6.805  67.049  1.00  0.00    -0.167 C  
HETATM   19  C   UNL     1      -8.160   8.443  68.109  1.00  0.00    -0.120 C  
HETATM   20  H2  UNL     1      -9.975   9.188  64.511  1.00  0.00     0.000 HD 
HETATM   21  C   UNL     1     -10.038   9.327  66.584  1.00  0.00    -0.271 C  
HETATM   22  C   UNL     1     -10.753   7.975  66.770  1.00  0.00    -0.077 C  
HETATM   23  O   UNL     1      -7.160   8.280  67.079  1.00  0.00    -0.076 OA 
HETATM   24  H   UNL     1      -6.681   9.092  66.960  1.00  0.00     0.000 HD 
HETATM   25  N   UNL     1      -9.342   9.387  65.285  1.00  0.00    -0.250 NA 
HETATM   26  C   UNL     1      -9.103   9.640  67.791  1.00  0.00    -0.124 C  
BRANCH  18  27
HETATM   27  N   UNL     1      -8.953   6.471  65.898  1.00  0.00    -0.285 N  
HETATM   28  H   UNL     1      -8.600   7.231  65.317  1.00  0.00     0.000 HD 
HETATM   29  C   UNL     1      -8.616   5.179  65.562  1.00  0.00    -0.143 C  
HETATM   30  O   UNL     1      -8.960   4.192  66.203  1.00  0.00    -0.118 OA 
BRANCH  29  31
HETATM   31  C   UNL     1      -7.730   5.064  64.311  1.00  0.00    -0.085 C  
HETATM   32  H   UNL     1      -6.538   3.719  63.495  1.00  0.00     0.000 HD 
HETATM   33  O   UNL     1      -7.086   3.790  64.269  1.00  0.00    -0.052 OA 
BRANCH  31  34
HETATM   34  C   UNL     1      -8.557   5.234  63.037  1.00  0.00    -0.067 C  
BRANCH  34  35
HETATM   35  C   UNL     1      -8.264   6.565  62.343  1.00  0.00    -0.060 C  
HETATM   36  H1  UNL     1      -7.120   8.235  62.662  1.00  0.00     0.000 HD 
HETATM   37  H2  UNL     1      -6.462   6.826  63.320  1.00  0.00     0.000 HD 
HETATM   38  N   UNL     1      -7.315   7.348  63.125  1.00  0.00    -0.083 NA 
ENDBRANCH  34  35
ENDBRANCH  31  34
ENDBRANCH  29  31
ENDBRANCH  18  27
BRANCH  26  39
HETATM   39  O   UNL     1      -9.981   9.995  68.857  1.00  0.00    -0.175 OA 
BRANCH  39  40
HETATM   40  C   UNL     1     -10.220  11.383  69.110  1.00  0.00    -0.059 C  
HETATM   41  H1  UNL     1     -13.551  10.595  69.723  1.00  0.00     0.000 HD 
HETATM   42  O   UNL     1     -10.111  12.162  67.915  1.00  0.00    -0.188 OA 
HETATM   43  H2  UNL     1     -12.284   9.577  69.325  1.00  0.00     0.000 HD 
HETATM   44  N   UNL     1     -12.636  10.533  69.276  1.00  0.00    -0.072 NA 
HETATM   45  C   UNL     1     -11.624  11.478  69.796  1.00  0.00    -0.326 C  
HETATM   46  C   UNL     1     -10.480  13.488  68.078  1.00  0.00    -0.242 C  
HETATM   47  C   UNL     1     -12.141  12.923  69.853  1.00  0.00    -0.335 C  
HETATM   48  C   UNL     1     -11.405  13.873  68.970  1.00  0.00    -0.324 C  
BRANCH  46  49
HETATM   49  C   UNL     1      -9.802  14.467  67.147  1.00  0.00    -0.245 C  
BRANCH  49  50
HETATM   50  N   UNL     1      -9.653  13.961  65.780  1.00  0.00    -0.509 NA 
HETATM   51  H   UNL     1      -9.554  12.946  65.767  1.00  0.00     0.000 HD 
BRANCH  50  52
HETATM   52  C   UNL     1     -10.761  14.405  64.916  1.00  0.00    -0.426 C  
BRANCH  52  53
HETATM   53  C   UNL     1     -10.793  15.931  64.812  1.00  0.00    -0.324 C  
HETATM   54  O   UNL     1     -11.660  16.345  63.759  1.00  0.00    -1.605 OA 
HETATM   55  H   UNL     1     -11.680  17.293  63.694  1.00  0.00     0.000 HD 
ENDBRANCH  52  53
ENDBRANCH  50  52
ENDBRANCH  49  50
ENDBRANCH  46  49
ENDBRANCH  39  40
ENDBRANCH  26  39
ENDBRANCH  15  16
ENDBRANCH   6  15
ENDBRANCH   2   4
TORSDOF 13
ENDMDL
MODEL       22
REMARK 921   NORMALIZED FREE ENERGY PREDICTED BY IDOCK:   -4.95 KCAL/MOL
REMARK 922        TOTAL FREE ENERGY PREDICTED BY IDOCK:  -12.17 KCAL/MOL
REMARK 923 INTER-LIGAND FREE ENERGY PREDICTED BY IDOCK:   -9.54 KCAL/MOL
REMARK 924 INTRA-LIGAND FREE ENERGY PREDICTED BY IDOCK:   -2.64 KCAL/MOL
REMARK 927      BINDING AFFINITY PREDICTED BY RF-SCORE:    0.00 PKD
ROOT
HETATM    1  C   UNL     1     -11.281  16.129  69.390  1.00  0.00    -0.335 C  
HETATM    2  N   UNL     1     -12.443  15.247  69.375  1.00  0.00    -0.601 NA 
HETATM    3  H   UNL     1     -12.783  15.133  68.419  1.00  0.00     0.000 HD 
ENDROOT
BRANCH   2   4
HETATM    4  C   UNL     1     -12.245  13.909  70.009  1.00  0.00    -0.344 C  
HETATM    5  C   UNL     1     -12.644  12.743  69.070  1.00  0.00     0.684 C  
HETATM    6  C   UNL     1     -12.254  11.396  69.719  1.00  0.00    -0.265 C  
HETATM    7  O   UNL     1     -12.046  12.891  67.780  1.00  0.00    -0.312 OA 
HETATM    8  H   UNL     1     -12.291  12.176  67.205  1.00  0.00     0.000 HD 
HETATM    9  O   UNL     1     -14.275  13.861  71.409  1.00  0.00    -0.159 OA 
HETATM   10  O   UNL     1     -12.959  11.257  70.954  1.00  0.00    -0.273 OA 
HETATM   11  H   UNL     1     -14.643  13.723  72.273  1.00  0.00     0.000 HD 
HETATM   12  C   UNL     1     -12.561  12.244  71.920  1.00  0.00     0.061 C  
HETATM   13  C   UNL     1     -12.287  14.668  72.463  1.00  0.00    -0.342 C  
HETATM   14  C   UNL     1     -12.851  13.681  71.434  1.00  0.00    -0.360 C  
BRANCH   6  15
HETATM   15  O   UNL     1     -10.841  11.320  69.919  1.00  0.00    -0.127 OA 
BRANCH  15  16
HETATM   16  C   UNL     1     -10.205  10.100  69.501  1.00  0.00    -0.236 C  
HETATM   17  H1  UNL     1      -7.303   9.992  66.116  1.00  0.00     0.000 HD 
HETATM   18  C   UNL     1     -10.765   9.512  68.185  1.00  0.00    -0.197 C  
HETATM   19  C   UNL     1      -8.692  10.415  69.350  1.00  0.00    -0.124 C  
HETATM   20  H2  UNL     1      -8.709   9.432  65.372  1.00  0.00     0.000 HD 
HETATM   21  C   UNL     1      -9.038  10.868  66.839  1.00  0.00    -0.154 C  
HETATM   22  C   UNL     1     -10.522  10.500  67.032  1.00  0.00    -0.304 C  
HETATM   23  O   UNL     1      -7.944   9.188  69.205  1.00  0.00    -0.092 OA 
HETATM   24  H   UNL     1      -7.018   9.381  69.113  1.00  0.00     0.000 HD 
HETATM   25  N   UNL     1      -8.284   9.749  66.244  1.00  0.00    -0.116 NA 
HETATM   26  C   UNL     1      -8.410  11.387  68.168  1.00  0.00    -0.149 C  
BRANCH  18  27
HETATM   27  N   UNL     1     -10.225   8.178  67.918  1.00  0.00    -0.207 N  
HETATM   28  H   UNL     1      -9.545   8.072  67.165  1.00  0.00     0.000 HD 
HETATM   29  C   UNL     1     -10.591   7.061  68.633  1.00  0.00    -0.210 C  
HETATM   30  O   UNL     1     -11.376   7.076  69.575  1.00  0.00    -0.189 OA 
BRANCH  29  31
HETATM   31  C   UNL     1      -9.902   5.766  68.174  1.00  0.00    -0.135 C  
HETATM   32  H   UNL     1      -9.579   3.958  68.898  1.00  0.00     0.000 HD 
HETATM   33  O   UNL     1     -10.005   4.759  69.182  1.00  0.00    -0.191 OA 
BRANCH  31  34
HETATM   34  C   UNL     1     -10.535   5.234  66.888  1.00  0.00    -0.313 C  
BRANCH  34  35
HETATM   35  C   UNL     1      -9.494   5.012  65.791  1.00  0.00    -0.157 C  
HETATM   36  H1  UNL     1      -7.942   6.036  64.927  1.00  0.00     0.000 HD 
HETATM   37  H2  UNL     1      -8.204   6.440  66.546  1.00  0.00     0.000 HD 
HETATM   38  N   UNL     1      -8.637   6.184  65.659  1.00  0.00    -0.151 NA 
ENDBRANCH  34  35
ENDBRANCH  31  34
ENDBRANCH  29  31
ENDBRANCH  18  27
BRANCH  26  39
HETATM   39  O   UNL     1      -8.945  12.697  68.344  1.00  0.00    -0.187 OA 
BRANCH  39  40
HETATM   40  C   UNL     1      -8.776  13.649  67.290  1.00  0.00    -0.218 C  
HETATM   41  H1  UNL     1      -7.223  15.757  69.578  1.00  0.00     0.000 HD 
HETATM   42  O   UNL     1     -10.028  14.208  66.879  1.00  0.00    -0.250 OA 
HETATM   43  H2  UNL     1      -7.841  14.220  69.814  1.00  0.00     0.000 HD 
HETATM   44  N   UNL     1      -7.889  15.063  69.240  1.00  0.00    -0.188 NA 
HETATM   45  C   UNL     1      -7.754  14.715  67.808  1.00  0.00    -0.157 C  
HETATM   46  C   UNL     1      -9.905  15.243  65.966  1.00  0.00    -0.328 C  
HETATM   47  C   UNL     1      -7.704  15.955  66.904  1.00  0.00    -0.268 C  
HETATM   48  C   UNL     1      -8.841  16.060  65.944  1.00  0.00    -0.191 C  
BRANCH  46  49
HETATM   49  C   UNL     1     -11.076  15.419  65.025  1.00  0.00    -0.418 C  
BRANCH  49  50
HETATM   50  N   UNL     1     -11.757  14.161  64.705  1.00  0.00    -0.396 NA 
HETATM   51  H   UNL     1     -12.566  14.318  64.104  1.00  0.00     0.000 HD 
BRANCH  50  52
HETATM   52  C   UNL     1     -10.829  13.180  64.115  1.00  0.00    -0.380 C  
BRANCH  52  53
HETATM   53  C   UNL     1     -11.583  11.938  63.632  1.00  0.00    -0.464 C  
HETATM   54  O   UNL     1     -12.974  12.216  63.498  1.00  0.00    -0.794 OA 
HETATM   55  H   UNL     1     -13.442  11.444  63.199  1.00  0.00     0.000 HD 
ENDBRANCH  52  53
ENDBRANCH  50  52
ENDBRANCH  49  50
ENDBRANCH  46  49
ENDBRANCH  39  40
ENDBRANCH  26  39
ENDBRANCH  15  16
ENDBRANCH   6  15
ENDBRANCH   2   4
TORSDOF 13
ENDMDL
MODEL       23
REMARK 921   NORMALIZED FREE ENERGY PREDICTED BY IDOCK:   -4.93 KCAL/MOL
REMARK 922        TOTAL FREE ENERGY PREDICTED BY IDOCK:  -12.14 KCAL/MOL
REMARK 923 INTER-LIGAND FREE ENERGY PREDICTED BY IDOCK:  -10.74 KCAL/MOL
REMARK 924 INTRA-LIGAND FREE ENERGY PREDICTED BY IDOCK:   -1.40 KCAL/MOL
REMARK 927      BINDING AFFINITY PREDICTED BY RF-SCORE:    0.00 PKD
ROOT
HETATM    1  C   UNL     1     -11.253   5.375  72.648  1.00  0.00    -0.275 C  
HETATM    2  N   UNL     1     -11.656   6.685  73.151  1.00  0.00    -0.430 NA 
HETATM    3  H   UNL     1     -10.985   7.014  73.845  1.00  0.00     0.000 HD 
ENDROOT
BRANCH   2   4
HETATM    4  C   UNL     1     -11.873   7.736  72.112  1.00  0.00    -0.324 C  
HETATM    5  C   UNL     1     -10.750   8.803  72.104  1.00  0.00    -0.313 C  
HETATM    6  C   UNL     1     -10.945   9.754  70.902  1.00  0.00    -0.341 C  
HETATM    7  O   UNL     1      -9.458   8.193  72.081  1.00  0.00    -0.180 OA 
HETATM    8  H   UNL     1      -8.770   8.848  72.077  1.00  0.00     0.000 HD 
HETATM    9  O   UNL     1     -13.554   9.091  73.304  1.00  0.00    -0.992 OA 
HETATM   10  O   UNL     1     -12.207  10.411  71.033  1.00  0.00    -0.326 OA 
HETATM   11  H   UNL     1     -14.404   9.512  73.273  1.00  0.00     0.000 HD 
HETATM   12  C   UNL     1     -13.309   9.493  70.939  1.00  0.00    -0.077 C  
HETATM   13  C   UNL     1     -14.406   7.425  71.815  1.00  0.00    -0.586 C  
HETATM   14  C   UNL     1     -13.275   8.430  72.060  1.00  0.00    -0.346 C  
BRANCH   6  15
HETATM   15  O   UNL     1     -10.860   9.036  69.669  1.00  0.00    -0.231 OA 
BRANCH  15  16
HETATM   16  C   UNL     1      -9.555   8.557  69.301  1.00  0.00    -0.170 C  
HETATM   17  H1  UNL     1      -7.219  10.397  65.977  1.00  0.00     0.000 HD 
HETATM   18  C   UNL     1      -9.527   7.732  67.995  1.00  0.00    -0.144 C  
HETATM   19  C   UNL     1      -8.643   9.809  69.170  1.00  0.00    -0.153 C  
HETATM   20  H2  UNL     1      -7.855   9.028  65.225  1.00  0.00     0.000 HD 
HETATM   21  C   UNL     1      -9.116   9.883  66.639  1.00  0.00    -0.147 C  
HETATM   22  C   UNL     1      -9.972   8.614  66.816  1.00  0.00    -0.343 C  
HETATM   23  O   UNL     1      -7.260   9.404  69.078  1.00  0.00    -0.069 OA 
HETATM   24  H   UNL     1      -6.702  10.169  68.997  1.00  0.00     0.000 HD 
HETATM   25  N   UNL     1      -7.785   9.557  66.094  1.00  0.00    -0.100 NA 
HETATM   26  C   UNL     1      -9.048  10.704  67.963  1.00  0.00    -0.147 C  
BRANCH  18  27
HETATM   27  N   UNL     1      -8.221   7.107  67.780  1.00  0.00    -0.114 N  
HETATM   28  H   UNL     1      -7.384   7.678  67.900  1.00  0.00     0.000 HD 
HETATM   29  C   UNL     1      -8.068   5.787  67.422  1.00  0.00    -0.102 C  
HETATM   30  O   UNL     1      -9.000   5.003  67.278  1.00  0.00    -0.113 OA 
BRANCH  29  31
HETATM   31  C   UNL     1      -6.606   5.348  67.243  1.00  0.00    -0.053 C  
HETATM   32  H   UNL     1      -5.430   3.909  67.909  1.00  0.00     0.000 HD 
HETATM   33  O   UNL     1      -6.334   4.181  68.020  1.00  0.00    -0.035 OA 
BRANCH  31  34
HETATM   34  C   UNL     1      -6.303   5.039  65.777  1.00  0.00    -0.035 C  
BRANCH  34  35
HETATM   35  C   UNL     1      -5.750   3.626  65.596  1.00  0.00    -0.018 C  
HETATM   36  H1  UNL     1      -6.449   1.763  65.101  1.00  0.00     0.000 HD 
HETATM   37  H2  UNL     1      -7.321   3.026  64.394  1.00  0.00     0.000 HD 
HETATM   38  N   UNL     1      -6.818   2.706  65.221  1.00  0.00    -0.043 NA 
ENDBRANCH  34  35
ENDBRANCH  31  34
ENDBRANCH  29  31
ENDBRANCH  18  27
BRANCH  26  39
HETATM   39  O   UNL     1     -10.331  11.313  68.087  1.00  0.00    -0.175 OA 
BRANCH  39  40
HETATM   40  C   UNL     1     -10.700  12.323  67.144  1.00  0.00    -0.233 C  
HETATM   41  H1  UNL     1     -11.787  14.275  69.809  1.00  0.00     0.000 HD 
HETATM   42  O   UNL     1     -11.816  11.916  66.346  1.00  0.00    -0.561 OA 
HETATM   43  H2  UNL     1     -11.088  12.755  69.833  1.00  0.00     0.000 HD 
HETATM   44  N   UNL     1     -11.618  13.423  69.274  1.00  0.00    -0.292 NA 
HETATM   45  C   UNL     1     -10.960  13.631  67.965  1.00  0.00    -0.250 C  
HETATM   46  C   UNL     1     -12.307  12.916  65.521  1.00  0.00    -0.461 C  
HETATM   47  C   UNL     1     -11.651  14.713  67.124  1.00  0.00    -0.394 C  
HETATM   48  C   UNL     1     -12.236  14.215  65.845  1.00  0.00    -0.458 C  
BRANCH  46  49
HETATM   49  C   UNL     1     -12.971  12.438  64.249  1.00  0.00    -0.157 C  
BRANCH  49  50
HETATM   50  N   UNL     1     -12.030  12.234  63.144  1.00  0.00    -0.733 NA 
HETATM   51  H   UNL     1     -11.682  13.122  62.782  1.00  0.00     0.000 HD 
BRANCH  50  52
HETATM   52  C   UNL     1     -10.925  11.341  63.534  1.00  0.00    -0.245 C  
BRANCH  52  53
HETATM   53  C   UNL     1      -9.590  12.090  63.526  1.00  0.00    -0.084 C  
HETATM   54  O   UNL     1      -8.624  11.387  62.749  1.00  0.00    -0.488 OA 
HETATM   55  H   UNL     1      -7.795  11.852  62.744  1.00  0.00     0.000 HD 
ENDBRANCH  52  53
ENDBRANCH  50  52
ENDBRANCH  49  50
ENDBRANCH  46  49
ENDBRANCH  39  40
ENDBRANCH  26  39
ENDBRANCH  15  16
ENDBRANCH   6  15
ENDBRANCH   2   4
TORSDOF 13
ENDMDL
MODEL       24
REMARK 921   NORMALIZED FREE ENERGY PREDICTED BY IDOCK:   -4.85 KCAL/MOL
REMARK 922        TOTAL FREE ENERGY PREDICTED BY IDOCK:  -11.99 KCAL/MOL
REMARK 923 INTER-LIGAND FREE ENERGY PREDICTED BY IDOCK:  -11.62 KCAL/MOL
REMARK 924 INTRA-LIGAND FREE ENERGY PREDICTED BY IDOCK:   -0.37 KCAL/MOL
REMARK 927      BINDING AFFINITY PREDICTED BY RF-SCORE:    0.00 PKD
ROOT
HETATM    1  C   UNL     1     -14.228  13.187  72.550  1.00  0.00    -0.065 C  
HETATM    2  N   UNL     1     -13.039  12.345  72.466  1.00  0.00    -0.323 NA 
HETATM    3  H   UNL     1     -13.261  11.397  72.772  1.00  0.00     0.000 HD 
ENDROOT
BRANCH   2   4
HETATM    4  C   UNL     1     -12.368  12.307  71.132  1.00  0.00    -0.147 C  
HETATM    5  C   UNL     1     -12.898  13.400  70.170  1.00  0.00     0.183 C  
HETATM    6  C   UNL     1     -12.047  13.415  68.881  1.00  0.00    -0.252 C  
HETATM    7  O   UNL     1     -12.908  14.682  70.802  1.00  0.00    -0.337 OA 
HETATM    8  H   UNL     1     -13.234  15.352  70.212  1.00  0.00     0.000 HD 
HETATM    9  O   UNL     1     -13.616  10.423  70.145  1.00  0.00    -0.241 OA 
HETATM   10  O   UNL     1     -12.157  12.143  68.240  1.00  0.00    -0.407 OA 
HETATM   11  H   UNL     1     -13.572   9.587  69.696  1.00  0.00     0.000 HD 
HETATM   12  C   UNL     1     -11.584  11.086  69.030  1.00  0.00    -0.323 C  
HETATM   13  C   UNL     1     -11.549   9.874  71.215  1.00  0.00    -0.456 C  
HETATM   14  C   UNL     1     -12.295  10.930  70.392  1.00  0.00    -0.351 C  
BRANCH   6  15
HETATM   15  O   UNL     1     -10.684  13.730  69.177  1.00  0.00    -0.215 OA 
BRANCH  15  16
HETATM   16  C   UNL     1     -10.312  15.113  69.053  1.00  0.00    -0.244 C  
HETATM   17  H1  UNL     1      -9.434  16.976  65.097  1.00  0.00     0.000 HD 
HETATM   18  C   UNL     1      -8.811  15.342  68.764  1.00  0.00    -0.196 C  
HETATM   19  C   UNL     1     -11.179  15.708  67.910  1.00  0.00    -0.328 C  
HETATM   20  H2  UNL     1      -7.880  16.682  65.683  1.00  0.00     0.000 HD 
HETATM   21  C   UNL     1      -9.281  15.248  66.232  1.00  0.00    -0.315 C  
HETATM   22  C   UNL     1      -8.443  14.711  67.409  1.00  0.00    -0.219 C  
HETATM   23  O   UNL     1     -11.071  17.149  67.906  1.00  0.00    -0.288 OA 
HETATM   24  H   UNL     1     -11.602  17.512  67.207  1.00  0.00     0.000 HD 
HETATM   25  N   UNL     1      -8.880  16.621  65.876  1.00  0.00    -0.502 NA 
HETATM   26  C   UNL     1     -10.806  15.114  66.521  1.00  0.00    -0.317 C  
BRANCH  18  27
HETATM   27  N   UNL     1      -8.455  16.759  68.848  1.00  0.00    -0.242 N  
HETATM   28  H   UNL     1      -9.207  17.448  68.874  1.00  0.00     0.000 HD 
HETATM   29  C   UNL     1      -7.154  17.207  68.893  1.00  0.00    -0.242 C  
HETATM   30  O   UNL     1      -6.175  16.469  68.896  1.00  0.00    -0.136 OA 
BRANCH  29  31
HETATM   31  C   UNL     1      -7.017  18.736  68.973  1.00  0.00    -0.295 C  
HETATM   32  H   UNL     1      -6.218  20.180  67.890  1.00  0.00     0.000 HD 
HETATM   33  O   UNL     1      -6.303  19.235  67.841  1.00  0.00    -0.213 OA 
BRANCH  31  34
HETATM   34  C   UNL     1      -8.389  19.408  69.019  1.00  0.00    -0.258 C  
BRANCH  34  35
HETATM   35  C   UNL     1      -8.611  20.330  67.820  1.00  0.00    -0.206 C  
HETATM   36  H1  UNL     1      -9.908  20.497  66.241  1.00  0.00     0.000 HD 
HETATM   37  H2  UNL     1     -10.598  19.797  67.615  1.00  0.00     0.000 HD 
HETATM   38  N   UNL     1      -9.759  19.883  67.041  1.00  0.00    -0.373 NA 
ENDBRANCH  34  35
ENDBRANCH  31  34
ENDBRANCH  29  31
ENDBRANCH  18  27
BRANCH  26  39
HETATM   39  O   UNL     1     -11.089  13.723  66.383  1.00  0.00    -0.303 OA 
BRANCH  39  40
HETATM   40  C   UNL     1     -10.585  13.036  65.233  1.00  0.00    -0.304 C  
HETATM   41  H1  UNL     1     -13.872  12.551  64.206  1.00  0.00     0.000 HD 
HETATM   42  O   UNL     1      -9.991  11.783  65.587  1.00  0.00    -0.227 OA 
HETATM   43  H2  UNL     1     -13.299  13.349  65.560  1.00  0.00     0.000 HD 
HETATM   44  N   UNL     1     -13.093  12.637  64.859  1.00  0.00    -0.809 NA 
HETATM   45  C   UNL     1     -11.780  12.903  64.231  1.00  0.00    -0.386 C  
HETATM   46  C   UNL     1      -9.623  11.012  64.496  1.00  0.00    -0.256 C  
HETATM   47  C   UNL     1     -11.467  11.929  63.086  1.00  0.00    -0.230 C  
HETATM   48  C   UNL     1     -10.276  11.064  63.325  1.00  0.00    -0.360 C  
BRANCH  46  49
HETATM   49  C   UNL     1      -8.462  10.072  64.730  1.00  0.00    -0.173 C  
BRANCH  49  50
HETATM   50  N   UNL     1      -8.875   8.683  64.949  1.00  0.00    -0.396 NA 
HETATM   51  H   UNL     1      -8.301   8.034  64.411  1.00  0.00     0.000 HD 
BRANCH  50  52
HETATM   52  C   UNL     1      -8.877   8.341  66.382  1.00  0.00    -0.152 C  
BRANCH  52  53
HETATM   53  C   UNL     1     -10.097   7.489  66.738  1.00  0.00    -0.243 C  
HETATM   54  O   UNL     1     -11.041   8.250  67.486  1.00  0.00    -0.471 OA 
HETATM   55  H   UNL     1     -11.799   7.721  67.707  1.00  0.00     0.000 HD 
ENDBRANCH  52  53
ENDBRANCH  50  52
ENDBRANCH  49  50
ENDBRANCH  46  49
ENDBRANCH  39  40
ENDBRANCH  26  39
ENDBRANCH  15  16
ENDBRANCH   6  15
ENDBRANCH   2   4
TORSDOF 13
ENDMDL
MODEL       25
REMARK 921   NORMALIZED FREE ENERGY PREDICTED BY IDOCK:   -4.84 KCAL/MOL
REMARK 922        TOTAL FREE ENERGY PREDICTED BY IDOCK:  -11.98 KCAL/MOL
REMARK 923 INTER-LIGAND FREE ENERGY PREDICTED BY IDOCK:   -9.02 KCAL/MOL
REMARK 924 INTRA-LIGAND FREE ENERGY PREDICTED BY IDOCK:   -2.96 KCAL/MOL
REMARK 927      BINDING AFFINITY PREDICTED BY RF-SCORE:    0.00 PKD
ROOT
HETATM    1  C   UNL     1     -11.337  15.387  64.441  1.00  0.00    -0.238 C  
HETATM    2  N   UNL     1     -11.106  16.299  65.557  1.00  0.00    -0.111 NA 
HETATM    3  H   UNL     1     -11.982  16.744  65.831  1.00  0.00     0.000 HD 
ENDROOT
BRANCH   2   4
HETATM    4  C   UNL     1     -10.442  15.699  66.753  1.00  0.00    -0.297 C  
HETATM    5  C   UNL     1     -11.457  15.270  67.842  1.00  0.00    -0.316 C  
HETATM    6  C   UNL     1     -10.721  14.505  68.966  1.00  0.00    -0.251 C  
HETATM    7  O   UNL     1     -12.512  14.484  67.283  1.00  0.00    -0.578 OA 
HETATM    8  H   UNL     1     -13.135  14.222  67.951  1.00  0.00     0.000 HD 
HETATM    9  O   UNL     1      -9.704  17.781  67.849  1.00  0.00    -0.276 OA 
HETATM   10  O   UNL     1      -9.750  15.372  69.554  1.00  0.00    -0.248 OA 
HETATM   11  H   UNL     1      -8.986  18.262  68.243  1.00  0.00     0.000 HD 
HETATM   12  C   UNL     1      -8.709  15.728  68.629  1.00  0.00    -0.195 C  
HETATM   13  C   UNL     1      -8.110  16.722  66.416  1.00  0.00    -0.355 C  
HETATM   14  C   UNL     1      -9.259  16.490  67.404  1.00  0.00    -0.216 C  
BRANCH   6  15
HETATM   15  O   UNL     1     -10.113  13.316  68.456  1.00  0.00    -0.239 OA 
BRANCH  15  16
HETATM   16  C   UNL     1     -10.172  12.158  69.306  1.00  0.00     0.320 C  
HETATM   17  H1  UNL     1     -10.191   8.017  67.652  1.00  0.00     0.000 HD 
HETATM   18  C   UNL     1     -11.550  11.458  69.328  1.00  0.00    -0.317 C  
HETATM   19  C   UNL     1      -9.077  11.179  68.801  1.00  0.00    -0.139 C  
HETATM   20  H2  UNL     1     -11.828   8.255  67.981  1.00  0.00     0.000 HD 
HETATM   21  C   UNL     1     -10.829   9.967  67.355  1.00  0.00    -0.227 C  
HETATM   22  C   UNL     1     -11.887  10.933  67.922  1.00  0.00     0.015 C  
HETATM   23  O   UNL     1      -8.880  10.120  69.763  1.00  0.00    -0.288 OA 
HETATM   24  H   UNL     1      -8.210   9.521  69.455  1.00  0.00     0.000 HD 
HETATM   25  N   UNL     1     -10.891   8.656  68.027  1.00  0.00    -0.057 NA 
HETATM   26  C   UNL     1      -9.407  10.605  67.394  1.00  0.00    -0.143 C  
BRANCH  18  27
HETATM   27  N   UNL     1     -11.609  10.416  70.355  1.00  0.00    -0.312 N  
HETATM   28  H   UNL     1     -10.994   9.608  70.262  1.00  0.00     0.000 HD 
HETATM   29  C   UNL     1     -12.455  10.475  71.439  1.00  0.00    -0.411 C  
HETATM   30  O   UNL     1     -13.215  11.410  71.665  1.00  0.00    -0.419 OA 
BRANCH  29  31
HETATM   31  C   UNL     1     -12.352   9.268  72.385  1.00  0.00    -0.190 C  
HETATM   32  H   UNL     1     -13.578   7.953  73.200  1.00  0.00     0.000 HD 
HETATM   33  O   UNL     1     -13.642   8.699  72.615  1.00  0.00    -0.329 OA 
BRANCH  31  34
HETATM   34  C   UNL     1     -11.442   8.188  71.798  1.00  0.00    -0.337 C  
BRANCH  34  35
HETATM   35  C   UNL     1     -10.258   7.883  72.716  1.00  0.00    -0.314 C  
HETATM   36  H1  UNL     1      -8.344   8.554  73.017  1.00  0.00     0.000 HD 
HETATM   37  H2  UNL     1      -9.398   9.742  72.441  1.00  0.00     0.000 HD 
HETATM   38  N   UNL     1      -9.134   8.758  72.405  1.00  0.00    -0.375 NA 
ENDBRANCH  34  35
ENDBRANCH  31  34
ENDBRANCH  29  31
ENDBRANCH  18  27
BRANCH  26  39
HETATM   39  O   UNL     1      -9.408  11.575  66.348  1.00  0.00    -0.197 OA 
BRANCH  39  40
HETATM   40  C   UNL     1      -8.913  11.192  65.062  1.00  0.00    -0.068 C  
HETATM   41  H1  UNL     1     -11.975  12.138  63.712  1.00  0.00     0.000 HD 
HETATM   42  O   UNL     1      -8.749   9.774  64.962  1.00  0.00    -0.150 OA 
HETATM   43  H2  UNL     1     -11.456  12.213  65.301  1.00  0.00     0.000 HD 
HETATM   44  N   UNL     1     -11.329  11.751  64.401  1.00  0.00    -0.323 NA 
HETATM   45  C   UNL     1      -9.903  11.785  64.005  1.00  0.00    -0.240 C  
HETATM   46  C   UNL     1      -8.415   9.339  63.689  1.00  0.00    -0.195 C  
HETATM   47  C   UNL     1      -9.667  11.205  62.603  1.00  0.00    -0.226 C  
HETATM   48  C   UNL     1      -8.813   9.983  62.582  1.00  0.00    -0.246 C  
BRANCH  46  49
HETATM   49  C   UNL     1      -7.609   8.061  63.633  1.00  0.00    -0.129 C  
BRANCH  49  50
HETATM   50  N   UNL     1      -7.098   7.639  64.940  1.00  0.00    -0.061 NA 
HETATM   51  H   UNL     1      -7.513   8.182  65.696  1.00  0.00     0.000 HD 
BRANCH  50  52
HETATM   52  C   UNL     1      -7.283   6.192  65.150  1.00  0.00    -0.070 C  
BRANCH  52  53
HETATM   53  C   UNL     1      -8.424   5.926  66.135  1.00  0.00    -0.132 C  
HETATM   54  O   UNL     1      -8.971   7.152  66.614  1.00  0.00    -0.134 OA 
HETATM   55  H   UNL     1      -9.678   6.987  67.226  1.00  0.00     0.000 HD 
ENDBRANCH  52  53
ENDBRANCH  50  52
ENDBRANCH  49  50
ENDBRANCH  46  49
ENDBRANCH  39  40
ENDBRANCH  26  39
ENDBRANCH  15  16
ENDBRANCH   6  15
ENDBRANCH   2   4
TORSDOF 13
ENDMDL
MODEL       26
REMARK 921   NORMALIZED FREE ENERGY PREDICTED BY IDOCK:   -4.81 KCAL/MOL
REMARK 922        TOTAL FREE ENERGY PREDICTED BY IDOCK:  -11.93 KCAL/MOL
REMARK 923 INTER-LIGAND FREE ENERGY PREDICTED BY IDOCK:  -10.33 KCAL/MOL
REMARK 924 INTRA-LIGAND FREE ENERGY PREDICTED BY IDOCK:   -1.61 KCAL/MOL
REMARK 927      BINDING AFFINITY PREDICTED BY RF-SCORE:    0.00 PKD
ROOT
HETATM    1  C   UNL     1     -13.871  13.404  72.288  1.00  0.00    -0.573 C  
HETATM    2  N   UNL     1     -12.793  12.426  72.168  1.00  0.00    -0.175 NA 
HETATM    3  H   UNL     1     -13.107  11.517  72.509  1.00  0.00     0.000 HD 
ENDROOT
BRANCH   2   4
HETATM    4  C   UNL     1     -12.202  12.283  70.804  1.00  0.00    -0.260 C  
HETATM    5  C   UNL     1     -12.829  13.261  69.779  1.00  0.00     0.543 C  
HETATM    6  C   UNL     1     -12.058  13.180  68.443  1.00  0.00    -0.181 C  
HETATM    7  O   UNL     1     -12.850  14.597  70.288  1.00  0.00    -0.506 OA 
HETATM    8  H   UNL     1     -13.236  15.197  69.660  1.00  0.00     0.000 HD 
HETATM    9  O   UNL     1     -13.434  10.274  70.078  1.00  0.00    -0.449 OA 
HETATM   10  O   UNL     1     -12.157  11.850  67.933  1.00  0.00    -0.558 OA 
HETATM   11  H   UNL     1     -13.386   9.401  69.707  1.00  0.00     0.000 HD 
HETATM   12  C   UNL     1     -11.499  10.893  68.780  1.00  0.00    -0.308 C  
HETATM   13  C   UNL     1     -11.288   9.896  71.061  1.00  0.00    -0.460 C  
HETATM   14  C   UNL     1     -12.121  10.844  70.192  1.00  0.00    -0.349 C  
BRANCH   6  15
HETATM   15  O   UNL     1     -10.693  13.566  68.622  1.00  0.00    -0.245 OA 
BRANCH  15  16
HETATM   16  C   UNL     1     -10.193  14.570  67.722  1.00  0.00    -0.226 C  
HETATM   17  H1  UNL     1      -5.872  14.840  66.654  1.00  0.00     0.000 HD 
HETATM   18  C   UNL     1      -9.425  15.718  68.417  1.00  0.00    -0.196 C  
HETATM   19  C   UNL     1      -9.272  13.839  66.707  1.00  0.00    -0.244 C  
HETATM   20  H2  UNL     1      -6.007  16.052  67.819  1.00  0.00     0.000 HD 
HETATM   21  C   UNL     1      -7.224  14.403  68.164  1.00  0.00    -0.128 C  
HETATM   22  C   UNL     1      -8.174  15.155  69.115  1.00  0.00    -0.214 C  
HETATM   23  O   UNL     1      -8.953  14.720  65.608  1.00  0.00    -0.341 OA 
HETATM   24  H   UNL     1      -8.389  14.273  64.987  1.00  0.00     0.000 HD 
HETATM   25  N   UNL     1      -6.501  15.338  67.283  1.00  0.00    -0.307 NA 
HETATM   26  C   UNL     1      -7.981  13.289  67.378  1.00  0.00    -0.170 C  
BRANCH  18  27
HETATM   27  N   UNL     1      -9.118  16.802  67.484  1.00  0.00    -0.209 N  
HETATM   28  H   UNL     1      -8.259  16.744  66.936  1.00  0.00     0.000 HD 
HETATM   29  C   UNL     1      -9.932  17.899  67.310  1.00  0.00    -0.325 C  
HETATM   30  O   UNL     1     -10.998  18.060  67.893  1.00  0.00    -0.297 OA 
BRANCH  29  31
HETATM   31  C   UNL     1      -9.408  18.916  66.283  1.00  0.00    -0.282 C  
HETATM   32  H   UNL     1     -10.160  20.070  64.870  1.00  0.00     0.000 HD 
HETATM   33  O   UNL     1     -10.484  19.441  65.504  1.00  0.00    -0.485 OA 
BRANCH  31  34
HETATM   34  C   UNL     1      -8.697  20.078  66.977  1.00  0.00    -0.411 C  
BRANCH  34  35
HETATM   35  C   UNL     1      -7.188  20.046  66.736  1.00  0.00    -0.239 C  
HETATM   36  H1  UNL     1      -5.885  20.281  65.171  1.00  0.00     0.000 HD 
HETATM   37  H2  UNL     1      -7.310  21.175  65.008  1.00  0.00     0.000 HD 
HETATM   38  N   UNL     1      -6.892  20.302  65.332  1.00  0.00    -0.298 NA 
ENDBRANCH  34  35
ENDBRANCH  31  34
ENDBRANCH  29  31
ENDBRANCH  18  27
BRANCH  26  39
HETATM   39  O   UNL     1      -8.210  12.254  68.332  1.00  0.00    -0.161 OA 
BRANCH  39  40
HETATM   40  C   UNL     1      -8.333  10.908  67.862  1.00  0.00    -0.119 C  
HETATM   41  H1  UNL     1      -6.312   9.904  70.508  1.00  0.00     0.000 HD 
HETATM   42  O   UNL     1      -7.646  10.719  66.620  1.00  0.00    -0.121 OA 
HETATM   43  H2  UNL     1      -6.854  11.439  70.120  1.00  0.00     0.000 HD 
HETATM   44  N   UNL     1      -6.650  10.508  69.758  1.00  0.00    -0.095 NA 
HETATM   45  C   UNL     1      -7.815   9.982  69.012  1.00  0.00    -0.101 C  
HETATM   46  C   UNL     1      -7.608   9.400  66.198  1.00  0.00    -0.096 C  
HETATM   47  C   UNL     1      -7.607   8.536  68.540  1.00  0.00    -0.095 C  
HETATM   48  C   UNL     1      -7.600   8.370  67.058  1.00  0.00    -0.092 C  
BRANCH  46  49
HETATM   49  C   UNL     1      -7.529   9.201  64.702  1.00  0.00    -0.104 C  
BRANCH  49  50
HETATM   50  N   UNL     1      -7.446  10.459  63.953  1.00  0.00    -0.319 NA 
HETATM   51  H   UNL     1      -6.478  10.716  63.761  1.00  0.00     0.000 HD 
BRANCH  50  52
HETATM   52  C   UNL     1      -8.244  10.403  62.715  1.00  0.00    -0.160 C  
BRANCH  52  53
HETATM   53  C   UNL     1      -9.581  11.125  62.895  1.00  0.00    -0.348 C  
HETATM   54  O   UNL     1      -9.413  12.308  63.671  1.00  0.00    -0.622 OA 
HETATM   55  H   UNL     1     -10.243  12.757  63.783  1.00  0.00     0.000 HD 
ENDBRANCH  52  53
ENDBRANCH  50  52
ENDBRANCH  49  50
ENDBRANCH  46  49
ENDBRANCH  39  40
ENDBRANCH  26  39
ENDBRANCH  15  16
ENDBRANCH   6  15
ENDBRANCH   2   4
TORSDOF 13
ENDMDL
MODEL       27
REMARK 921   NORMALIZED FREE ENERGY PREDICTED BY IDOCK:   -4.77 KCAL/MOL
REMARK 922        TOTAL FREE ENERGY PREDICTED BY IDOCK:  -11.86 KCAL/MOL
REMARK 923 INTER-LIGAND FREE ENERGY PREDICTED BY IDOCK:   -9.12 KCAL/MOL
REMARK 924 INTRA-LIGAND FREE ENERGY PREDICTED BY IDOCK:   -2.74 KCAL/MOL
REMARK 927      BINDING AFFINITY PREDICTED BY RF-SCORE:    0.00 PKD
ROOT
HETATM    1  C   UNL     1     -12.875   9.326  72.126  1.00  0.00    -0.408 C  
HETATM    2  N   UNL     1     -11.418   9.332  72.050  1.00  0.00    -0.304 NA 
HETATM    3  H   UNL     1     -11.020   9.492  72.976  1.00  0.00     0.000 HD 
ENDROOT
BRANCH   2   4
HETATM    4  C   UNL     1     -10.799   8.122  71.431  1.00  0.00    -0.234 C  
HETATM    5  C   UNL     1     -11.383   7.807  70.031  1.00  0.00    -0.048 C  
HETATM    6  C   UNL     1     -10.584   6.656  69.381  1.00  0.00    -0.240 C  
HETATM    7  O   UNL     1     -11.389   8.970  69.200  1.00  0.00    -0.423 OA 
HETATM    8  H   UNL     1     -11.748   8.777  68.342  1.00  0.00     0.000 HD 
HETATM    9  O   UNL     1     -12.055   6.395  72.664  1.00  0.00    -0.513 OA 
HETATM   10  O   UNL     1     -10.698   5.493  70.202  1.00  0.00    -0.306 OA 
HETATM   11  H   UNL     1     -12.015   5.602  73.186  1.00  0.00     0.000 HD 
HETATM   12  C   UNL     1     -10.079   5.672  71.487  1.00  0.00    -0.201 C  
HETATM   13  C   UNL     1      -9.939   7.020  73.586  1.00  0.00    -0.348 C  
HETATM   14  C   UNL     1     -10.733   6.816  72.291  1.00  0.00    -0.220 C  
BRANCH   6  15
HETATM   15  O   UNL     1      -9.216   7.028  69.199  1.00  0.00    -0.140 OA 
BRANCH  15  16
HETATM   16  C   UNL     1      -8.517   6.376  68.125  1.00  0.00    -0.115 C  
HETATM   17  H1  UNL     1      -7.234   8.576  64.464  1.00  0.00     0.000 HD 
HETATM   18  C   UNL     1      -9.384   6.111  66.873  1.00  0.00    -0.134 C  
HETATM   19  C   UNL     1      -7.308   7.283  67.763  1.00  0.00    -0.093 C  
HETATM   20  H2  UNL     1      -8.636   7.810  63.923  1.00  0.00     0.000 HD 
HETATM   21  C   UNL     1      -8.706   8.404  65.914  1.00  0.00    -0.169 C  
HETATM   22  C   UNL     1      -9.859   7.449  66.280  1.00  0.00    -0.042 C  
HETATM   23  O   UNL     1      -6.402   6.573  66.892  1.00  0.00    -0.038 OA 
HETATM   24  H   UNL     1      -5.662   7.127  66.670  1.00  0.00     0.000 HD 
HETATM   25  N   UNL     1      -7.997   7.944  64.706  1.00  0.00    -0.135 NA 
HETATM   26  C   UNL     1      -7.757   8.631  67.129  1.00  0.00    -0.096 C  
BRANCH  18  27
HETATM   27  N   UNL     1      -8.683   5.272  65.899  1.00  0.00    -0.133 N  
HETATM   28  H   UNL     1      -7.672   5.373  65.810  1.00  0.00     0.000 HD 
HETATM   29  C   UNL     1      -9.324   4.355  65.098  1.00  0.00    -0.165 C  
HETATM   30  O   UNL     1     -10.529   4.131  65.140  1.00  0.00    -0.230 OA 
BRANCH  29  31
HETATM   31  C   UNL     1      -8.391   3.590  64.145  1.00  0.00    -0.090 C  
HETATM   32  H   UNL     1      -8.531   2.094  62.866  1.00  0.00     0.000 HD 
HETATM   33  O   UNL     1      -9.108   2.566  63.455  1.00  0.00    -0.092 OA 
BRANCH  31  34
HETATM   34  C   UNL     1      -7.772   4.532  63.112  1.00  0.00    -0.066 C  
BRANCH  34  35
HETATM   35  C   UNL     1      -6.244   4.525  63.180  1.00  0.00    -0.018 C  
HETATM   36  H1  UNL     1      -4.768   5.199  64.433  1.00  0.00     0.000 HD 
HETATM   37  H2  UNL     1      -6.205   4.806  65.228  1.00  0.00     0.000 HD 
HETATM   38  N   UNL     1      -5.786   5.203  64.387  1.00  0.00    -0.017 NA 
ENDBRANCH  34  35
ENDBRANCH  31  34
ENDBRANCH  29  31
ENDBRANCH  18  27
BRANCH  26  39
HETATM   39  O   UNL     1      -8.483   9.483  68.012  1.00  0.00    -0.118 OA 
BRANCH  39  40
HETATM   40  C   UNL     1      -8.805  10.806  67.572  1.00  0.00    -0.128 C  
HETATM   41  H1  UNL     1      -6.392  12.016  69.764  1.00  0.00     0.000 HD 
HETATM   42  O   UNL     1     -10.109  11.203  68.008  1.00  0.00    -0.167 OA 
HETATM   43  H2  UNL     1      -6.838  10.432  69.459  1.00  0.00     0.000 HD 
HETATM   44  N   UNL     1      -7.139  11.407  69.430  1.00  0.00    -0.099 NA 
HETATM   45  C   UNL     1      -7.660  11.741  68.085  1.00  0.00    -0.117 C  
HETATM   46  C   UNL     1     -10.408  12.528  67.736  1.00  0.00    -0.222 C  
HETATM   47  C   UNL     1      -8.021  13.227  67.946  1.00  0.00    -0.159 C  
HETATM   48  C   UNL     1      -9.468  13.484  67.690  1.00  0.00    -0.222 C  
BRANCH  46  49
HETATM   49  C   UNL     1     -11.877  12.833  67.541  1.00  0.00    -0.343 C  
BRANCH  49  50
HETATM   50  N   UNL     1     -12.126  14.185  67.032  1.00  0.00    -0.496 NA 
HETATM   51  H   UNL     1     -11.421  14.843  67.361  1.00  0.00     0.000 HD 
BRANCH  50  52
HETATM   52  C   UNL     1     -12.231  14.196  65.562  1.00  0.00    -0.432 C  
BRANCH  52  53
HETATM   53  C   UNL     1     -11.319  15.268  64.959  1.00  0.00    -0.358 C  
HETATM   54  O   UNL     1     -11.922  15.848  63.805  1.00  0.00    -1.238 OA 
HETATM   55  H   UNL     1     -11.355  16.513  63.431  1.00  0.00     0.000 HD 
ENDBRANCH  52  53
ENDBRANCH  50  52
ENDBRANCH  49  50
ENDBRANCH  46  49
ENDBRANCH  39  40
ENDBRANCH  26  39
ENDBRANCH  15  16
ENDBRANCH   6  15
ENDBRANCH   2   4
TORSDOF 13
ENDMDL
MODEL       28
REMARK 921   NORMALIZED FREE ENERGY PREDICTED BY IDOCK:   -4.77 KCAL/MOL
REMARK 922        TOTAL FREE ENERGY PREDICTED BY IDOCK:  -11.86 KCAL/MOL
REMARK 923 INTER-LIGAND FREE ENERGY PREDICTED BY IDOCK:   -9.69 KCAL/MOL
REMARK 924 INTRA-LIGAND FREE ENERGY PREDICTED BY IDOCK:   -2.17 KCAL/MOL
REMARK 927      BINDING AFFINITY PREDICTED BY RF-SCORE:    0.00 PKD
ROOT
HETATM    1  C   UNL     1     -10.012  17.521  68.686  1.00  0.00    -0.347 C  
HETATM    2  N   UNL     1     -11.359  16.963  68.745  1.00  0.00    -0.154 NA 
HETATM    3  H   UNL     1     -11.824  17.076  67.843  1.00  0.00     0.000 HD 
ENDROOT
BRANCH   2   4
HETATM    4  C   UNL     1     -11.450  15.540  69.191  1.00  0.00    -0.348 C  
HETATM    5  C   UNL     1     -11.887  14.588  68.050  1.00  0.00    -0.315 C  
HETATM    6  C   UNL     1     -11.793  13.123  68.531  1.00  0.00    -0.342 C  
HETATM    7  O   UNL     1     -11.105  14.800  66.872  1.00  0.00    -0.324 OA 
HETATM    8  H   UNL     1     -11.374  14.216  66.173  1.00  0.00     0.000 HD 
HETATM    9  O   UNL     1     -13.634  15.650  70.330  1.00  0.00    -0.805 OA 
HETATM   10  O   UNL     1     -12.670  12.945  69.644  1.00  0.00     0.202 OA 
HETATM   11  H   UNL     1     -14.131  15.464  71.118  1.00  0.00     0.000 HD 
HETATM   12  C   UNL     1     -12.264  13.719  70.785  1.00  0.00    -0.363 C  
HETATM   13  C   UNL     1     -11.708  15.973  71.710  1.00  0.00    -0.593 C  
HETATM   14  C   UNL     1     -12.269  15.234  70.489  1.00  0.00    -0.371 C  
BRANCH   6  15
HETATM   15  O   UNL     1     -10.446  12.788  68.875  1.00  0.00    -0.187 OA 
BRANCH  15  16
HETATM   16  C   UNL     1     -10.019  11.455  68.545  1.00  0.00    -0.201 C  
HETATM   17  H1  UNL     1      -7.092  10.655  65.277  1.00  0.00     0.000 HD 
HETATM   18  C   UNL     1     -10.638  10.894  67.245  1.00  0.00    -0.251 C  
HETATM   19  C   UNL     1      -8.471  11.498  68.432  1.00  0.00    -0.159 C  
HETATM   20  H2  UNL     1      -8.554  10.300  64.514  1.00  0.00     0.000 HD 
HETATM   21  C   UNL     1      -8.669  11.855  65.889  1.00  0.00     0.134 C  
HETATM   22  C   UNL     1     -10.198  11.757  66.049  1.00  0.00    -0.265 C  
HETATM   23  O   UNL     1      -7.941  10.155  68.380  1.00  0.00    -0.098 OA 
HETATM   24  H   UNL     1      -6.994  10.182  68.310  1.00  0.00     0.000 HD 
HETATM   25  N   UNL     1      -8.104  10.591  65.383  1.00  0.00    -0.156 NA 
HETATM   26  C   UNL     1      -7.996  12.336  67.210  1.00  0.00    -0.177 C  
BRANCH  18  27
HETATM   27  N   UNL     1     -10.329   9.475  67.068  1.00  0.00    -0.250 N  
HETATM   28  H   UNL     1      -9.944   9.169  66.174  1.00  0.00     0.000 HD 
HETATM   29  C   UNL     1     -10.531   8.533  68.051  1.00  0.00    -0.191 C  
HETATM   30  O   UNL     1     -10.961   8.791  69.170  1.00  0.00    -0.113 OA 
BRANCH  29  31
HETATM   31  C   UNL     1     -10.141   7.103  67.643  1.00  0.00    -0.180 C  
HETATM   32  H   UNL     1     -11.040   5.508  66.905  1.00  0.00     0.000 HD 
HETATM   33  O   UNL     1     -11.281   6.392  67.157  1.00  0.00    -0.370 OA 
BRANCH  31  34
HETATM   34  C   UNL     1      -9.073   7.117  66.549  1.00  0.00    -0.182 C  
BRANCH  34  35
HETATM   35  C   UNL     1      -7.690   6.774  67.101  1.00  0.00    -0.104 C  
HETATM   36  H1  UNL     1      -6.574   7.162  68.777  1.00  0.00     0.000 HD 
HETATM   37  H2  UNL     1      -8.239   7.139  69.061  1.00  0.00     0.000 HD 
HETATM   38  N   UNL     1      -7.497   7.390  68.409  1.00  0.00    -0.103 NA 
ENDBRANCH  34  35
ENDBRANCH  31  34
ENDBRANCH  29  31
ENDBRANCH  18  27
BRANCH  26  39
HETATM   39  O   UNL     1      -8.302  13.727  67.296  1.00  0.00    -0.180 OA 
BRANCH  39  40
HETATM   40  C   UNL     1      -7.220  14.660  67.364  1.00  0.00    -0.154 C  
HETATM   41  H1  UNL     1      -7.779  14.906  70.788  1.00  0.00     0.000 HD 
HETATM   42  O   UNL     1      -7.549  15.896  66.723  1.00  0.00    -0.226 OA 
HETATM   43  H2  UNL     1      -8.571  13.962  69.657  1.00  0.00     0.000 HD 
HETATM   44  N   UNL     1      -8.015  14.804  69.801  1.00  0.00     0.050 NA 
HETATM   45  C   UNL     1      -6.857  14.817  68.879  1.00  0.00    -0.105 C  
HETATM   46  C   UNL     1      -6.592  16.884  66.891  1.00  0.00    -0.214 C  
HETATM   47  C   UNL     1      -5.919  16.006  69.128  1.00  0.00    -0.127 C  
HETATM   48  C   UNL     1      -5.817  16.956  67.983  1.00  0.00    -0.126 C  
BRANCH  46  49
HETATM   49  C   UNL     1      -6.514  17.905  65.778  1.00  0.00    -0.228 C  
BRANCH  49  50
HETATM   50  N   UNL     1      -7.763  18.647  65.583  1.00  0.00    -0.467 NA 
HETATM   51  H   UNL     1      -8.536  18.216  66.089  1.00  0.00     0.000 HD 
BRANCH  50  52
HETATM   52  C   UNL     1      -7.609  20.068  65.942  1.00  0.00    -0.300 C  
BRANCH  52  53
HETATM   53  C   UNL     1      -8.351  20.385  67.243  1.00  0.00    -0.335 C  
HETATM   54  O   UNL     1      -9.541  21.121  66.976  1.00  0.00    -0.664 OA 
HETATM   55  H   UNL     1     -10.001  21.319  67.784  1.00  0.00     0.000 HD 
ENDBRANCH  52  53
ENDBRANCH  50  52
ENDBRANCH  49  50
ENDBRANCH  46  49
ENDBRANCH  39  40
ENDBRANCH  26  39
ENDBRANCH  15  16
ENDBRANCH   6  15
ENDBRANCH   2   4
TORSDOF 13
ENDMDL
MODEL       29
REMARK 921   NORMALIZED FREE ENERGY PREDICTED BY IDOCK:   -4.76 KCAL/MOL
REMARK 922        TOTAL FREE ENERGY PREDICTED BY IDOCK:  -11.85 KCAL/MOL
REMARK 923 INTER-LIGAND FREE ENERGY PREDICTED BY IDOCK:  -10.31 KCAL/MOL
REMARK 924 INTRA-LIGAND FREE ENERGY PREDICTED BY IDOCK:   -1.53 KCAL/MOL
REMARK 927      BINDING AFFINITY PREDICTED BY RF-SCORE:    0.00 PKD
ROOT
HETATM    1  C   UNL     1     -10.603   9.632  67.554  1.00  0.00    -0.277 C  
HETATM    2  N   UNL     1      -9.155   9.562  67.383  1.00  0.00    -0.130 NA 
HETATM    3  H   UNL     1      -8.927   9.406  66.401  1.00  0.00     0.000 HD 
ENDROOT
BRANCH   2   4
HETATM    4  C   UNL     1      -8.387  10.732  67.905  1.00  0.00    -0.117 C  
HETATM    5  C   UNL     1      -7.847  11.641  66.771  1.00  0.00    -0.130 C  
HETATM    6  C   UNL     1      -7.217  12.913  67.381  1.00  0.00    -0.126 C  
HETATM    7  O   UNL     1      -8.878  11.967  65.837  1.00  0.00    -0.403 OA 
HETATM    8  H   UNL     1      -8.547  12.524  65.142  1.00  0.00     0.000 HD 
HETATM    9  O   UNL     1      -6.259   9.587  68.396  1.00  0.00    -0.048 OA 
HETATM   10  O   UNL     1      -6.130  12.531  68.225  1.00  0.00    -0.057 OA 
HETATM   11  H   UNL     1      -5.574   9.417  69.032  1.00  0.00     0.000 HD 
HETATM   12  C   UNL     1      -6.568  11.772  69.365  1.00  0.00    -0.113 C  
HETATM   13  C   UNL     1      -7.801   9.772  70.214  1.00  0.00    -0.190 C  
HETATM   14  C   UNL     1      -7.259  10.454  68.953  1.00  0.00    -0.082 C  
BRANCH   6  15
HETATM   15  O   UNL     1      -8.194  13.666  68.104  1.00  0.00    -0.140 OA 
BRANCH  15  16
HETATM   16  C   UNL     1      -8.197  15.086  67.876  1.00  0.00    -0.141 C  
HETATM   17  H1  UNL     1     -11.919  17.520  68.213  1.00  0.00     0.000 HD 
HETATM   18  C   UNL     1      -8.818  15.510  66.526  1.00  0.00    -0.313 C  
HETATM   19  C   UNL     1      -8.981  15.724  69.056  1.00  0.00    -0.246 C  
HETATM   20  H2  UNL     1     -11.795  17.323  66.543  1.00  0.00     0.000 HD 
HETATM   21  C   UNL     1     -11.133  15.688  67.642  1.00  0.00    -0.305 C  
HETATM   22  C   UNL     1     -10.301  15.100  66.487  1.00  0.00    -0.286 C  
HETATM   23  O   UNL     1      -8.795  17.156  69.055  1.00  0.00    -0.220 OA 
HETATM   24  H   UNL     1      -9.275  17.547  69.777  1.00  0.00     0.000 HD 
HETATM   25  N   UNL     1     -11.368  17.131  67.449  1.00  0.00     0.244 NA 
HETATM   26  C   UNL     1     -10.493  15.355  69.023  1.00  0.00    -0.249 C  
BRANCH  18  27
HETATM   27  N   UNL     1      -8.614  16.935  66.262  1.00  0.00    -0.288 N  
HETATM   28  H   UNL     1      -9.434  17.536  66.178  1.00  0.00     0.000 HD 
HETATM   29  C   UNL     1      -7.368  17.503  66.122  1.00  0.00    -0.311 C  
HETATM   30  O   UNL     1      -6.316  16.883  66.232  1.00  0.00    -0.234 OA 
BRANCH  29  31
HETATM   31  C   UNL     1      -7.392  19.014  65.843  1.00  0.00    -0.239 C  
HETATM   32  H   UNL     1      -8.725  20.470  65.848  1.00  0.00     0.000 HD 
HETATM   33  O   UNL     1      -8.710  19.536  66.021  1.00  0.00    -0.387 OA 
BRANCH  31  34
HETATM   34  C   UNL     1      -6.442  19.760  66.779  1.00  0.00    -0.202 C  
BRANCH  34  35
HETATM   35  C   UNL     1      -7.192  20.449  67.920  1.00  0.00    -0.276 C  
HETATM   36  H1  UNL     1      -7.580  20.129  69.907  1.00  0.00     0.000 HD 
HETATM   37  H2  UNL     1      -6.107  19.483  69.390  1.00  0.00     0.000 HD 
HETATM   38  N   UNL     1      -7.079  19.670  69.147  1.00  0.00    -0.355 NA 
ENDBRANCH  34  35
ENDBRANCH  31  34
ENDBRANCH  29  31
ENDBRANCH  18  27
BRANCH  26  39
HETATM   39  O   UNL     1     -10.764  13.970  69.233  1.00  0.00    -0.210 OA 
BRANCH  39  40
HETATM   40  C   UNL     1     -11.966  13.607  69.919  1.00  0.00    -0.348 C  
HETATM   41  H1  UNL     1     -11.220  16.030  72.300  1.00  0.00     0.000 HD 
HETATM   42  O   UNL     1     -11.868  12.302  70.499  1.00  0.00    -0.277 OA 
HETATM   43  H2  UNL     1     -10.374  15.618  70.917  1.00  0.00     0.000 HD 
HETATM   44  N   UNL     1     -11.039  15.293  71.619  1.00  0.00    -0.292 NA 
HETATM   45  C   UNL     1     -12.245  14.739  70.964  1.00  0.00    -0.329 C  
HETATM   46  C   UNL     1     -12.947  11.965  71.299  1.00  0.00    -0.236 C  
HETATM   47  C   UNL     1     -13.331  14.338  71.973  1.00  0.00    -0.484 C  
HETATM   48  C   UNL     1     -13.649  12.881  71.983  1.00  0.00    -0.499 C  
BRANCH  46  49
HETATM   49  C   UNL     1     -13.251  10.487  71.387  1.00  0.00    -0.345 C  
BRANCH  49  50
HETATM   50  N   UNL     1     -12.266   9.650  70.695  1.00  0.00    -0.450 NA 
HETATM   51  H   UNL     1     -11.667  10.206  70.085  1.00  0.00     0.000 HD 
BRANCH  50  52
HETATM   52  C   UNL     1     -11.474   8.851  71.647  1.00  0.00    -0.339 C  
BRANCH  52  53
HETATM   53  C   UNL     1     -11.327   7.408  71.158  1.00  0.00    -0.268 C  
HETATM   54  O   UNL     1     -12.514   6.977  70.498  1.00  0.00    -0.617 OA 
HETATM   55  H   UNL     1     -12.423   6.082  70.195  1.00  0.00     0.000 HD 
ENDBRANCH  52  53
ENDBRANCH  50  52
ENDBRANCH  49  50
ENDBRANCH  46  49
ENDBRANCH  39  40
ENDBRANCH  26  39
ENDBRANCH  15  16
ENDBRANCH   6  15
ENDBRANCH   2   4
TORSDOF 13
ENDMDL
MODEL       30
REMARK 921   NORMALIZED FREE ENERGY PREDICTED BY IDOCK:   -4.74 KCAL/MOL
REMARK 922        TOTAL FREE ENERGY PREDICTED BY IDOCK:  -11.80 KCAL/MOL
REMARK 923 INTER-LIGAND FREE ENERGY PREDICTED BY IDOCK:   -9.56 KCAL/MOL
REMARK 924 INTRA-LIGAND FREE ENERGY PREDICTED BY IDOCK:   -2.23 KCAL/MOL
REMARK 927      BINDING AFFINITY PREDICTED BY RF-SCORE:    0.00 PKD
ROOT
HETATM    1  C   UNL     1      -6.633   7.709  63.276  1.00  0.00    -0.059 C  
HETATM    2  N   UNL     1      -5.797   7.085  64.297  1.00  0.00    -0.036 NA 
HETATM    3  H   UNL     1      -4.979   7.666  64.482  1.00  0.00     0.000 HD 
ENDROOT
BRANCH   2   4
HETATM    4  C   UNL     1      -6.486   6.753  65.581  1.00  0.00    -0.050 C  
HETATM    5  C   UNL     1      -5.887   7.514  66.790  1.00  0.00    -0.039 C  
HETATM    6  C   UNL     1      -6.752   7.258  68.045  1.00  0.00    -0.058 C  
HETATM    7  O   UNL     1      -5.772   8.912  66.514  1.00  0.00    -0.045 OA 
HETATM    8  H   UNL     1      -5.404   9.378  67.256  1.00  0.00     0.000 HD 
HETATM    9  O   UNL     1      -5.398   4.587  66.033  1.00  0.00    -0.009 OA 
HETATM   10  O   UNL     1      -6.747   5.858  68.331  1.00  0.00    -0.056 OA 
HETATM   11  H   UNL     1      -5.511   3.669  66.249  1.00  0.00     0.000 HD 
HETATM   12  C   UNL     1      -7.388   5.091  67.298  1.00  0.00    -0.082 C  
HETATM   13  C   UNL     1      -7.487   4.495  64.873  1.00  0.00    -0.073 C  
HETATM   14  C   UNL     1      -6.673   5.240  65.937  1.00  0.00    -0.053 C  
BRANCH   6  15
HETATM   15  O   UNL     1      -8.083   7.743  67.851  1.00  0.00    -0.122 OA 
BRANCH  15  16
HETATM   16  C   UNL     1      -8.980   7.596  68.965  1.00  0.00    -0.137 C  
HETATM   17  H1  UNL     1     -12.018  10.702  69.971  1.00  0.00     0.000 HD 
HETATM   18  C   UNL     1      -8.626   8.477  70.185  1.00  0.00    -0.132 C  
HETATM   19  C   UNL     1     -10.401   7.944  68.441  1.00  0.00    -0.199 C  
HETATM   20  H2  UNL     1     -10.801  11.047  71.087  1.00  0.00     0.000 HD 
HETATM   21  C   UNL     1     -10.102  10.371  69.250  1.00  0.00    -0.230 C  
HETATM   22  C   UNL     1      -8.720   9.963  69.794  1.00  0.00    -0.229 C  
HETATM   23  O   UNL     1     -11.395   7.556  69.414  1.00  0.00    -0.451 OA 
HETATM   24  H   UNL     1     -12.264   7.769  69.094  1.00  0.00     0.000 HD 
HETATM   25  N   UNL     1     -11.103  10.432  70.331  1.00  0.00    -0.311 NA 
HETATM   26  C   UNL     1     -10.536   9.449  68.070  1.00  0.00    -0.226 C  
BRANCH  18  27
HETATM   27  N   UNL     1      -9.446   8.141  71.349  1.00  0.00    -0.157 N  
HETATM   28  H   UNL     1     -10.459   8.235  71.274  1.00  0.00     0.000 HD 
HETATM   29  C   UNL     1      -8.916   7.703  72.542  1.00  0.00    -0.142 C  
HETATM   30  O   UNL     1      -7.719   7.527  72.736  1.00  0.00    -0.085 OA 
BRANCH  29  31
HETATM   31  C   UNL     1      -9.964   7.416  73.629  1.00  0.00    -0.328 C  
HETATM   32  H   UNL     1     -11.920   7.579  73.840  1.00  0.00     0.000 HD 
HETATM   33  O   UNL     1     -11.272   7.757  73.168  1.00  0.00    -0.402 OA 
BRANCH  31  34
HETATM   34  C   UNL     1      -9.955   5.938  74.021  1.00  0.00    -0.227 C  
BRANCH  34  35
HETATM   35  C   UNL     1     -10.932   5.120  73.176  1.00  0.00    -0.307 C  
HETATM   36  H1  UNL     1     -11.680   3.212  73.123  1.00  0.00     0.000 HD 
HETATM   37  H2  UNL     1     -11.275   3.740  74.676  1.00  0.00     0.000 HD 
HETATM   38  N   UNL     1     -11.029   3.758  73.687  1.00  0.00    -0.240 NA 
ENDBRANCH  34  35
ENDBRANCH  31  34
ENDBRANCH  29  31
ENDBRANCH  18  27
BRANCH  26  39
HETATM   39  O   UNL     1      -9.731   9.857  66.966  1.00  0.00    -0.168 OA 
BRANCH  39  40
HETATM   40  C   UNL     1     -10.380  10.396  65.811  1.00  0.00    -0.187 C  
HETATM   41  H1  UNL     1      -7.314  10.317  64.173  1.00  0.00     0.000 HD 
HETATM   42  O   UNL     1     -10.791  11.751  66.021  1.00  0.00    -0.277 OA 
HETATM   43  H2  UNL     1      -7.689   9.829  65.729  1.00  0.00     0.000 HD 
HETATM   44  N   UNL     1      -7.961  10.432  64.953  1.00  0.00    -0.143 NA 
HETATM   45  C   UNL     1      -9.386  10.220  64.615  1.00  0.00    -0.266 C  
HETATM   46  C   UNL     1     -11.289  12.365  64.884  1.00  0.00    -0.317 C  
HETATM   47  C   UNL     1      -9.824  11.018  63.378  1.00  0.00    -0.404 C  
HETATM   48  C   UNL     1     -10.872  12.043  63.651  1.00  0.00    -0.510 C  
BRANCH  46  49
HETATM   49  C   UNL     1     -12.303  13.460  65.132  1.00  0.00    -0.456 C  
BRANCH  49  50
HETATM   50  N   UNL     1     -11.892  14.407  66.173  1.00  0.00    -0.390 NA 
HETATM   51  H   UNL     1     -11.680  13.930  67.049  1.00  0.00     0.000 HD 
BRANCH  50  52
HETATM   52  C   UNL     1     -10.763  15.241  65.727  1.00  0.00    -0.348 C  
BRANCH  52  53
HETATM   53  C   UNL     1     -11.261  16.565  65.140  1.00  0.00    -0.027 C  
HETATM   54  O   UNL     1     -11.517  16.431  63.745  1.00  0.00    -1.590 OA 
HETATM   55  H   UNL     1     -11.826  17.252  63.380  1.00  0.00     0.000 HD 
ENDBRANCH  52  53
ENDBRANCH  50  52
ENDBRANCH  49  50
ENDBRANCH  46  49
ENDBRANCH  39  40
ENDBRANCH  26  39
ENDBRANCH  15  16
ENDBRANCH   6  15
ENDBRANCH   2   4
TORSDOF 13
ENDMDL
MODEL       31
REMARK 921   NORMALIZED FREE ENERGY PREDICTED BY IDOCK:   -4.72 KCAL/MOL
REMARK 922        TOTAL FREE ENERGY PREDICTED BY IDOCK:  -11.77 KCAL/MOL
REMARK 923 INTER-LIGAND FREE ENERGY PREDICTED BY IDOCK:   -9.58 KCAL/MOL
REMARK 924 INTRA-LIGAND FREE ENERGY PREDICTED BY IDOCK:   -2.19 KCAL/MOL
REMARK 927      BINDING AFFINITY PREDICTED BY RF-SCORE:    0.00 PKD
ROOT
HETATM    1  C   UNL     1     -10.566   5.559  66.285  1.00  0.00    -0.161 C  
HETATM    2  N   UNL     1      -9.276   6.006  65.769  1.00  0.00    -0.333 NA 
HETATM    3  H   UNL     1      -9.319   6.101  64.754  1.00  0.00     0.000 HD 
ENDROOT
BRANCH   2   4
HETATM    4  C   UNL     1      -8.737   7.259  66.377  1.00  0.00    -0.142 C  
HETATM    5  C   UNL     1      -8.176   8.240  65.317  1.00  0.00    -0.148 C  
HETATM    6  C   UNL     1      -7.798   9.576  65.993  1.00  0.00    -0.100 C  
HETATM    7  O   UNL     1      -9.111   8.440  64.254  1.00  0.00    -0.233 OA 
HETATM    8  H   UNL     1      -8.766   9.041  63.603  1.00  0.00     0.000 HD 
HETATM    9  O   UNL     1      -6.562   6.390  67.148  1.00  0.00    -0.054 OA 
HETATM   10  O   UNL     1      -6.789   9.329  66.974  1.00  0.00    -0.078 OA 
HETATM   11  H   UNL     1      -5.949   6.304  67.869  1.00  0.00     0.000 HD 
HETATM   12  C   UNL     1      -7.270   8.510  68.053  1.00  0.00    -0.087 C  
HETATM   13  C   UNL     1      -8.337   6.360  68.750  1.00  0.00    -0.121 C  
HETATM   14  C   UNL     1      -7.728   7.118  67.565  1.00  0.00    -0.111 C  
BRANCH   6  15
HETATM   15  O   UNL     1      -8.948  10.192  66.578  1.00  0.00    -0.142 OA 
BRANCH  15  16
HETATM   16  C   UNL     1      -8.839  11.596  66.866  1.00  0.00    -0.190 C  
HETATM   17  H1  UNL     1     -11.679  13.667  69.612  1.00  0.00     0.000 HD 
HETATM   18  C   UNL     1      -9.900  12.472  66.161  1.00  0.00    -0.258 C  
HETATM   19  C   UNL     1      -8.955  11.744  68.408  1.00  0.00    -0.168 C  
HETATM   20  H2  UNL     1     -12.296  14.097  68.103  1.00  0.00     0.000 HD 
HETATM   21  C   UNL     1     -11.481  12.186  68.174  1.00  0.00    -0.317 C  
HETATM   22  C   UNL     1     -11.305  12.076  66.648  1.00  0.00    -0.399 C  
HETATM   23  O   UNL     1      -8.579  13.081  68.806  1.00  0.00    -0.367 OA 
HETATM   24  H   UNL     1      -8.650  13.172  69.749  1.00  0.00     0.000 HD 
HETATM   25  N   UNL     1     -11.562  13.594  68.602  1.00  0.00    -0.305 NA 
HETATM   26  C   UNL     1     -10.377  11.383  68.927  1.00  0.00    -0.184 C  
BRANCH  18  27
HETATM   27  N   UNL     1      -9.619  13.899  66.329  1.00  0.00    -0.382 N  
HETATM   28  H   UNL     1      -8.965  14.182  67.059  1.00  0.00     0.000 HD 
HETATM   29  C   UNL     1     -10.195  14.876  65.550  1.00  0.00    -0.374 C  
HETATM   30  O   UNL     1     -10.972  14.649  64.628  1.00  0.00    -0.378 OA 
BRANCH  29  31
HETATM   31  C   UNL     1      -9.760  16.306  65.908  1.00  0.00    -0.321 C  
HETATM   32  H   UNL     1     -10.296  17.708  67.190  1.00  0.00     0.000 HD 
HETATM   33  O   UNL     1     -10.565  16.824  66.969  1.00  0.00    -0.305 OA 
BRANCH  31  34
HETATM   34  C   UNL     1      -8.296  16.339  66.347  1.00  0.00    -0.365 C  
BRANCH  34  35
HETATM   35  C   UNL     1      -8.114  17.095  67.663  1.00  0.00    -0.179 C  
HETATM   36  H1  UNL     1      -7.662  16.671  69.618  1.00  0.00     0.000 HD 
HETATM   37  H2  UNL     1      -6.969  15.598  68.513  1.00  0.00     0.000 HD 
HETATM   38  N   UNL     1      -7.783  16.168  68.739  1.00  0.00    -0.186 NA 
ENDBRANCH  34  35
ENDBRANCH  31  34
ENDBRANCH  29  31
ENDBRANCH  18  27
BRANCH  26  39
HETATM   39  O   UNL     1     -10.734  10.013  68.757  1.00  0.00    -0.207 OA 
BRANCH  39  40
HETATM   40  C   UNL     1     -10.542   9.117  69.856  1.00  0.00    -0.230 C  
HETATM   41  H1  UNL     1     -13.312  10.559  71.386  1.00  0.00     0.000 HD 
HETATM   42  O   UNL     1      -9.355   9.432  70.591  1.00  0.00    -0.248 OA 
HETATM   43  H2  UNL     1     -12.633  10.905  69.896  1.00  0.00     0.000 HD 
HETATM   44  N   UNL     1     -12.461  10.520  70.825  1.00  0.00    -0.348 NA 
HETATM   45  C   UNL     1     -11.847   9.177  70.717  1.00  0.00    -0.227 C  
HETATM   46  C   UNL     1      -9.203   8.689  71.751  1.00  0.00    -0.268 C  
HETATM   47  C   UNL     1     -11.670   8.499  72.083  1.00  0.00    -0.448 C  
HETATM   48  C   UNL     1     -10.250   8.235  72.456  1.00  0.00    -0.386 C  
BRANCH  46  49
HETATM   49  C   UNL     1      -7.775   8.466  72.194  1.00  0.00    -0.115 C  
BRANCH  49  50
HETATM   50  N   UNL     1      -6.794   8.705  71.132  1.00  0.00    -0.064 NA 
HETATM   51  H   UNL     1      -7.247   8.960  70.255  1.00  0.00     0.000 HD 
BRANCH  50  52
HETATM   52  C   UNL     1      -5.797   9.713  71.536  1.00  0.00    -0.024 C  
BRANCH  52  53
HETATM   53  C   UNL     1      -5.550  10.718  70.408  1.00  0.00    -0.092 C  
HETATM   54  O   UNL     1      -6.329  11.896  70.606  1.00  0.00    -0.533 OA 
HETATM   55  H   UNL     1      -6.176  12.520  69.906  1.00  0.00     0.000 HD 
ENDBRANCH  52  53
ENDBRANCH  50  52
ENDBRANCH  49  50
ENDBRANCH  46  49
ENDBRANCH  39  40
ENDBRANCH  26  39
ENDBRANCH  15  16
ENDBRANCH   6  15
ENDBRANCH   2   4
TORSDOF 13
ENDMDL
MODEL       32
REMARK 921   NORMALIZED FREE ENERGY PREDICTED BY IDOCK:   -4.72 KCAL/MOL
REMARK 922        TOTAL FREE ENERGY PREDICTED BY IDOCK:  -11.76 KCAL/MOL
REMARK 923 INTER-LIGAND FREE ENERGY PREDICTED BY IDOCK:   -8.64 KCAL/MOL
REMARK 924 INTRA-LIGAND FREE ENERGY PREDICTED BY IDOCK:   -3.12 KCAL/MOL
REMARK 927      BINDING AFFINITY PREDICTED BY RF-SCORE:    0.00 PKD
ROOT
HETATM    1  C   UNL     1     -11.971  13.357  67.768  1.00  0.00    -0.324 C  
HETATM    2  N   UNL     1     -10.856  13.511  66.840  1.00  0.00    -0.281 NA 
HETATM    3  H   UNL     1     -10.050  13.907  67.324  1.00  0.00     0.000 HD 
ENDROOT
BRANCH   2   4
HETATM    4  C   UNL     1     -10.453  12.274  66.106  1.00  0.00    -0.240 C  
HETATM    5  C   UNL     1      -8.999  11.842  66.424  1.00  0.00    -0.180 C  
HETATM    6  C   UNL     1      -8.709  10.472  65.772  1.00  0.00    -0.177 C  
HETATM    7  O   UNL     1      -8.769  11.807  67.835  1.00  0.00    -0.150 OA 
HETATM    8  H   UNL     1      -7.877  11.542  68.029  1.00  0.00     0.000 HD 
HETATM    9  O   UNL     1      -9.979  13.287  63.908  1.00  0.00    -0.753 OA 
HETATM   10  O   UNL     1      -8.856  10.594  64.356  1.00  0.00    -0.190 OA 
HETATM   11  H   UNL     1     -10.129  13.260  62.970  1.00  0.00     0.000 HD 
HETATM   12  C   UNL     1     -10.210  10.888  63.974  1.00  0.00    -0.357 C  
HETATM   13  C   UNL     1     -12.181  12.405  64.210  1.00  0.00    -0.538 C  
HETATM   14  C   UNL     1     -10.699  12.230  64.561  1.00  0.00    -0.319 C  
BRANCH   6  15
HETATM   15  O   UNL     1      -9.579   9.466  66.298  1.00  0.00    -0.193 OA 
BRANCH  15  16
HETATM   16  C   UNL     1      -9.327   8.119  65.863  1.00  0.00    -0.056 C  
HETATM   17  H1  UNL     1      -8.996   4.732  68.746  1.00  0.00     0.000 HD 
HETATM   18  C   UNL     1      -7.885   7.628  66.122  1.00  0.00    -0.096 C  
HETATM   19  C   UNL     1     -10.348   7.213  66.606  1.00  0.00    -0.151 C  
HETATM   20  H2  UNL     1      -7.374   5.063  68.427  1.00  0.00     0.000 HD 
HETATM   21  C   UNL     1      -8.597   6.743  68.435  1.00  0.00    -0.125 C  
HETATM   22  C   UNL     1      -7.608   7.613  67.636  1.00  0.00    -0.109 C  
HETATM   23  O   UNL     1     -10.352   5.892  66.023  1.00  0.00    -0.424 OA 
HETATM   24  H   UNL     1     -10.976   5.338  66.477  1.00  0.00     0.000 HD 
HETATM   25  N   UNL     1      -8.341   5.308  68.218  1.00  0.00    -0.097 NA 
HETATM   26  C   UNL     1     -10.072   7.151  68.136  1.00  0.00    -0.169 C  
BRANCH  18  27
HETATM   27  N   UNL     1      -7.633   6.335  65.484  1.00  0.00    -0.083 N  
HETATM   28  H   UNL     1      -8.375   5.636  65.491  1.00  0.00     0.000 HD 
HETATM   29  C   UNL     1      -6.441   6.018  64.873  1.00  0.00    -0.038 C  
HETATM   30  O   UNL     1      -5.492   6.788  64.780  1.00  0.00    -0.026 OA 
BRANCH  29  31
HETATM   31  C   UNL     1      -6.396   4.602  64.275  1.00  0.00    -0.033 C  
HETATM   32  H   UNL     1      -5.717   2.825  64.800  1.00  0.00     0.000 HD 
HETATM   33  O   UNL     1      -5.744   3.700  65.170  1.00  0.00    -0.020 OA 
BRANCH  31  34
HETATM   34  C   UNL     1      -7.806   4.080  63.998  1.00  0.00    -0.084 C  
BRANCH  34  35
HETATM   35  C   UNL     1      -8.055   2.731  64.673  1.00  0.00    -0.086 C  
HETATM   36  H1  UNL     1      -9.342   1.928  66.052  1.00  0.00     0.000 HD 
HETATM   37  H2  UNL     1     -10.016   3.186  65.148  1.00  0.00     0.000 HD 
HETATM   38  N   UNL     1      -9.176   2.827  65.602  1.00  0.00    -0.135 NA 
ENDBRANCH  34  35
ENDBRANCH  31  34
ENDBRANCH  29  31
ENDBRANCH  18  27
BRANCH  26  39
HETATM   39  O   UNL     1     -10.259   8.390  68.818  1.00  0.00    -0.199 OA 
BRANCH  39  40
HETATM   40  C   UNL     1     -11.156   8.425  69.932  1.00  0.00    -0.108 C  
HETATM   41  H1  UNL     1     -11.106  11.897  69.733  1.00  0.00     0.000 HD 
HETATM   42  O   UNL     1     -10.516   7.993  71.137  1.00  0.00    -0.197 OA 
HETATM   43  H2  UNL     1     -10.326  10.775  68.766  1.00  0.00     0.000 HD 
HETATM   44  N   UNL     1     -10.740  10.946  69.683  1.00  0.00    -0.218 NA 
HETATM   45  C   UNL     1     -11.718   9.884  70.009  1.00  0.00    -0.124 C  
HETATM   46  C   UNL     1     -11.296   8.151  72.271  1.00  0.00    -0.364 C  
HETATM   47  C   UNL     1     -12.457  10.149  71.328  1.00  0.00    -0.510 C  
HETATM   48  C   UNL     1     -12.207   9.128  72.386  1.00  0.00    -0.263 C  
BRANCH  46  49
HETATM   49  C   UNL     1     -11.016   7.174  73.391  1.00  0.00    -0.236 C  
BRANCH  49  50
HETATM   50  N   UNL     1     -11.359   5.790  73.053  1.00  0.00    -0.459 NA 
HETATM   51  H   UNL     1     -11.669   5.708  72.085  1.00  0.00     0.000 HD 
BRANCH  50  52
HETATM   52  C   UNL     1     -10.243   4.872  73.340  1.00  0.00    -0.173 C  
BRANCH  52  53
HETATM   53  C   UNL     1      -9.308   4.755  72.133  1.00  0.00    -0.136 C  
HETATM   54  O   UNL     1     -10.041   4.876  70.916  1.00  0.00    -0.213 OA 
HETATM   55  H   UNL     1      -9.461   4.803  70.167  1.00  0.00     0.000 HD 
ENDBRANCH  52  53
ENDBRANCH  50  52
ENDBRANCH  49  50
ENDBRANCH  46  49
ENDBRANCH  39  40
ENDBRANCH  26  39
ENDBRANCH  15  16
ENDBRANCH   6  15
ENDBRANCH   2   4
TORSDOF 13
ENDMDL
MODEL       33
REMARK 921   NORMALIZED FREE ENERGY PREDICTED BY IDOCK:   -4.67 KCAL/MOL
REMARK 922        TOTAL FREE ENERGY PREDICTED BY IDOCK:  -11.69 KCAL/MOL
REMARK 923 INTER-LIGAND FREE ENERGY PREDICTED BY IDOCK:   -8.78 KCAL/MOL
REMARK 924 INTRA-LIGAND FREE ENERGY PREDICTED BY IDOCK:   -2.91 KCAL/MOL
REMARK 927      BINDING AFFINITY PREDICTED BY RF-SCORE:    0.00 PKD
ROOT
HETATM    1  C   UNL     1     -11.920  12.779  70.179  1.00  0.00    -0.296 C  
HETATM    2  N   UNL     1     -10.730  13.030  69.372  1.00  0.00    -0.431 NA 
HETATM    3  H   UNL     1      -9.898  13.018  69.962  1.00  0.00     0.000 HD 
ENDROOT
BRANCH   2   4
HETATM    4  C   UNL     1     -10.539  12.120  68.203  1.00  0.00    -0.216 C  
HETATM    5  C   UNL     1      -9.247  11.272  68.316  1.00  0.00    -0.176 C  
HETATM    6  C   UNL     1      -9.202  10.237  67.169  1.00  0.00    -0.145 C  
HETATM    7  O   UNL     1      -9.156  10.638  69.594  1.00  0.00    -0.402 OA 
HETATM    8  H   UNL     1      -8.364  10.118  69.663  1.00  0.00     0.000 HD 
HETATM    9  O   UNL     1      -9.665  13.768  66.590  1.00  0.00    -0.271 OA 
HETATM   10  O   UNL     1      -9.192  10.931  65.921  1.00  0.00    -0.178 OA 
HETATM   11  H   UNL     1      -9.732  14.144  65.721  1.00  0.00     0.000 HD 
HETATM   12  C   UNL     1     -10.412  11.658  65.694  1.00  0.00    -0.268 C  
HETATM   13  C   UNL     1     -12.023  13.378  66.525  1.00  0.00    -0.452 C  
HETATM   14  C   UNL     1     -10.651  12.740  66.770  1.00  0.00    -0.252 C  
BRANCH   6  15
HETATM   15  O   UNL     1     -10.311   9.339  67.254  1.00  0.00    -0.232 OA 
BRANCH  15  16
HETATM   16  C   UNL     1     -10.212   8.133  66.477  1.00  0.00    -0.177 C  
HETATM   17  H1  UNL     1      -9.595   4.147  68.381  1.00  0.00     0.000 HD 
HETATM   18  C   UNL     1      -8.777   7.573  66.357  1.00  0.00    -0.145 C  
HETATM   19  C   UNL     1     -11.144   7.090  67.154  1.00  0.00    -0.228 C  
HETATM   20  H2  UNL     1      -8.032   4.522  67.869  1.00  0.00     0.000 HD 
HETATM   21  C   UNL     1      -9.141   6.168  68.485  1.00  0.00    -0.117 C  
HETATM   22  C   UNL     1      -8.252   7.190  67.752  1.00  0.00    -0.115 C  
HETATM   23  O   UNL     1     -11.319   5.948  66.287  1.00  0.00    -0.717 OA 
HETATM   24  H   UNL     1     -11.889   5.310  66.701  1.00  0.00     0.000 HD 
HETATM   25  N   UNL     1      -9.006   4.823  67.895  1.00  0.00    -0.108 NA 
HETATM   26  C   UNL     1     -10.620   6.657  68.553  1.00  0.00    -0.233 C  
BRANCH  18  27
HETATM   27  N   UNL     1      -8.707   6.469  65.399  1.00  0.00    -0.333 N  
HETATM   28  H   UNL     1      -9.345   5.682  65.517  1.00  0.00     0.000 HD 
HETATM   29  C   UNL     1      -7.821   6.442  64.346  1.00  0.00    -0.115 C  
HETATM   30  O   UNL     1      -7.030   7.344  64.092  1.00  0.00    -0.053 OA 
BRANCH  29  31
HETATM   31  C   UNL     1      -7.920   5.182  63.471  1.00  0.00    -0.098 C  
HETATM   32  H   UNL     1      -6.681   3.882  62.653  1.00  0.00     0.000 HD 
HETATM   33  O   UNL     1      -6.620   4.661  63.193  1.00  0.00    -0.026 OA 
BRANCH  31  34
HETATM   34  C   UNL     1      -8.742   4.096  64.166  1.00  0.00    -0.121 C  
BRANCH  34  35
HETATM   35  C   UNL     1      -7.949   2.799  64.327  1.00  0.00    -0.082 C  
HETATM   36  H1  UNL     1      -7.294   1.587  65.846  1.00  0.00     0.000 HD 
HETATM   37  H2  UNL     1      -8.730   2.402  66.200  1.00  0.00     0.000 HD 
HETATM   38  N   UNL     1      -7.823   2.452  65.738  1.00  0.00    -0.080 NA 
ENDBRANCH  34  35
ENDBRANCH  31  34
ENDBRANCH  29  31
ENDBRANCH  18  27
BRANCH  26  39
HETATM   39  O   UNL     1     -10.622   7.697  69.529  1.00  0.00    -0.229 OA 
BRANCH  39  40
HETATM   40  C   UNL     1     -10.030   7.436  70.805  1.00  0.00    -0.182 C  
HETATM   41  H1  UNL     1     -12.789   8.952  72.283  1.00  0.00     0.000 HD 
HETATM   42  O   UNL     1      -8.860   8.232  71.017  1.00  0.00    -0.134 OA 
HETATM   43  H2  UNL     1     -12.473   8.692  70.660  1.00  0.00     0.000 HD 
HETATM   44  N   UNL     1     -12.059   8.800  71.586  1.00  0.00    -0.316 NA 
HETATM   45  C   UNL     1     -11.149   7.669  71.875  1.00  0.00    -0.249 C  
HETATM   46  C   UNL     1      -8.336   8.126  72.295  1.00  0.00    -0.158 C  
HETATM   47  C   UNL     1     -10.583   7.717  73.301  1.00  0.00    -0.411 C  
HETATM   48  C   UNL     1      -9.102   7.879  73.368  1.00  0.00    -0.347 C  
BRANCH  46  49
HETATM   49  C   UNL     1      -6.846   8.357  72.405  1.00  0.00    -0.092 C  
BRANCH  49  50
HETATM   50  N   UNL     1      -6.103   7.931  71.215  1.00  0.00    -0.034 NA 
HETATM   51  H   UNL     1      -6.625   7.238  70.678  1.00  0.00     0.000 HD 
BRANCH  50  52
HETATM   52  C   UNL     1      -5.718   9.082  70.379  1.00  0.00    -0.030 C  
BRANCH  52  53
HETATM   53  C   UNL     1      -5.712  10.374  71.200  1.00  0.00    -0.017 C  
HETATM   54  O   UNL     1      -6.531  11.364  70.584  1.00  0.00    -0.513 OA 
HETATM   55  H   UNL     1      -6.527  12.166  71.093  1.00  0.00     0.000 HD 
ENDBRANCH  52  53
ENDBRANCH  50  52
ENDBRANCH  49  50
ENDBRANCH  46  49
ENDBRANCH  39  40
ENDBRANCH  26  39
ENDBRANCH  15  16
ENDBRANCH   6  15
ENDBRANCH   2   4
TORSDOF 13
ENDMDL
MODEL       34
REMARK 921   NORMALIZED FREE ENERGY PREDICTED BY IDOCK:   -4.64 KCAL/MOL
REMARK 922        TOTAL FREE ENERGY PREDICTED BY IDOCK:  -11.64 KCAL/MOL
REMARK 923 INTER-LIGAND FREE ENERGY PREDICTED BY IDOCK:   -9.29 KCAL/MOL
REMARK 924 INTRA-LIGAND FREE ENERGY PREDICTED BY IDOCK:   -2.35 KCAL/MOL
REMARK 927      BINDING AFFINITY PREDICTED BY RF-SCORE:    0.00 PKD
ROOT
HETATM    1  C   UNL     1      -5.747  14.292  69.913  1.00  0.00    -0.111 C  
HETATM    2  N   UNL     1      -7.111  13.789  69.781  1.00  0.00    -0.337 NA 
HETATM    3  H   UNL     1      -7.709  14.506  69.369  1.00  0.00     0.000 HD 
ENDROOT
BRANCH   2   4
HETATM    4  C   UNL     1      -7.255  12.509  69.025  1.00  0.00     0.002 C  
HETATM    5  C   UNL     1      -6.303  11.402  69.544  1.00  0.00    -0.113 C  
HETATM    6  C   UNL     1      -6.624  10.066  68.839  1.00  0.00    -0.049 C  
HETATM    7  O   UNL     1      -6.388  11.274  70.966  1.00  0.00    -0.438 OA 
HETATM    8  H   UNL     1      -5.804  10.596  71.284  1.00  0.00     0.000 HD 
HETATM    9  O   UNL     1      -5.938  13.110  67.028  1.00  0.00    -0.447 OA 
HETATM   10  O   UNL     1      -6.424  10.226  67.433  1.00  0.00    -0.065 OA 
HETATM   11  H   UNL     1      -5.903  13.150  66.080  1.00  0.00     0.000 HD 
HETATM   12  C   UNL     1      -7.349  11.163  66.856  1.00  0.00    -0.138 C  
HETATM   13  C   UNL     1      -8.297  13.475  66.884  1.00  0.00    -0.012 C  
HETATM   14  C   UNL     1      -7.198  12.575  67.462  1.00  0.00    -0.147 C  
BRANCH   6  15
HETATM   15  O   UNL     1      -7.961   9.650  69.127  1.00  0.00    -0.088 OA 
BRANCH  15  16
HETATM   16  C   UNL     1      -8.362   8.380  68.583  1.00  0.00    -0.120 C  
HETATM   17  H1  UNL     1     -12.343   6.581  69.480  1.00  0.00     0.000 HD 
HETATM   18  C   UNL     1      -8.333   7.217  69.600  1.00  0.00    -0.132 C  
HETATM   19  C   UNL     1      -9.798   8.570  68.020  1.00  0.00    -0.169 C  
HETATM   20  H2  UNL     1     -11.343   5.732  70.540  1.00  0.00     0.000 HD 
HETATM   21  C   UNL     1     -10.779   7.710  70.241  1.00  0.00    -0.239 C  
HETATM   22  C   UNL     1      -9.335   7.496  70.734  1.00  0.00    -0.162 C  
HETATM   23  O   UNL     1     -10.166   7.431  67.213  1.00  0.00    -0.206 OA 
HETATM   24  H   UNL     1     -11.045   7.547  66.869  1.00  0.00     0.000 HD 
HETATM   25  N   UNL     1     -11.388   6.439  69.806  1.00  0.00    -0.416 NA 
HETATM   26  C   UNL     1     -10.841   8.820  69.148  1.00  0.00    -0.053 C  
BRANCH  18  27
HETATM   27  N   UNL     1      -8.553   5.925  68.949  1.00  0.00    -0.111 N  
HETATM   28  H   UNL     1      -9.451   5.757  68.494  1.00  0.00     0.000 HD 
HETATM   29  C   UNL     1      -7.608   4.926  68.921  1.00  0.00    -0.069 C  
HETATM   30  O   UNL     1      -6.488   5.027  69.409  1.00  0.00    -0.036 OA 
BRANCH  29  31
HETATM   31  C   UNL     1      -8.058   3.652  68.187  1.00  0.00    -0.082 C  
HETATM   32  H   UNL     1      -8.084   1.709  68.534  1.00  0.00     0.000 HD 
HETATM   33  O   UNL     1      -7.805   2.496  68.987  1.00  0.00    -0.049 OA 
BRANCH  31  34
HETATM   34  C   UNL     1      -9.552   3.704  67.866  1.00  0.00    -0.180 C  
BRANCH  34  35
HETATM   35  C   UNL     1      -9.808   3.755  66.360  1.00  0.00    -0.049 C  
HETATM   36  H1  UNL     1      -9.570   5.079  64.813  1.00  0.00     0.000 HD 
HETATM   37  H2  UNL     1      -8.430   5.263  66.045  1.00  0.00     0.000 HD 
HETATM   38  N   UNL     1      -9.399   5.045  65.818  1.00  0.00    -0.158 NA 
ENDBRANCH  34  35
ENDBRANCH  31  34
ENDBRANCH  29  31
ENDBRANCH  18  27
BRANCH  26  39
HETATM   39  O   UNL     1     -10.660  10.045  69.854  1.00  0.00    -0.244 OA 
BRANCH  39  40
HETATM   40  C   UNL     1     -10.845  11.274  69.145  1.00  0.00    -0.222 C  
HETATM   41  H1  UNL     1     -13.019  12.285  71.665  1.00  0.00     0.000 HD 
HETATM   42  O   UNL     1     -11.567  11.075  67.925  1.00  0.00    -0.483 OA 
HETATM   43  H2  UNL     1     -12.150  10.861  71.532  1.00  0.00     0.000 HD 
HETATM   44  N   UNL     1     -12.561  11.641  71.019  1.00  0.00    -0.372 NA 
HETATM   45  C   UNL     1     -11.549  12.262  70.135  1.00  0.00    -0.094 C  
HETATM   46  C   UNL     1     -11.902  12.253  67.277  1.00  0.00    -0.260 C  
HETATM   47  C   UNL     1     -12.078  13.514  69.423  1.00  0.00    -0.340 C  
HETATM   48  C   UNL     1     -12.133  13.397  67.937  1.00  0.00    -0.289 C  
BRANCH  46  49
HETATM   49  C   UNL     1     -12.036  12.148  65.774  1.00  0.00    -0.194 C  
BRANCH  49  50
HETATM   50  N   UNL     1     -11.078  12.986  65.046  1.00  0.00    -0.287 NA 
HETATM   51  H   UNL     1     -10.473  12.426  64.447  1.00  0.00     0.000 HD 
BRANCH  50  52
HETATM   52  C   UNL     1     -11.760  14.047  64.284  1.00  0.00    -0.367 C  
BRANCH  52  53
HETATM   53  C   UNL     1     -11.398  15.430  64.830  1.00  0.00    -0.376 C  
HETATM   54  O   UNL     1     -11.523  16.421  63.813  1.00  0.00    -1.590 OA 
HETATM   55  H   UNL     1     -11.297  17.279  64.152  1.00  0.00     0.000 HD 
ENDBRANCH  52  53
ENDBRANCH  50  52
ENDBRANCH  49  50
ENDBRANCH  46  49
ENDBRANCH  39  40
ENDBRANCH  26  39
ENDBRANCH  15  16
ENDBRANCH   6  15
ENDBRANCH   2   4
TORSDOF 13
ENDMDL
MODEL       35
REMARK 921   NORMALIZED FREE ENERGY PREDICTED BY IDOCK:   -4.64 KCAL/MOL
REMARK 922        TOTAL FREE ENERGY PREDICTED BY IDOCK:  -11.63 KCAL/MOL
REMARK 923 INTER-LIGAND FREE ENERGY PREDICTED BY IDOCK:   -8.61 KCAL/MOL
REMARK 924 INTRA-LIGAND FREE ENERGY PREDICTED BY IDOCK:   -3.02 KCAL/MOL
REMARK 927      BINDING AFFINITY PREDICTED BY RF-SCORE:    0.00 PKD
ROOT
HETATM    1  C   UNL     1      -6.054   2.880  68.453  1.00  0.00    -0.025 C  
HETATM    2  N   UNL     1      -7.065   2.384  67.525  1.00  0.00    -0.048 NA 
HETATM    3  H   UNL     1      -7.754   1.823  68.026  1.00  0.00     0.000 HD 
ENDROOT
BRANCH   2   4
HETATM    4  C   UNL     1      -7.753   3.425  66.704  1.00  0.00    -0.080 C  
HETATM    5  C   UNL     1      -9.264   3.534  67.030  1.00  0.00    -0.190 C  
HETATM    6  C   UNL     1      -9.873   4.737  66.277  1.00  0.00    -0.220 C  
HETATM    7  O   UNL     1      -9.481   3.638  68.439  1.00  0.00    -0.172 OA 
HETATM    8  H   UNL     1     -10.408   3.705  68.639  1.00  0.00     0.000 HD 
HETATM    9  O   UNL     1      -8.001   2.142  64.613  1.00  0.00    -0.072 OA 
HETATM   10  O   UNL     1      -9.717   4.529  64.872  1.00  0.00    -0.158 OA 
HETATM   11  H   UNL     1      -7.871   2.120  63.672  1.00  0.00     0.000 HD 
HETATM   12  C   UNL     1      -8.336   4.525  64.474  1.00  0.00    -0.115 C  
HETATM   13  C   UNL     1      -6.062   3.532  64.773  1.00  0.00    -0.023 C  
HETATM   14  C   UNL     1      -7.540   3.390  65.154  1.00  0.00    -0.080 C  
BRANCH   6  15
HETATM   15  O   UNL     1      -9.257   5.959  66.691  1.00  0.00    -0.131 OA 
BRANCH  15  16
HETATM   16  C   UNL     1      -9.784   6.563  67.884  1.00  0.00    -0.122 C  
HETATM   17  H1  UNL     1      -9.105  10.864  68.848  1.00  0.00     0.000 HD 
HETATM   18  C   UNL     1      -8.729   6.822  68.983  1.00  0.00    -0.130 C  
HETATM   19  C   UNL     1     -10.451   7.898  67.451  1.00  0.00    -0.290 C  
HETATM   20  H2  UNL     1      -7.951  10.114  69.823  1.00  0.00     0.000 HD 
HETATM   21  C   UNL     1      -8.276   9.161  68.004  1.00  0.00    -0.112 C  
HETATM   22  C   UNL     1      -7.677   7.819  68.467  1.00  0.00    -0.118 C  
HETATM   23  O   UNL     1     -11.244   8.429  68.535  1.00  0.00    -0.313 OA 
HETATM   24  H   UNL     1     -11.651   9.246  68.270  1.00  0.00     0.000 HD 
HETATM   25  N   UNL     1      -8.709   9.976  69.154  1.00  0.00    -0.155 NA 
HETATM   26  C   UNL     1      -9.407   8.940  66.955  1.00  0.00    -0.168 C  
BRANCH  18  27
HETATM   27  N   UNL     1      -9.350   7.247  70.238  1.00  0.00    -0.159 N  
HETATM   28  H   UNL     1      -9.318   8.237  70.485  1.00  0.00     0.000 HD 
HETATM   29  C   UNL     1      -9.975   6.377  71.101  1.00  0.00    -0.180 C  
HETATM   30  O   UNL     1     -10.098   5.175  70.893  1.00  0.00    -0.205 OA 
BRANCH  29  31
HETATM   31  C   UNL     1     -10.551   7.043  72.362  1.00  0.00    -0.223 C  
HETATM   32  H   UNL     1     -10.083   7.178  74.274  1.00  0.00     0.000 HD 
HETATM   33  O   UNL     1      -9.727   6.766  73.495  1.00  0.00    -0.168 OA 
BRANCH  31  34
HETATM   34  C   UNL     1     -10.644   8.559  72.186  1.00  0.00    -0.419 C  
BRANCH  34  35
HETATM   35  C   UNL     1     -12.071   9.007  71.870  1.00  0.00    -0.378 C  
HETATM   36  H1  UNL     1     -13.009  10.418  70.715  1.00  0.00     0.000 HD 
HETATM   37  H2  UNL     1     -11.536   9.891  70.080  1.00  0.00     0.000 HD 
HETATM   38  N   UNL     1     -12.058  10.118  70.926  1.00  0.00    -0.328 NA 
ENDBRANCH  34  35
ENDBRANCH  31  34
ENDBRANCH  29  31
ENDBRANCH  18  27
BRANCH  26  39
HETATM   39  O   UNL     1      -8.732   8.570  65.755  1.00  0.00    -0.160 OA 
BRANCH  39  40
HETATM   40  C   UNL     1      -9.100   9.224  64.536  1.00  0.00    -0.089 C  
HETATM   41  H1  UNL     1      -5.729   9.886  63.991  1.00  0.00     0.000 HD 
HETATM   42  O   UNL     1      -9.806  10.444  64.785  1.00  0.00    -0.294 OA 
HETATM   43  H2  UNL     1      -6.449   9.062  65.258  1.00  0.00     0.000 HD 
HETATM   44  N   UNL     1      -6.589   9.759  64.525  1.00  0.00    -0.107 NA 
HETATM   45  C   UNL     1      -7.781   9.419  63.716  1.00  0.00    -0.120 C  
HETATM   46  C   UNL     1     -10.052  11.189  63.643  1.00  0.00    -0.379 C  
HETATM   47  C   UNL     1      -7.975  10.370  62.527  1.00  0.00    -0.179 C  
HETATM   48  C   UNL     1      -9.234  11.169  62.581  1.00  0.00    -0.357 C  
BRANCH  46  49
HETATM   49  C   UNL     1     -11.284  12.064  63.695  1.00  0.00    -0.450 C  
BRANCH  49  50
HETATM   50  N   UNL     1     -11.231  13.078  64.753  1.00  0.00    -0.306 NA 
HETATM   51  H   UNL     1     -11.407  14.012  64.384  1.00  0.00     0.000 HD 
BRANCH  50  52
HETATM   52  C   UNL     1     -12.152  12.753  65.857  1.00  0.00    -0.426 C  
BRANCH  52  53
HETATM   53  C   UNL     1     -11.378  12.280  67.090  1.00  0.00    -0.335 C  
HETATM   54  O   UNL     1     -12.075  11.223  67.746  1.00  0.00    -0.631 OA 
HETATM   55  H   UNL     1     -11.595  10.930  68.512  1.00  0.00     0.000 HD 
ENDBRANCH  52  53
ENDBRANCH  50  52
ENDBRANCH  49  50
ENDBRANCH  46  49
ENDBRANCH  39  40
ENDBRANCH  26  39
ENDBRANCH  15  16
ENDBRANCH   6  15
ENDBRANCH   2   4
TORSDOF 13
ENDMDL
MODEL       36
REMARK 921   NORMALIZED FREE ENERGY PREDICTED BY IDOCK:   -4.62 KCAL/MOL
REMARK 922        TOTAL FREE ENERGY PREDICTED BY IDOCK:  -11.60 KCAL/MOL
REMARK 923 INTER-LIGAND FREE ENERGY PREDICTED BY IDOCK:   -9.74 KCAL/MOL
REMARK 924 INTRA-LIGAND FREE ENERGY PREDICTED BY IDOCK:   -1.86 KCAL/MOL
REMARK 927      BINDING AFFINITY PREDICTED BY RF-SCORE:    0.00 PKD
ROOT
HETATM    1  C   UNL     1      -6.402  10.856  62.373  1.00  0.00    -0.045 C  
HETATM    2  N   UNL     1      -6.107  10.409  63.730  1.00  0.00    -0.276 NA 
HETATM    3  H   UNL     1      -5.416  11.026  64.159  1.00  0.00     0.000 HD 
ENDROOT
BRANCH   2   4
HETATM    4  C   UNL     1      -7.289  10.262  64.632  1.00  0.00    -0.085 C  
HETATM    5  C   UNL     1      -6.970  10.653  66.097  1.00  0.00    -0.135 C  
HETATM    6  C   UNL     1      -8.270  10.643  66.932  1.00  0.00    -0.123 C  
HETATM    7  O   UNL     1      -6.319  11.924  66.161  1.00  0.00    -0.427 OA 
HETATM    8  H   UNL     1      -6.124  12.164  67.060  1.00  0.00     0.000 HD 
HETATM    9  O   UNL     1      -7.200   7.819  64.959  1.00  0.00    -0.061 OA 
HETATM   10  O   UNL     1      -8.820   9.325  66.915  1.00  0.00    -0.125 OA 
HETATM   11  H   UNL     1      -7.673   6.995  64.937  1.00  0.00     0.000 HD 
HETATM   12  C   UNL     1      -9.242   8.930  65.599  1.00  0.00    -0.204 C  
HETATM   13  C   UNL     1      -8.622   8.596  63.201  1.00  0.00    -0.035 C  
HETATM   14  C   UNL     1      -8.068   8.904  64.596  1.00  0.00    -0.151 C  
BRANCH   6  15
HETATM   15  O   UNL     1      -9.204  11.601  66.427  1.00  0.00    -0.201 OA 
BRANCH  15  16
HETATM   16  C   UNL     1      -9.060  12.946  66.915  1.00  0.00    -0.224 C  
HETATM   17  H1  UNL     1     -12.046  14.790  69.666  1.00  0.00     0.000 HD 
HETATM   18  C   UNL     1     -10.011  13.966  66.249  1.00  0.00    -0.306 C  
HETATM   19  C   UNL     1      -9.311  12.893  68.447  1.00  0.00    -0.147 C  
HETATM   20  H2  UNL     1     -12.502  15.451  68.183  1.00  0.00     0.000 HD 
HETATM   21  C   UNL     1     -11.783  13.504  68.060  1.00  0.00    -0.359 C  
HETATM   22  C   UNL     1     -11.471  13.589  66.554  1.00  0.00    -0.365 C  
HETATM   23  O   UNL     1      -8.915  14.142  69.055  1.00  0.00    -0.374 OA 
HETATM   24  H   UNL     1      -9.068  14.111  69.992  1.00  0.00     0.000 HD 
HETATM   25  N   UNL     1     -11.840  14.846  68.669  1.00  0.00    -0.320 NA 
HETATM   26  C   UNL     1     -10.789  12.548  68.787  1.00  0.00    -0.239 C  
BRANCH  18  27
HETATM   27  N   UNL     1      -9.684  15.339  66.635  1.00  0.00    -0.240 N  
HETATM   28  H   UNL     1      -9.226  15.496  67.533  1.00  0.00     0.000 HD 
HETATM   29  C   UNL     1      -9.965  16.430  65.844  1.00  0.00    -0.332 C  
HETATM   30  O   UNL     1     -10.486  16.359  64.737  1.00  0.00    -0.620 OA 
BRANCH  29  31
HETATM   31  C   UNL     1      -9.539  17.776  66.453  1.00  0.00    -0.283 C  
HETATM   32  H   UNL     1     -10.400  19.279  67.399  1.00  0.00     0.000 HD 
HETATM   33  O   UNL     1     -10.663  18.447  67.023  1.00  0.00    -0.380 OA 
BRANCH  31  34
HETATM   34  C   UNL     1      -8.487  17.576  67.544  1.00  0.00    -0.216 C  
BRANCH  34  35
HETATM   35  C   UNL     1      -7.071  17.537  66.968  1.00  0.00    -0.178 C  
HETATM   36  H1  UNL     1      -5.721  16.135  66.325  1.00  0.00     0.000 HD 
HETATM   37  H2  UNL     1      -7.332  15.674  66.110  1.00  0.00     0.000 HD 
HETATM   38  N   UNL     1      -6.665  16.161  66.709  1.00  0.00    -0.255 NA 
ENDBRANCH  34  35
ENDBRANCH  31  34
ENDBRANCH  29  31
ENDBRANCH  18  27
BRANCH  26  39
HETATM   39  O   UNL     1     -11.189  11.235  68.400  1.00  0.00    -0.218 OA 
BRANCH  39  40
HETATM   40  C   UNL     1     -11.083  10.179  69.360  1.00  0.00    -0.243 C  
HETATM   41  H1  UNL     1     -13.292  11.938  71.391  1.00  0.00     0.000 HD 
HETATM   42  O   UNL     1      -9.785  10.143  69.962  1.00  0.00    -0.213 OA 
HETATM   43  H2  UNL     1     -12.715  12.334  69.871  1.00  0.00     0.000 HD 
HETATM   44  N   UNL     1     -12.534  11.801  70.721  1.00  0.00    -0.348 NA 
HETATM   45  C   UNL     1     -12.245  10.388  70.388  1.00  0.00    -0.303 C  
HETATM   46  C   UNL     1      -9.678   9.236  71.004  1.00  0.00    -0.271 C  
HETATM   47  C   UNL     1     -12.077   9.511  71.637  1.00  0.00    -0.474 C  
HETATM   48  C   UNL     1     -10.718   8.915  71.788  1.00  0.00    -0.432 C  
BRANCH  46  49
HETATM   49  C   UNL     1      -8.295   8.668  71.228  1.00  0.00    -0.168 C  
BRANCH  49  50
HETATM   50  N   UNL     1      -7.661   8.182  69.999  1.00  0.00    -0.084 NA 
HETATM   51  H   UNL     1      -6.656   8.059  70.121  1.00  0.00     0.000 HD 
BRANCH  50  52
HETATM   52  C   UNL     1      -8.301   6.946  69.515  1.00  0.00    -0.133 C  
BRANCH  52  53
HETATM   53  C   UNL     1      -7.481   6.313  68.387  1.00  0.00    -0.088 C  
HETATM   54  O   UNL     1      -6.781   7.314  67.653  1.00  0.00    -0.060 OA 
HETATM   55  H   UNL     1      -6.273   6.921  66.953  1.00  0.00     0.000 HD 
ENDBRANCH  52  53
ENDBRANCH  50  52
ENDBRANCH  49  50
ENDBRANCH  46  49
ENDBRANCH  39  40
ENDBRANCH  26  39
ENDBRANCH  15  16
ENDBRANCH   6  15
ENDBRANCH   2   4
TORSDOF 13
ENDMDL
MODEL       37
REMARK 921   NORMALIZED FREE ENERGY PREDICTED BY IDOCK:   -4.62 KCAL/MOL
REMARK 922        TOTAL FREE ENERGY PREDICTED BY IDOCK:  -11.60 KCAL/MOL
REMARK 923 INTER-LIGAND FREE ENERGY PREDICTED BY IDOCK:   -8.55 KCAL/MOL
REMARK 924 INTRA-LIGAND FREE ENERGY PREDICTED BY IDOCK:   -3.05 KCAL/MOL
REMARK 927      BINDING AFFINITY PREDICTED BY RF-SCORE:    0.00 PKD
ROOT
HETATM    1  C   UNL     1     -10.475  15.177  64.859  1.00  0.00    -0.319 C  
HETATM    2  N   UNL     1     -11.584  15.019  65.794  1.00  0.00    -0.239 NA 
HETATM    3  H   UNL     1     -12.383  14.597  65.320  1.00  0.00     0.000 HD 
ENDROOT
BRANCH   2   4
HETATM    4  C   UNL     1     -11.272  14.260  67.042  1.00  0.00    -0.323 C  
HETATM    5  C   UNL     1     -12.203  13.038  67.241  1.00  0.00    -0.120 C  
HETATM    6  C   UNL     1     -11.717  12.206  68.449  1.00  0.00    -0.332 C  
HETATM    7  O   UNL     1     -12.271  12.243  66.055  1.00  0.00    -0.646 OA 
HETATM    8  H   UNL     1     -12.842  11.493  66.178  1.00  0.00     0.000 HD 
HETATM    9  O   UNL     1     -12.391  15.743  68.665  1.00  0.00    -0.500 OA 
HETATM   10  O   UNL     1     -11.768  13.021  69.621  1.00  0.00    -0.296 OA 
HETATM   11  H   UNL     1     -12.321  16.234  69.474  1.00  0.00     0.000 HD 
HETATM   12  C   UNL     1     -10.845  14.122  69.557  1.00  0.00    -0.075 C  
HETATM   13  C   UNL     1     -10.060  16.139  68.308  1.00  0.00    -0.232 C  
HETATM   14  C   UNL     1     -11.156  15.069  68.377  1.00  0.00    -0.278 C  
BRANCH   6  15
HETATM   15  O   UNL     1     -10.398  11.706  68.222  1.00  0.00    -0.186 OA 
BRANCH  15  16
HETATM   16  C   UNL     1      -9.890  10.784  69.203  1.00  0.00    -0.175 C  
HETATM   17  H1  UNL     1      -8.106   6.862  68.053  1.00  0.00     0.000 HD 
HETATM   18  C   UNL     1     -10.801   9.560  69.453  1.00  0.00    -0.206 C  
HETATM   19  C   UNL     1      -8.493  10.325  68.702  1.00  0.00    -0.127 C  
HETATM   20  H2  UNL     1      -9.658   6.401  68.525  1.00  0.00     0.000 HD 
HETATM   21  C   UNL     1      -9.569   8.260  67.601  1.00  0.00    -0.152 C  
HETATM   22  C   UNL     1     -10.924   8.734  68.161  1.00  0.00     0.084 C  
HETATM   23  O   UNL     1      -7.798   9.621  69.754  1.00  0.00    -0.107 OA 
HETATM   24  H   UNL     1      -6.944   9.340  69.447  1.00  0.00     0.000 HD 
HETATM   25  N   UNL     1      -9.003   7.175  68.423  1.00  0.00    -0.127 NA 
HETATM   26  C   UNL     1      -8.589   9.457  67.413  1.00  0.00    -0.125 C  
BRANCH  18  27
HETATM   27  N   UNL     1     -10.338   8.769  70.594  1.00  0.00    -0.199 N  
HETATM   28  H   UNL     1      -9.334   8.701  70.763  1.00  0.00     0.000 HD 
HETATM   29  C   UNL     1     -11.193   8.111  71.449  1.00  0.00    -0.254 C  
HETATM   30  O   UNL     1     -12.415   8.146  71.358  1.00  0.00    -0.306 OA 
BRANCH  29  31
HETATM   31  C   UNL     1     -10.486   7.336  72.573  1.00  0.00    -0.237 C  
HETATM   32  H   UNL     1     -10.800   5.695  73.624  1.00  0.00     0.000 HD 
HETATM   33  O   UNL     1     -11.237   6.174  72.929  1.00  0.00    -0.256 OA 
BRANCH  31  34
HETATM   34  C   UNL     1      -9.087   6.898  72.141  1.00  0.00    -0.139 C  
BRANCH  34  35
HETATM   35  C   UNL     1      -8.005   7.463  73.061  1.00  0.00    -0.104 C  
HETATM   36  H1  UNL     1      -6.961   9.211  73.299  1.00  0.00     0.000 HD 
HETATM   37  H2  UNL     1      -8.512   9.428  72.665  1.00  0.00     0.000 HD 
HETATM   38  N   UNL     1      -7.683   8.834  72.685  1.00  0.00    -0.368 NA 
ENDBRANCH  34  35
ENDBRANCH  31  34
ENDBRANCH  29  31
ENDBRANCH  18  27
BRANCH  26  39
HETATM   39  O   UNL     1      -9.073  10.157  66.269  1.00  0.00    -0.149 OA 
BRANCH  39  40
HETATM   40  C   UNL     1      -8.409   9.957  65.017  1.00  0.00    -0.148 C  
HETATM   41  H1  UNL     1     -10.813  11.985  63.533  1.00  0.00     0.000 HD 
HETATM   42  O   UNL     1      -8.550   8.610  64.555  1.00  0.00    -0.159 OA 
HETATM   43  H2  UNL     1     -10.648  11.551  65.141  1.00  0.00     0.000 HD 
HETATM   44  N   UNL     1     -10.436  11.291  64.178  1.00  0.00    -0.343 NA 
HETATM   45  C   UNL     1      -8.988  11.023  64.027  1.00  0.00    -0.041 C  
HETATM   46  C   UNL     1      -8.055   8.403  63.278  1.00  0.00    -0.151 C  
HETATM   47  C   UNL     1      -8.590  10.737  62.573  1.00  0.00    -0.301 C  
HETATM   48  C   UNL     1      -8.049   9.366  62.344  1.00  0.00    -0.138 C  
BRANCH  46  49
HETATM   49  C   UNL     1      -7.564   7.002  62.993  1.00  0.00    -0.104 C  
BRANCH  49  50
HETATM   50  N   UNL     1      -8.648   6.028  62.837  1.00  0.00    -0.329 NA 
HETATM   51  H   UNL     1      -8.774   5.763  61.860  1.00  0.00     0.000 HD 
BRANCH  50  52
HETATM   52  C   UNL     1      -8.439   4.847  63.693  1.00  0.00    -0.132 C  
BRANCH  52  53
HETATM   53  C   UNL     1      -9.156   5.012  65.035  1.00  0.00    -0.102 C  
HETATM   54  O   UNL     1      -8.283   5.587  66.004  1.00  0.00    -0.109 OA 
HETATM   55  H   UNL     1      -8.729   5.689  66.837  1.00  0.00     0.000 HD 
ENDBRANCH  52  53
ENDBRANCH  50  52
ENDBRANCH  49  50
ENDBRANCH  46  49
ENDBRANCH  39  40
ENDBRANCH  26  39
ENDBRANCH  15  16
ENDBRANCH   6  15
ENDBRANCH   2   4
TORSDOF 13
ENDMDL
MODEL       38
REMARK 921   NORMALIZED FREE ENERGY PREDICTED BY IDOCK:   -4.62 KCAL/MOL
REMARK 922        TOTAL FREE ENERGY PREDICTED BY IDOCK:  -11.59 KCAL/MOL
REMARK 923 INTER-LIGAND FREE ENERGY PREDICTED BY IDOCK:  -10.42 KCAL/MOL
REMARK 924 INTRA-LIGAND FREE ENERGY PREDICTED BY IDOCK:   -1.17 KCAL/MOL
REMARK 927      BINDING AFFINITY PREDICTED BY RF-SCORE:    0.00 PKD
ROOT
HETATM    1  C   UNL     1     -11.310   5.707  72.925  1.00  0.00    -0.273 C  
HETATM    2  N   UNL     1     -11.727   5.938  71.545  1.00  0.00    -0.103 NA 
HETATM    3  H   UNL     1     -12.600   5.446  71.357  1.00  0.00     0.000 HD 
ENDROOT
BRANCH   2   4
HETATM    4  C   UNL     1     -11.850   7.370  71.140  1.00  0.00    -0.301 C  
HETATM    5  C   UNL     1     -10.526   8.155  71.321  1.00  0.00    -0.209 C  
HETATM    6  C   UNL     1     -10.677   9.572  70.725  1.00  0.00    -0.321 C  
HETATM    7  O   UNL     1      -9.428   7.456  70.730  1.00  0.00    -0.166 OA 
HETATM    8  H   UNL     1      -8.616   7.937  70.841  1.00  0.00     0.000 HD 
HETATM    9  O   UNL     1     -12.973   8.229  73.161  1.00  0.00    -0.522 OA 
HETATM   10  O   UNL     1     -11.719  10.258  71.421  1.00  0.00    -0.341 OA 
HETATM   11  H   UNL     1     -13.699   8.728  73.517  1.00  0.00     0.000 HD 
HETATM   12  C   UNL     1     -13.004   9.648  71.212  1.00  0.00    -0.360 C  
HETATM   13  C   UNL     1     -14.402   7.582  71.355  1.00  0.00    -0.540 C  
HETATM   14  C   UNL     1     -13.046   8.193  71.727  1.00  0.00    -0.345 C  
BRANCH   6  15
HETATM   15  O   UNL     1     -10.947   9.507  69.323  1.00  0.00    -0.219 OA 
BRANCH  15  16
HETATM   16  C   UNL     1      -9.883   9.007  68.494  1.00  0.00    -0.169 C  
HETATM   17  H1  UNL     1      -7.819  11.585  65.496  1.00  0.00     0.000 HD 
HETATM   18  C   UNL     1     -10.292   8.748  67.026  1.00  0.00    -0.283 C  
HETATM   19  C   UNL     1      -8.738  10.055  68.559  1.00  0.00    -0.123 C  
HETATM   20  H2  UNL     1      -8.891  10.724  64.519  1.00  0.00     0.000 HD 
HETATM   21  C   UNL     1      -9.631  11.161  66.412  1.00  0.00    -0.200 C  
HETATM   22  C   UNL     1     -10.719  10.071  66.366  1.00  0.00    -0.063 C  
HETATM   23  O   UNL     1      -7.532   9.505  67.985  1.00  0.00    -0.082 OA 
HETATM   24  H   UNL     1      -6.832  10.146  68.024  1.00  0.00     0.000 HD 
HETATM   25  N   UNL     1      -8.539  10.864  65.466  1.00  0.00    -0.173 NA 
HETATM   26  C   UNL     1      -9.129  11.394  67.869  1.00  0.00    -0.164 C  
BRANCH  18  27
HETATM   27  N   UNL     1      -9.235   8.057  66.286  1.00  0.00    -0.204 N  
HETATM   28  H   UNL     1      -8.543   8.619  65.789  1.00  0.00     0.000 HD 
HETATM   29  C   UNL     1      -9.131   6.686  66.227  1.00  0.00    -0.145 C  
HETATM   30  O   UNL     1      -9.888   5.915  66.807  1.00  0.00    -0.143 OA 
BRANCH  29  31
HETATM   31  C   UNL     1      -7.947   6.180  65.387  1.00  0.00    -0.116 C  
HETATM   32  H   UNL     1      -7.548   5.871  63.479  1.00  0.00     0.000 HD 
HETATM   33  O   UNL     1      -8.280   6.184  63.998  1.00  0.00    -0.107 OA 
BRANCH  31  34
HETATM   34  C   UNL     1      -6.712   7.057  65.595  1.00  0.00    -0.052 C  
BRANCH  34  35
HETATM   35  C   UNL     1      -5.870   6.581  66.779  1.00  0.00    -0.014 C  
HETATM   36  H1  UNL     1      -5.308   4.807  67.639  1.00  0.00     0.000 HD 
HETATM   37  H2  UNL     1      -5.566   4.701  65.973  1.00  0.00     0.000 HD 
HETATM   38  N   UNL     1      -5.870   5.125  66.850  1.00  0.00    -0.021 NA 
ENDBRANCH  34  35
ENDBRANCH  31  34
ENDBRANCH  29  31
ENDBRANCH  18  27
BRANCH  26  39
HETATM   39  O   UNL     1     -10.184  12.102  68.516  1.00  0.00    -0.216 OA 
BRANCH  39  40
HETATM   40  C   UNL     1     -10.263  13.520  68.338  1.00  0.00    -0.245 C  
HETATM   41  H1  UNL     1     -12.896  13.558  70.609  1.00  0.00     0.000 HD 
HETATM   42  O   UNL     1     -10.736  13.861  67.031  1.00  0.00    -0.280 OA 
HETATM   43  H2  UNL     1     -11.983  12.261  70.077  1.00  0.00     0.000 HD 
HETATM   44  N   UNL     1     -12.309  13.201  69.855  1.00  0.00    -0.196 NA 
HETATM   45  C   UNL     1     -11.164  14.067  69.494  1.00  0.00    -0.199 C  
HETATM   46  C   UNL     1     -10.972  15.216  66.859  1.00  0.00    -0.323 C  
HETATM   47  C   UNL     1     -11.581  15.527  69.260  1.00  0.00    -0.369 C  
HETATM   48  C   UNL     1     -11.352  16.013  67.869  1.00  0.00    -0.218 C  
BRANCH  46  49
HETATM   49  C   UNL     1     -10.818  15.725  65.444  1.00  0.00    -0.364 C  
BRANCH  49  50
HETATM   50  N   UNL     1     -10.655  14.655  64.456  1.00  0.00    -0.576 NA 
HETATM   51  H   UNL     1      -9.953  13.977  64.753  1.00  0.00     0.000 HD 
BRANCH  50  52
HETATM   52  C   UNL     1     -11.940  14.001  64.151  1.00  0.00    -0.408 C  
BRANCH  52  53
HETATM   53  C   UNL     1     -11.717  12.588  63.608  1.00  0.00    -0.515 C  
HETATM   54  O   UNL     1     -12.933  12.051  63.093  1.00  0.00    -0.752 OA 
HETATM   55  H   UNL     1     -12.795  11.173  62.756  1.00  0.00     0.000 HD 
ENDBRANCH  52  53
ENDBRANCH  50  52
ENDBRANCH  49  50
ENDBRANCH  46  49
ENDBRANCH  39  40
ENDBRANCH  26  39
ENDBRANCH  15  16
ENDBRANCH   6  15
ENDBRANCH   2   4
TORSDOF 13
ENDMDL
MODEL       39
REMARK 921   NORMALIZED FREE ENERGY PREDICTED BY IDOCK:   -4.61 KCAL/MOL
REMARK 922        TOTAL FREE ENERGY PREDICTED BY IDOCK:  -11.58 KCAL/MOL
REMARK 923 INTER-LIGAND FREE ENERGY PREDICTED BY IDOCK:  -10.32 KCAL/MOL
REMARK 924 INTRA-LIGAND FREE ENERGY PREDICTED BY IDOCK:   -1.26 KCAL/MOL
REMARK 927      BINDING AFFINITY PREDICTED BY RF-SCORE:    0.00 PKD
ROOT
HETATM    1  C   UNL     1     -14.216  13.584  72.255  1.00  0.00    -0.369 C  
HETATM    2  N   UNL     1     -13.085  12.662  72.222  1.00  0.00    -0.350 NA 
HETATM    3  H   UNL     1     -13.378  11.739  72.541  1.00  0.00     0.000 HD 
ENDROOT
BRANCH   2   4
HETATM    4  C   UNL     1     -12.384  12.549  70.907  1.00  0.00    -0.255 C  
HETATM    5  C   UNL     1     -12.864  13.610  69.885  1.00  0.00     0.288 C  
HETATM    6  C   UNL     1     -11.983  13.546  68.618  1.00  0.00    -0.343 C  
HETATM    7  O   UNL     1     -12.857  14.919  70.459  1.00  0.00    -0.436 OA 
HETATM    8  H   UNL     1     -13.152  15.569  69.832  1.00  0.00     0.000 HD 
HETATM    9  O   UNL     1     -13.655  10.652  69.974  1.00  0.00    -0.049 OA 
HETATM   10  O   UNL     1     -12.109  12.250  68.032  1.00  0.00    -0.439 OA 
HETATM   11  H   UNL     1     -13.621   9.796  69.564  1.00  0.00     0.000 HD 
HETATM   12  C   UNL     1     -11.582  11.217  68.881  1.00  0.00    -0.317 C  
HETATM   13  C   UNL     1     -11.628  10.102  71.117  1.00  0.00    -0.430 C  
HETATM   14  C   UNL     1     -12.328  11.138  70.231  1.00  0.00    -0.315 C  
BRANCH   6  15
HETATM   15  O   UNL     1     -10.620  13.842  68.932  1.00  0.00    -0.242 OA 
BRANCH  15  16
HETATM   16  C   UNL     1     -10.093  15.063  68.386  1.00  0.00    -0.225 C  
HETATM   17  H1  UNL     1      -6.383  15.132  65.913  1.00  0.00     0.000 HD 
HETATM   18  C   UNL     1      -8.838  15.594  69.116  1.00  0.00    -0.251 C  
HETATM   19  C   UNL     1      -9.771  14.780  66.893  1.00  0.00    -0.240 C  
HETATM   20  H2  UNL     1      -5.797  15.632  67.413  1.00  0.00     0.000 HD 
HETATM   21  C   UNL     1      -7.334  14.238  67.524  1.00  0.00    -0.179 C  
HETATM   22  C   UNL     1      -7.693  14.575  68.984  1.00  0.00    -0.113 C  
HETATM   23  O   UNL     1      -9.501  16.020  66.202  1.00  0.00    -0.284 OA 
HETATM   24  H   UNL     1      -9.304  15.847  65.289  1.00  0.00     0.000 HD 
HETATM   25  N   UNL     1      -6.620  15.355  66.879  1.00  0.00    -0.104 NA 
HETATM   26  C   UNL     1      -8.592  13.778  66.727  1.00  0.00    -0.035 C  
BRANCH  18  27
HETATM   27  N   UNL     1      -8.468  16.931  68.649  1.00  0.00    -0.253 N  
HETATM   28  H   UNL     1      -7.543  17.064  68.239  1.00  0.00     0.000 HD 
HETATM   29  C   UNL     1      -9.308  18.017  68.736  1.00  0.00    -0.241 C  
HETATM   30  O   UNL     1     -10.449  17.968  69.183  1.00  0.00    -0.241 OA 
BRANCH  29  31
HETATM   31  C   UNL     1      -8.709  19.323  68.190  1.00  0.00    -0.331 C  
HETATM   32  H   UNL     1      -7.269  19.852  66.948  1.00  0.00     0.000 HD 
HETATM   33  O   UNL     1      -7.639  19.044  67.285  1.00  0.00    -0.228 OA 
BRANCH  31  34
HETATM   34  C   UNL     1      -9.766  20.147  67.455  1.00  0.00    -0.557 C  
BRANCH  34  35
HETATM   35  C   UNL     1      -9.745  19.886  65.949  1.00  0.00    -0.292 C  
HETATM   36  H1  UNL     1     -10.701  18.681  64.594  1.00  0.00     0.000 HD 
HETATM   37  H2  UNL     1     -11.651  19.086  65.930  1.00  0.00     0.000 HD 
HETATM   38  N   UNL     1     -10.715  18.855  65.598  1.00  0.00    -0.504 NA 
ENDBRANCH  34  35
ENDBRANCH  31  34
ENDBRANCH  29  31
ENDBRANCH  18  27
BRANCH  26  39
HETATM   39  O   UNL     1      -8.870  12.461  67.201  1.00  0.00    -0.183 OA 
BRANCH  39  40
HETATM   40  C   UNL     1      -8.514  11.350  66.373  1.00  0.00    -0.160 C  
HETATM   41  H1  UNL     1     -11.362  11.977  64.478  1.00  0.00     0.000 HD 
HETATM   42  O   UNL     1      -8.651  10.108  67.070  1.00  0.00    -0.128 OA 
HETATM   43  H2  UNL     1     -10.780  12.806  65.810  1.00  0.00     0.000 HD 
HETATM   44  N   UNL     1     -10.785  11.913  65.317  1.00  0.00    -0.275 NA 
HETATM   45  C   UNL     1      -9.399  11.448  65.086  1.00  0.00    -0.152 C  
HETATM   46  C   UNL     1      -8.462   8.994  66.268  1.00  0.00    -0.125 C  
HETATM   47  C   UNL     1      -9.341  10.164  64.246  1.00  0.00    -0.349 C  
HETATM   48  C   UNL     1      -8.761   8.991  64.960  1.00  0.00    -0.217 C  
BRANCH  46  49
HETATM   49  C   UNL     1      -7.942   7.766  66.979  1.00  0.00    -0.116 C  
BRANCH  49  50
HETATM   50  N   UNL     1      -8.863   6.627  66.922  1.00  0.00    -0.115 NA 
HETATM   51  H   UNL     1      -8.401   5.791  66.566  1.00  0.00     0.000 HD 
BRANCH  50  52
HETATM   52  C   UNL     1      -9.496   6.379  68.229  1.00  0.00    -0.121 C  
BRANCH  52  53
HETATM   53  C   UNL     1     -11.022   6.386  68.106  1.00  0.00    -0.307 C  
HETATM   54  O   UNL     1     -11.416   6.395  66.737  1.00  0.00    -0.733 OA 
HETATM   55  H   UNL     1     -12.363   6.400  66.661  1.00  0.00     0.000 HD 
ENDBRANCH  52  53
ENDBRANCH  50  52
ENDBRANCH  49  50
ENDBRANCH  46  49
ENDBRANCH  39  40
ENDBRANCH  26  39
ENDBRANCH  15  16
ENDBRANCH   6  15
ENDBRANCH   2   4
TORSDOF 13
ENDMDL
MODEL       40
REMARK 921   NORMALIZED FREE ENERGY PREDICTED BY IDOCK:   -4.59 KCAL/MOL
REMARK 922        TOTAL FREE ENERGY PREDICTED BY IDOCK:  -11.53 KCAL/MOL
REMARK 923 INTER-LIGAND FREE ENERGY PREDICTED BY IDOCK:   -9.26 KCAL/MOL
REMARK 924 INTRA-LIGAND FREE ENERGY PREDICTED BY IDOCK:   -2.27 KCAL/MOL
REMARK 927      BINDING AFFINITY PREDICTED BY RF-SCORE:    0.00 PKD
ROOT
HETATM    1  C   UNL     1     -11.002  13.561  68.412  1.00  0.00    -0.266 C  
HETATM    2  N   UNL     1     -10.261  13.713  67.164  1.00  0.00    -0.242 NA 
HETATM    3  H   UNL     1      -9.366  14.170  67.342  1.00  0.00     0.000 HD 
ENDROOT
BRANCH   2   4
HETATM    4  C   UNL     1     -10.047  12.458  66.383  1.00  0.00    -0.236 C  
HETATM    5  C   UNL     1      -8.560  12.022  66.356  1.00  0.00    -0.037 C  
HETATM    6  C   UNL     1      -8.436  10.636  65.685  1.00  0.00    -0.178 C  
HETATM    7  O   UNL     1      -8.001  12.015  67.672  1.00  0.00    -0.131 OA 
HETATM    8  H   UNL     1      -7.089  11.749  67.655  1.00  0.00     0.000 HD 
HETATM    9  O   UNL     1     -10.108  13.420  64.113  1.00  0.00    -0.734 OA 
HETATM   10  O   UNL     1      -8.915  10.729  64.343  1.00  0.00    -0.191 OA 
HETATM   11  H   UNL     1     -10.476  13.375  63.239  1.00  0.00     0.000 HD 
HETATM   12  C   UNL     1     -10.321  11.025  64.287  1.00  0.00    -0.364 C  
HETATM   13  C   UNL     1     -12.176  12.562  64.951  1.00  0.00    -0.534 C  
HETATM   14  C   UNL     1     -10.654  12.383  64.943  1.00  0.00    -0.294 C  
BRANCH   6  15
HETATM   15  O   UNL     1      -9.158   9.649  66.425  1.00  0.00    -0.147 OA 
BRANCH  15  16
HETATM   16  C   UNL     1      -9.270   8.353  65.813  1.00  0.00    -0.111 C  
HETATM   17  H1  UNL     1      -8.262   4.607  68.014  1.00  0.00     0.000 HD 
HETATM   18  C   UNL     1      -7.917   7.716  65.422  1.00  0.00    -0.123 C  
HETATM   19  C   UNL     1     -10.022   7.445  66.825  1.00  0.00    -0.230 C  
HETATM   20  H2  UNL     1      -6.868   4.843  67.095  1.00  0.00     0.000 HD 
HETATM   21  C   UNL     1      -7.768   6.602  67.741  1.00  0.00    -0.107 C  
HETATM   22  C   UNL     1      -7.071   7.484  66.686  1.00  0.00    -0.078 C  
HETATM   23  O   UNL     1     -10.422   6.214  66.183  1.00  0.00    -0.440 OA 
HETATM   24  H   UNL     1     -10.882   5.659  66.802  1.00  0.00     0.000 HD 
HETATM   25  N   UNL     1      -7.801   5.191  67.317  1.00  0.00    -0.096 NA 
HETATM   26  C   UNL     1      -9.176   7.164  68.100  1.00  0.00    -0.131 C  
BRANCH  18  27
HETATM   27  N   UNL     1      -8.102   6.501  64.629  1.00  0.00    -0.189 N  
HETATM   28  H   UNL     1      -8.916   5.916  64.817  1.00  0.00     0.000 HD 
HETATM   29  C   UNL     1      -7.229   6.108  63.640  1.00  0.00    -0.061 C  
HETATM   30  O   UNL     1      -6.235   6.746  63.310  1.00  0.00    -0.040 OA 
BRANCH  29  31
HETATM   31  C   UNL     1      -7.617   4.795  62.941  1.00  0.00    -0.061 C  
HETATM   32  H   UNL     1      -7.588   2.866  63.356  1.00  0.00     0.000 HD 
HETATM   33  O   UNL     1      -7.348   3.678  63.789  1.00  0.00    -0.053 OA 
BRANCH  31  34
HETATM   34  C   UNL     1      -9.102   4.786  62.578  1.00  0.00    -0.095 C  
BRANCH  34  35
HETATM   35  C   UNL     1      -9.818   3.560  63.146  1.00  0.00    -0.131 C  
HETATM   36  H1  UNL     1     -11.098   3.114  64.683  1.00  0.00     0.000 HD 
HETATM   37  H2  UNL     1     -11.272   4.686  64.090  1.00  0.00     0.000 HD 
HETATM   38  N   UNL     1     -10.621   3.931  64.305  1.00  0.00    -0.261 NA 
ENDBRANCH  34  35
ENDBRANCH  31  34
ENDBRANCH  29  31
ENDBRANCH  18  27
BRANCH  26  39
HETATM   39  O   UNL     1      -8.922   8.315  68.903  1.00  0.00    -0.143 OA 
BRANCH  39  40
HETATM   40  C   UNL     1      -9.633   8.457  70.136  1.00  0.00    -0.165 C  
HETATM   41  H1  UNL     1      -6.685   7.675  71.808  1.00  0.00     0.000 HD 
HETATM   42  O   UNL     1     -10.592   7.409  70.315  1.00  0.00    -0.220 OA 
HETATM   43  H2  UNL     1      -6.957   7.816  70.163  1.00  0.00     0.000 HD 
HETATM   44  N   UNL     1      -7.388   7.634  71.070  1.00  0.00    -0.069 NA 
HETATM   45  C   UNL     1      -8.555   8.521  71.270  1.00  0.00    -0.176 C  
HETATM   46  C   UNL     1     -11.199   7.416  71.560  1.00  0.00    -0.243 C  
HETATM   47  C   UNL     1      -9.176   8.372  72.666  1.00  0.00    -0.325 C  
HETATM   48  C   UNL     1     -10.578   7.863  72.662  1.00  0.00    -0.394 C  
BRANCH  46  49
HETATM   49  C   UNL     1     -12.597   6.840  71.602  1.00  0.00    -0.333 C  
BRANCH  49  50
HETATM   50  N   UNL     1     -13.554   7.689  72.317  1.00  0.00    -0.516 NA 
HETATM   51  H   UNL     1     -13.122   8.141  73.123  1.00  0.00     0.000 HD 
BRANCH  50  52
HETATM   52  C   UNL     1     -14.179   8.674  71.417  1.00  0.00    -0.268 C  
BRANCH  52  53
HETATM   53  C   UNL     1     -13.414   9.999  71.443  1.00  0.00    -0.276 C  
HETATM   54  O   UNL     1     -12.826  10.264  70.172  1.00  0.00    -0.569 OA 
HETATM   55  H   UNL     1     -12.350  11.086  70.188  1.00  0.00     0.000 HD 
ENDBRANCH  52  53
ENDBRANCH  50  52
ENDBRANCH  49  50
ENDBRANCH  46  49
ENDBRANCH  39  40
ENDBRANCH  26  39
ENDBRANCH  15  16
ENDBRANCH   6  15
ENDBRANCH   2   4
TORSDOF 13
ENDMDL
MODEL       41
REMARK 921   NORMALIZED FREE ENERGY PREDICTED BY IDOCK:   -4.56 KCAL/MOL
REMARK 922        TOTAL FREE ENERGY PREDICTED BY IDOCK:  -11.48 KCAL/MOL
REMARK 923 INTER-LIGAND FREE ENERGY PREDICTED BY IDOCK:   -9.19 KCAL/MOL
REMARK 924 INTRA-LIGAND FREE ENERGY PREDICTED BY IDOCK:   -2.29 KCAL/MOL
REMARK 927      BINDING AFFINITY PREDICTED BY RF-SCORE:    0.00 PKD
ROOT
HETATM    1  C   UNL     1     -11.029  16.505  69.762  1.00  0.00    -0.292 C  
HETATM    2  N   UNL     1     -12.206  15.672  69.533  1.00  0.00    -0.531 NA 
HETATM    3  H   UNL     1     -12.495  15.737  68.557  1.00  0.00     0.000 HD 
ENDROOT
BRANCH   2   4
HETATM    4  C   UNL     1     -12.070  14.239  69.930  1.00  0.00    -0.347 C  
HETATM    5  C   UNL     1     -12.399  13.267  68.769  1.00  0.00     0.099 C  
HETATM    6  C   UNL     1     -12.073  11.819  69.195  1.00  0.00    -0.228 C  
HETATM    7  O   UNL     1     -11.698  13.631  67.578  1.00  0.00    -0.328 OA 
HETATM    8  H   UNL     1     -11.900  13.035  66.866  1.00  0.00     0.000 HD 
HETATM    9  O   UNL     1     -14.206  13.985  71.135  1.00  0.00    -0.088 OA 
HETATM   10  O   UNL     1     -12.876  11.477  70.325  1.00  0.00    -0.054 OA 
HETATM   11  H   UNL     1     -14.644  13.703  71.930  1.00  0.00     0.000 HD 
HETATM   12  C   UNL     1     -12.550  12.267  71.481  1.00  0.00    -0.152 C  
HETATM   13  C   UNL     1     -12.304  14.549  72.470  1.00  0.00    -0.282 C  
HETATM   14  C   UNL     1     -12.790  13.774  71.240  1.00  0.00    -0.357 C  
BRANCH   6  15
HETATM   15  O   UNL     1     -10.680  11.678  69.488  1.00  0.00    -0.107 OA 
BRANCH  15  16
HETATM   16  C   UNL     1     -10.037  10.502  68.967  1.00  0.00    -0.217 C  
HETATM   17  H1  UNL     1      -7.120  10.705  65.599  1.00  0.00     0.000 HD 
HETATM   18  C   UNL     1     -10.589  10.030  67.602  1.00  0.00    -0.270 C  
HETATM   19  C   UNL     1      -8.524  10.836  68.851  1.00  0.00    -0.149 C  
HETATM   20  H2  UNL     1      -8.521  10.207  64.802  1.00  0.00     0.000 HD 
HETATM   21  C   UNL     1      -8.863  11.507  66.388  1.00  0.00    -0.193 C  
HETATM   22  C   UNL     1     -10.345  11.117  66.541  1.00  0.00    -0.290 C  
HETATM   23  O   UNL     1      -7.770   9.629  68.603  1.00  0.00    -0.079 OA 
HETATM   24  H   UNL     1      -6.845   9.834  68.532  1.00  0.00     0.000 HD 
HETATM   25  N   UNL     1      -8.101  10.447  65.700  1.00  0.00    -0.152 NA 
HETATM   26  C   UNL     1      -8.243  11.909  67.760  1.00  0.00    -0.148 C  
BRANCH  18  27
HETATM   27  N   UNL     1     -10.042   8.728  67.221  1.00  0.00    -0.214 N  
HETATM   28  H   UNL     1      -9.452   8.673  66.390  1.00  0.00     0.000 HD 
HETATM   29  C   UNL     1     -10.284   7.573  67.929  1.00  0.00    -0.194 C  
HETATM   30  O   UNL     1     -10.953   7.526  68.955  1.00  0.00    -0.114 OA 
BRANCH  29  31
HETATM   31  C   UNL     1      -9.613   6.321  67.342  1.00  0.00    -0.119 C  
HETATM   32  H   UNL     1      -8.752   5.795  65.645  1.00  0.00     0.000 HD 
HETATM   33  O   UNL     1      -9.167   6.570  66.008  1.00  0.00    -0.136 OA 
BRANCH  31  34
HETATM   34  C   UNL     1      -8.411   5.897  68.186  1.00  0.00    -0.115 C  
BRANCH  34  35
HETATM   35  C   UNL     1      -8.009   4.447  67.915  1.00  0.00    -0.087 C  
HETATM   36  H1  UNL     1      -6.554   3.430  66.889  1.00  0.00     0.000 HD 
HETATM   37  H2  UNL     1      -6.052   4.937  67.465  1.00  0.00     0.000 HD 
HETATM   38  N   UNL     1      -6.822   4.397  67.070  1.00  0.00    -0.051 NA 
ENDBRANCH  34  35
ENDBRANCH  31  34
ENDBRANCH  29  31
ENDBRANCH  18  27
BRANCH  26  39
HETATM   39  O   UNL     1      -8.784  13.196  68.048  1.00  0.00    -0.173 OA 
BRANCH  39  40
HETATM   40  C   UNL     1      -8.481  14.278  67.162  1.00  0.00    -0.200 C  
HETATM   41  H1  UNL     1      -6.023  15.293  69.402  1.00  0.00     0.000 HD 
HETATM   42  O   UNL     1      -9.540  15.240  67.124  1.00  0.00    -0.212 OA 
HETATM   43  H2  UNL     1      -7.052  13.977  69.494  1.00  0.00     0.000 HD 
HETATM   44  N   UNL     1      -6.916  14.907  69.097  1.00  0.00    -0.127 NA 
HETATM   45  C   UNL     1      -7.110  14.870  67.630  1.00  0.00    -0.186 C  
HETATM   46  C   UNL     1      -9.232  16.379  66.398  1.00  0.00    -0.302 C  
HETATM   47  C   UNL     1      -6.806  16.219  66.962  1.00  0.00    -0.235 C  
HETATM   48  C   UNL     1      -7.981  16.851  66.294  1.00  0.00    -0.350 C  
BRANCH  46  49
HETATM   49  C   UNL     1     -10.413  17.083  65.767  1.00  0.00    -0.251 C  
BRANCH  49  50
HETATM   50  N   UNL     1     -10.303  18.544  65.800  1.00  0.00    -0.609 NA 
HETATM   51  H   UNL     1     -10.792  18.973  65.014  1.00  0.00     0.000 HD 
BRANCH  50  52
HETATM   52  C   UNL     1     -10.767  19.091  67.087  1.00  0.00    -0.456 C  
BRANCH  52  53
HETATM   53  C   UNL     1      -9.652  19.877  67.780  1.00  0.00    -0.378 C  
HETATM   54  O   UNL     1      -8.784  20.472  66.818  1.00  0.00    -0.519 OA 
HETATM   55  H   UNL     1      -8.091  20.960  67.249  1.00  0.00     0.000 HD 
ENDBRANCH  52  53
ENDBRANCH  50  52
ENDBRANCH  49  50
ENDBRANCH  46  49
ENDBRANCH  39  40
ENDBRANCH  26  39
ENDBRANCH  15  16
ENDBRANCH   6  15
ENDBRANCH   2   4
TORSDOF 13
ENDMDL
MODEL       42
REMARK 921   NORMALIZED FREE ENERGY PREDICTED BY IDOCK:   -4.52 KCAL/MOL
REMARK 922        TOTAL FREE ENERGY PREDICTED BY IDOCK:  -11.41 KCAL/MOL
REMARK 923 INTER-LIGAND FREE ENERGY PREDICTED BY IDOCK:   -9.31 KCAL/MOL
REMARK 924 INTRA-LIGAND FREE ENERGY PREDICTED BY IDOCK:   -2.10 KCAL/MOL
REMARK 927      BINDING AFFINITY PREDICTED BY RF-SCORE:    0.00 PKD
ROOT
HETATM    1  C   UNL     1      -8.935  14.325  68.193  1.00  0.00    -0.189 C  
HETATM    2  N   UNL     1      -8.109  13.403  67.419  1.00  0.00    -0.197 NA 
HETATM    3  H   UNL     1      -7.329  13.905  66.995  1.00  0.00     0.000 HD 
ENDROOT
BRANCH   2   4
HETATM    4  C   UNL     1      -7.603  12.211  68.164  1.00  0.00    -0.125 C  
HETATM    5  C   UNL     1      -8.732  11.450  68.904  1.00  0.00    -0.004 C  
HETATM    6  C   UNL     1      -8.170  10.143  69.505  1.00  0.00    -0.168 C  
HETATM    7  O   UNL     1      -9.835  11.191  68.034  1.00  0.00    -0.166 OA 
HETATM    8  H   UNL     1     -10.528  10.725  68.488  1.00  0.00     0.000 HD 
HETATM    9  O   UNL     1      -6.692  13.372  70.141  1.00  0.00    -0.368 OA 
HETATM   10  O   UNL     1      -7.142  10.469  70.442  1.00  0.00    -0.273 OA 
HETATM   11  H   UNL     1      -5.949  13.495  70.719  1.00  0.00     0.000 HD 
HETATM   12  C   UNL     1      -6.006  11.084  69.809  1.00  0.00    -0.086 C  
HETATM   13  C   UNL     1      -5.147  12.936  68.369  1.00  0.00    -0.069 C  
HETATM   14  C   UNL     1      -6.378  12.414  69.118  1.00  0.00    -0.095 C  
BRANCH   6  15
HETATM   15  O   UNL     1      -7.678   9.282  68.475  1.00  0.00    -0.084 OA 
BRANCH  15  16
HETATM   16  C   UNL     1      -7.933   7.877  68.646  1.00  0.00    -0.124 C  
HETATM   17  H1  UNL     1     -11.198   5.788  66.440  1.00  0.00     0.000 HD 
HETATM   18  C   UNL     1      -9.187   7.559  69.493  1.00  0.00    -0.146 C  
HETATM   19  C   UNL     1      -8.076   7.274  67.222  1.00  0.00    -0.112 C  
HETATM   20  H2  UNL     1     -11.912   6.030  67.949  1.00  0.00     0.000 HD 
HETATM   21  C   UNL     1     -10.632   7.558  67.360  1.00  0.00    -0.294 C  
HETATM   22  C   UNL     1     -10.440   8.106  68.787  1.00  0.00    -0.198 C  
HETATM   23  O   UNL     1      -8.056   5.831  67.292  1.00  0.00    -0.102 OA 
HETATM   24  H   UNL     1      -8.143   5.462  66.421  1.00  0.00     0.000 HD 
HETATM   25  N   UNL     1     -11.071   6.151  67.384  1.00  0.00    -0.305 NA 
HETATM   26  C   UNL     1      -9.355   7.783  66.496  1.00  0.00    -0.189 C  
BRANCH  18  27
HETATM   27  N   UNL     1      -9.282   6.131  69.800  1.00  0.00    -0.144 N  
HETATM   28  H   UNL     1      -8.814   5.469  69.181  1.00  0.00     0.000 HD 
HETATM   29  C   UNL     1      -9.973   5.639  70.883  1.00  0.00    -0.194 C  
HETATM   30  O   UNL     1     -10.548   6.343  71.707  1.00  0.00    -0.212 OA 
BRANCH  29  31
HETATM   31  C   UNL     1      -9.945   4.107  71.006  1.00  0.00    -0.136 C  
HETATM   32  H   UNL     1      -9.735   2.558  69.801  1.00  0.00     0.000 HD 
HETATM   33  O   UNL     1      -9.753   3.505  69.725  1.00  0.00    -0.171 OA 
BRANCH  31  34
HETATM   34  C   UNL     1      -8.818   3.652  71.933  1.00  0.00    -0.131 C  
BRANCH  34  35
HETATM   35  C   UNL     1      -8.234   2.308  71.500  1.00  0.00    -0.054 C  
HETATM   36  H1  UNL     1      -6.494   1.249  71.739  1.00  0.00     0.000 HD 
HETATM   37  H2  UNL     1      -6.856   2.264  73.040  1.00  0.00     0.000 HD 
HETATM   38  N   UNL     1      -6.884   2.146  72.027  1.00  0.00    -0.018 NA 
ENDBRANCH  34  35
ENDBRANCH  31  34
ENDBRANCH  29  31
ENDBRANCH  18  27
BRANCH  26  39
HETATM   39  O   UNL     1      -9.347   9.178  66.201  1.00  0.00    -0.190 OA 
BRANCH  39  40
HETATM   40  C   UNL     1      -9.648   9.595  64.866  1.00  0.00    -0.173 C  
HETATM   41  H1  UNL     1      -6.275  10.330  64.443  1.00  0.00     0.000 HD 
HETATM   42  O   UNL     1     -10.419  10.800  64.851  1.00  0.00    -0.311 OA 
HETATM   43  H2  UNL     1      -7.055   9.697  65.781  1.00  0.00     0.000 HD 
HETATM   44  N   UNL     1      -7.167  10.251  64.932  1.00  0.00    -0.127 NA 
HETATM   45  C   UNL     1      -8.279   9.716  64.115  1.00  0.00    -0.158 C  
HETATM   46  C   UNL     1     -10.608  11.326  63.583  1.00  0.00    -0.388 C  
HETATM   47  C   UNL     1      -8.422  10.439  62.768  1.00  0.00    -0.194 C  
HETATM   48  C   UNL     1      -9.712  11.168  62.598  1.00  0.00    -0.226 C  
BRANCH  46  49
HETATM   49  C   UNL     1     -11.874  12.132  63.399  1.00  0.00    -0.461 C  
BRANCH  49  50
HETATM   50  N   UNL     1     -11.645  13.580  63.394  1.00  0.00    -0.610 NA 
HETATM   51  H   UNL     1     -12.514  14.094  63.252  1.00  0.00     0.000 HD 
BRANCH  50  52
HETATM   52  C   UNL     1     -10.952  14.020  64.617  1.00  0.00    -0.392 C  
BRANCH  52  53
HETATM   53  C   UNL     1     -10.916  15.548  64.704  1.00  0.00    -0.322 C  
HETATM   54  O   UNL     1     -11.759  16.127  63.712  1.00  0.00    -1.404 OA 
HETATM   55  H   UNL     1     -11.736  17.076  63.765  1.00  0.00     0.000 HD 
ENDBRANCH  52  53
ENDBRANCH  50  52
ENDBRANCH  49  50
ENDBRANCH  46  49
ENDBRANCH  39  40
ENDBRANCH  26  39
ENDBRANCH  15  16
ENDBRANCH   6  15
ENDBRANCH   2   4
TORSDOF 13
ENDMDL
MODEL       43
REMARK 921   NORMALIZED FREE ENERGY PREDICTED BY IDOCK:   -4.49 KCAL/MOL
REMARK 922        TOTAL FREE ENERGY PREDICTED BY IDOCK:  -11.36 KCAL/MOL
REMARK 923 INTER-LIGAND FREE ENERGY PREDICTED BY IDOCK:   -9.40 KCAL/MOL
REMARK 924 INTRA-LIGAND FREE ENERGY PREDICTED BY IDOCK:   -1.96 KCAL/MOL
REMARK 927      BINDING AFFINITY PREDICTED BY RF-SCORE:    0.00 PKD
ROOT
HETATM    1  C   UNL     1      -5.510   2.263  67.396  1.00  0.00    -0.017 C  
HETATM    2  N   UNL     1      -6.581   2.204  66.406  1.00  0.00    -0.030 NA 
HETATM    3  H   UNL     1      -7.207   1.425  66.615  1.00  0.00     0.000 HD 
ENDROOT
BRANCH   2   4
HETATM    4  C   UNL     1      -7.371   3.460  66.234  1.00  0.00    -0.072 C  
HETATM    5  C   UNL     1      -8.872   3.268  66.568  1.00  0.00    -0.142 C  
HETATM    6  C   UNL     1      -9.591   4.635  66.536  1.00  0.00    -0.182 C  
HETATM    7  O   UNL     1      -9.040   2.620  67.831  1.00  0.00    -0.145 OA 
HETATM    8  H   UNL     1      -9.961   2.502  68.035  1.00  0.00     0.000 HD 
HETATM    9  O   UNL     1      -7.612   3.410  63.780  1.00  0.00    -0.065 OA 
HETATM   10  O   UNL     1      -9.476   5.187  65.224  1.00  0.00    -0.111 OA 
HETATM   11  H   UNL     1      -7.518   3.882  62.961  1.00  0.00     0.000 HD 
HETATM   12  C   UNL     1      -8.114   5.495  64.881  1.00  0.00    -0.124 C  
HETATM   13  C   UNL     1      -5.768   4.671  64.633  1.00  0.00    -0.014 C  
HETATM   14  C   UNL     1      -7.217   4.238  64.884  1.00  0.00    -0.071 C  
BRANCH   6  15
HETATM   15  O   UNL     1      -9.044   5.518  67.519  1.00  0.00    -0.109 OA 
BRANCH  15  16
HETATM   16  C   UNL     1      -9.785   5.641  68.744  1.00  0.00    -0.137 C  
HETATM   17  H1  UNL     1     -10.788   9.614  70.505  1.00  0.00     0.000 HD 
HETATM   18  C   UNL     1      -8.927   6.043  69.966  1.00  0.00    -0.146 C  
HETATM   19  C   UNL     1     -10.893   6.699  68.490  1.00  0.00    -0.258 C  
HETATM   20  H2  UNL     1      -9.458   9.158  71.437  1.00  0.00     0.000 HD 
HETATM   21  C   UNL     1      -9.363   8.531  69.458  1.00  0.00    -0.161 C  
HETATM   22  C   UNL     1      -8.315   7.436  69.733  1.00  0.00    -0.134 C  
HETATM   23  O   UNL     1     -11.851   6.681  69.572  1.00  0.00    -0.658 OA 
HETATM   24  H   UNL     1     -12.529   7.329  69.416  1.00  0.00     0.000 HD 
HETATM   25  N   UNL     1     -10.095   8.889  70.687  1.00  0.00    -0.198 NA 
HETATM   26  C   UNL     1     -10.306   8.126  68.285  1.00  0.00    -0.197 C  
BRANCH  18  27
HETATM   27  N   UNL     1      -9.690   5.957  71.212  1.00  0.00    -0.171 N  
HETATM   28  H   UNL     1     -10.709   5.950  71.159  1.00  0.00     0.000 HD 
HETATM   29  C   UNL     1      -9.099   5.886  72.453  1.00  0.00    -0.140 C  
HETATM   30  O   UNL     1      -7.886   5.860  72.634  1.00  0.00    -0.100 OA 
BRANCH  29  31
HETATM   31  C   UNL     1     -10.094   5.810  73.622  1.00  0.00    -0.204 C  
HETATM   32  H   UNL     1     -11.278   7.046  74.604  1.00  0.00     0.000 HD 
HETATM   33  O   UNL     1     -10.663   7.094  73.881  1.00  0.00    -0.314 OA 
BRANCH  31  34
HETATM   34  C   UNL     1     -11.225   4.829  73.315  1.00  0.00    -0.421 C  
BRANCH  34  35
HETATM   35  C   UNL     1     -10.929   3.431  73.859  1.00  0.00    -0.191 C  
HETATM   36  H1  UNL     1     -10.154   1.659  73.180  1.00  0.00     0.000 HD 
HETATM   37  H2  UNL     1      -9.525   3.019  72.399  1.00  0.00     0.000 HD 
HETATM   38  N   UNL     1     -10.351   2.591  72.817  1.00  0.00    -0.154 NA 
ENDBRANCH  34  35
ENDBRANCH  31  34
ENDBRANCH  29  31
ENDBRANCH  18  27
BRANCH  26  39
HETATM   39  O   UNL     1      -9.515   8.271  67.107  1.00  0.00    -0.145 OA 
BRANCH  39  40
HETATM   40  C   UNL     1     -10.030   9.064  66.033  1.00  0.00    -0.176 C  
HETATM   41  H1  UNL     1      -6.846   9.060  64.635  1.00  0.00     0.000 HD 
HETATM   42  O   UNL     1     -10.373  10.383  66.470  1.00  0.00    -0.234 OA 
HETATM   43  H2  UNL     1      -7.381   8.320  66.037  1.00  0.00     0.000 HD 
HETATM   44  N   UNL     1      -7.549   9.076  65.374  1.00  0.00    -0.089 NA 
HETATM   45  C   UNL     1      -8.951   9.040  64.900  1.00  0.00    -0.118 C  
HETATM   46  C   UNL     1     -10.736  11.235  65.440  1.00  0.00    -0.227 C  
HETATM   47  C   UNL     1      -9.232  10.086  63.812  1.00  0.00    -0.314 C  
HETATM   48  C   UNL     1     -10.236  11.119  64.200  1.00  0.00    -0.405 C  
BRANCH  46  49
HETATM   49  C   UNL     1     -11.698  12.338  65.820  1.00  0.00    -0.385 C  
BRANCH  49  50
HETATM   50  N   UNL     1     -11.051  13.643  65.980  1.00  0.00    -0.293 NA 
HETATM   51  H   UNL     1     -10.107  13.548  66.353  1.00  0.00     0.000 HD 
BRANCH  50  52
HETATM   52  C   UNL     1     -11.059  14.407  64.720  1.00  0.00    -0.394 C  
BRANCH  52  53
HETATM   53  C   UNL     1     -10.819  15.896  64.983  1.00  0.00    -0.426 C  
HETATM   54  O   UNL     1     -11.423  16.690  63.966  1.00  0.00    -1.523 OA 
HETATM   55  H   UNL     1     -11.273  17.614  64.129  1.00  0.00     0.000 HD 
ENDBRANCH  52  53
ENDBRANCH  50  52
ENDBRANCH  49  50
ENDBRANCH  46  49
ENDBRANCH  39  40
ENDBRANCH  26  39
ENDBRANCH  15  16
ENDBRANCH   6  15
ENDBRANCH   2   4
TORSDOF 13
ENDMDL
MODEL       44
REMARK 921   NORMALIZED FREE ENERGY PREDICTED BY IDOCK:   -4.47 KCAL/MOL
REMARK 922        TOTAL FREE ENERGY PREDICTED BY IDOCK:  -11.33 KCAL/MOL
REMARK 923 INTER-LIGAND FREE ENERGY PREDICTED BY IDOCK:   -9.50 KCAL/MOL
REMARK 924 INTRA-LIGAND FREE ENERGY PREDICTED BY IDOCK:   -1.83 KCAL/MOL
REMARK 927      BINDING AFFINITY PREDICTED BY RF-SCORE:    0.00 PKD
ROOT
HETATM    1  C   UNL     1      -6.365   8.391  64.587  1.00  0.00    -0.065 C  
HETATM    2  N   UNL     1      -6.628   9.174  65.791  1.00  0.00    -0.067 NA 
HETATM    3  H   UNL     1      -6.521  10.168  65.591  1.00  0.00     0.000 HD 
ENDROOT
BRANCH   2   4
HETATM    4  C   UNL     1      -7.947   8.924  66.447  1.00  0.00    -0.103 C  
HETATM    5  C   UNL     1      -8.245   7.414  66.625  1.00  0.00    -0.125 C  
HETATM    6  C   UNL     1      -9.533   7.233  67.458  1.00  0.00    -0.129 C  
HETATM    7  O   UNL     1      -7.137   6.737  67.224  1.00  0.00    -0.075 OA 
HETATM    8  H   UNL     1      -7.320   5.811  67.333  1.00  0.00     0.000 HD 
HETATM    9  O   UNL     1      -9.405   9.277  64.489  1.00  0.00    -0.437 OA 
HETATM   10  O   UNL     1     -10.622   7.840  66.762  1.00  0.00    -0.331 OA 
HETATM   11  H   UNL     1     -10.166   9.720  64.133  1.00  0.00     0.000 HD 
HETATM   12  C   UNL     1     -10.470   9.265  66.652  1.00  0.00    -0.167 C  
HETATM   13  C   UNL     1      -9.050  11.178  65.897  1.00  0.00    -0.218 C  
HETATM   14  C   UNL     1      -9.202   9.653  65.861  1.00  0.00    -0.194 C  
BRANCH   6  15
HETATM   15  O   UNL     1      -9.375   7.794  68.764  1.00  0.00    -0.146 OA 
BRANCH  15  16
HETATM   16  C   UNL     1      -9.289   6.858  69.851  1.00  0.00    -0.150 C  
HETATM   17  H1  UNL     1     -11.320   7.584  73.755  1.00  0.00     0.000 HD 
HETATM   18  C   UNL     1      -8.351   7.301  70.997  1.00  0.00    -0.119 C  
HETATM   19  C   UNL     1     -10.735   6.659  70.384  1.00  0.00    -0.250 C  
HETATM   20  H2  UNL     1      -9.734   8.036  74.111  1.00  0.00     0.000 HD 
HETATM   21  C   UNL     1     -10.325   8.472  72.167  1.00  0.00    -0.339 C  
HETATM   22  C   UNL     1      -8.886   8.597  71.632  1.00  0.00    -0.292 C  
HETATM   23  O   UNL     1     -10.779   5.532  71.286  1.00  0.00    -0.251 OA 
HETATM   24  H   UNL     1     -11.663   5.411  71.612  1.00  0.00     0.000 HD 
HETATM   25  N   UNL     1     -10.367   7.667  73.401  1.00  0.00    -0.343 NA 
HETATM   26  C   UNL     1     -11.291   7.944  71.063  1.00  0.00    -0.274 C  
BRANCH  18  27
HETATM   27  N   UNL     1      -8.147   6.230  71.973  1.00  0.00    -0.109 N  
HETATM   28  H   UNL     1      -8.921   5.980  72.589  1.00  0.00     0.000 HD 
HETATM   29  C   UNL     1      -6.961   5.543  72.100  1.00  0.00    -0.081 C  
HETATM   30  O   UNL     1      -5.977   5.739  71.396  1.00  0.00    -0.027 OA 
BRANCH  29  31
HETATM   31  C   UNL     1      -6.972   4.464  73.195  1.00  0.00    -0.064 C  
HETATM   32  H   UNL     1      -6.024   4.105  74.888  1.00  0.00     0.000 HD 
HETATM   33  O   UNL     1      -6.017   4.772  74.211  1.00  0.00    -0.031 OA 
BRANCH  31  34
HETATM   34  C   UNL     1      -8.353   4.354  73.842  1.00  0.00    -0.100 C  
BRANCH  34  35
HETATM   35  C   UNL     1      -8.986   2.983  73.600  1.00  0.00    -0.079 C  
HETATM   36  H1  UNL     1      -9.990   2.006  72.103  1.00  0.00     0.000 HD 
HETATM   37  H2  UNL     1      -8.888   3.157  71.542  1.00  0.00     0.000 HD 
HETATM   38  N   UNL     1      -9.568   2.920  72.265  1.00  0.00    -0.125 NA 
ENDBRANCH  34  35
ENDBRANCH  31  34
ENDBRANCH  29  31
ENDBRANCH  18  27
BRANCH  26  39
HETATM   39  O   UNL     1     -11.476   9.045  70.175  1.00  0.00    -0.193 OA 
BRANCH  39  40
HETATM   40  C   UNL     1     -11.638  10.352  70.734  1.00  0.00    -0.358 C  
HETATM   41  H1  UNL     1     -14.845   9.427  71.711  1.00  0.00     0.000 HD 
HETATM   42  O   UNL     1     -11.705  11.355  69.716  1.00  0.00    -0.287 OA 
HETATM   43  H2  UNL     1     -13.683   8.520  70.918  1.00  0.00     0.000 HD 
HETATM   44  N   UNL     1     -14.016   9.464  71.118  1.00  0.00    -0.110 NA 
HETATM   45  C   UNL     1     -12.911  10.295  71.644  1.00  0.00    -0.463 C  
HETATM   46  C   UNL     1     -12.011  12.618  70.197  1.00  0.00    -0.299 C  
HETATM   47  C   UNL     1     -13.378  11.694  72.071  1.00  0.00    -0.405 C  
HETATM   48  C   UNL     1     -12.771  12.808  71.286  1.00  0.00    -0.364 C  
BRANCH  46  49
HETATM   49  C   UNL     1     -11.469  13.770  69.382  1.00  0.00    -0.286 C  
BRANCH  49  50
HETATM   50  N   UNL     1     -12.381  14.211  68.323  1.00  0.00    -0.556 NA 
HETATM   51  H   UNL     1     -12.944  15.008  68.622  1.00  0.00     0.000 HD 
BRANCH  50  52
HETATM   52  C   UNL     1     -11.656  14.503  67.073  1.00  0.00    -0.386 C  
BRANCH  52  53
HETATM   53  C   UNL     1     -12.327  13.817  65.881  1.00  0.00    -0.476 C  
HETATM   54  O   UNL     1     -12.310  12.401  66.041  1.00  0.00    -0.627 OA 
HETATM   55  H   UNL     1     -12.725  11.975  65.300  1.00  0.00     0.000 HD 
ENDBRANCH  52  53
ENDBRANCH  50  52
ENDBRANCH  49  50
ENDBRANCH  46  49
ENDBRANCH  39  40
ENDBRANCH  26  39
ENDBRANCH  15  16
ENDBRANCH   6  15
ENDBRANCH   2   4
TORSDOF 13
ENDMDL
MODEL       45
REMARK 921   NORMALIZED FREE ENERGY PREDICTED BY IDOCK:   -4.46 KCAL/MOL
REMARK 922        TOTAL FREE ENERGY PREDICTED BY IDOCK:  -11.31 KCAL/MOL
REMARK 923 INTER-LIGAND FREE ENERGY PREDICTED BY IDOCK:   -9.11 KCAL/MOL
REMARK 924 INTRA-LIGAND FREE ENERGY PREDICTED BY IDOCK:   -2.20 KCAL/MOL
REMARK 927      BINDING AFFINITY PREDICTED BY RF-SCORE:    0.00 PKD
ROOT
HETATM    1  C   UNL     1     -12.995  13.879  72.538  1.00  0.00    -0.359 C  
HETATM    2  N   UNL     1     -13.168  12.731  71.653  1.00  0.00    -0.376 NA 
HETATM    3  H   UNL     1     -14.134  12.682  71.330  1.00  0.00     0.000 HD 
ENDROOT
BRANCH   2   4
HETATM    4  C   UNL     1     -12.236  12.670  70.487  1.00  0.00    -0.299 C  
HETATM    5  C   UNL     1     -12.648  13.635  69.347  1.00  0.00     0.226 C  
HETATM    6  C   UNL     1     -11.554  13.647  68.256  1.00  0.00    -0.339 C  
HETATM    7  O   UNL     1     -12.897  14.950  69.849  1.00  0.00    -0.593 OA 
HETATM    8  H   UNL     1     -13.150  15.541  69.149  1.00  0.00     0.000 HD 
HETATM    9  O   UNL     1     -13.088  10.606  69.442  1.00  0.00    -0.475 OA 
HETATM   10  O   UNL     1     -11.420  12.329  67.721  1.00  0.00    -0.285 OA 
HETATM   11  H   UNL     1     -12.882   9.750  69.086  1.00  0.00     0.000 HD 
HETATM   12  C   UNL     1     -10.934  11.393  68.698  1.00  0.00    -0.220 C  
HETATM   13  C   UNL     1     -11.246  10.344  70.945  1.00  0.00    -0.205 C  
HETATM   14  C   UNL     1     -11.895  11.260  69.900  1.00  0.00    -0.360 C  
BRANCH   6  15
HETATM   15  O   UNL     1     -10.313  14.119  68.787  1.00  0.00    -0.235 OA 
BRANCH  15  16
HETATM   16  C   UNL     1      -9.764  15.295  68.170  1.00  0.00    -0.212 C  
HETATM   17  H1  UNL     1      -5.547  15.454  66.728  1.00  0.00     0.000 HD 
HETATM   18  C   UNL     1      -8.800  16.095  69.075  1.00  0.00    -0.251 C  
HETATM   19  C   UNL     1      -9.032  14.823  66.884  1.00  0.00    -0.253 C  
HETATM   20  H2  UNL     1      -5.429  16.259  68.205  1.00  0.00     0.000 HD 
HETATM   21  C   UNL     1      -6.815  14.711  68.191  1.00  0.00    -0.124 C  
HETATM   22  C   UNL     1      -7.579  15.226  69.425  1.00  0.00    -0.219 C  
HETATM   23  O   UNL     1      -8.693  15.962  66.062  1.00  0.00    -0.321 OA 
HETATM   24  H   UNL     1      -8.245  15.673  65.275  1.00  0.00     0.000 HD 
HETATM   25  N   UNL     1      -6.052  15.795  67.545  1.00  0.00    -0.218 NA 
HETATM   26  C   UNL     1      -7.771  13.970  67.207  1.00  0.00    -0.098 C  
BRANCH  18  27
HETATM   27  N   UNL     1      -8.433  17.377  68.473  1.00  0.00    -0.269 N  
HETATM   28  H   UNL     1      -7.515  17.465  68.037  1.00  0.00     0.000 HD 
HETATM   29  C   UNL     1      -9.268  18.471  68.466  1.00  0.00    -0.335 C  
HETATM   30  O   UNL     1     -10.401  18.472  68.934  1.00  0.00    -0.317 OA 
BRANCH  29  31
HETATM   31  C   UNL     1      -8.673  19.714  67.784  1.00  0.00    -0.323 C  
HETATM   32  H   UNL     1      -6.937  20.652  67.736  1.00  0.00     0.000 HD 
HETATM   33  O   UNL     1      -7.305  19.884  68.157  1.00  0.00    -0.295 OA 
BRANCH  31  34
HETATM   34  C   UNL     1      -8.751  19.594  66.262  1.00  0.00    -0.401 C  
BRANCH  34  35
HETATM   35  C   UNL     1      -7.363  19.527  65.625  1.00  0.00    -0.225 C  
HETATM   36  H1  UNL     1      -6.008  18.096  65.060  1.00  0.00     0.000 HD 
HETATM   37  H2  UNL     1      -7.614  17.583  64.971  1.00  0.00     0.000 HD 
HETATM   38  N   UNL     1      -6.934  18.141  65.485  1.00  0.00    -0.510 NA 
ENDBRANCH  34  35
ENDBRANCH  31  34
ENDBRANCH  29  31
ENDBRANCH  18  27
BRANCH  26  39
HETATM   39  O   UNL     1      -8.053  12.721  67.835  1.00  0.00    -0.134 OA 
BRANCH  39  40
HETATM   40  C   UNL     1      -7.008  11.746  67.913  1.00  0.00    -0.085 C  
HETATM   41  H1  UNL     1      -8.383  10.194  65.122  1.00  0.00     0.000 HD 
HETATM   42  O   UNL     1      -7.155  10.908  69.064  1.00  0.00    -0.077 OA 
HETATM   43  H2  UNL     1      -8.888  11.581  65.911  1.00  0.00     0.000 HD 
HETATM   44  N   UNL     1      -8.372  10.705  66.004  1.00  0.00    -0.156 NA 
HETATM   45  C   UNL     1      -7.025  10.962  66.559  1.00  0.00    -0.139 C  
HETATM   46  C   UNL     1      -6.256   9.855  69.105  1.00  0.00    -0.044 C  
HETATM   47  C   UNL     1      -6.160   9.694  66.616  1.00  0.00    -0.063 C  
HETATM   48  C   UNL     1      -5.770   9.280  67.994  1.00  0.00    -0.038 C  
BRANCH  46  49
HETATM   49  C   UNL     1      -5.895   9.365  70.489  1.00  0.00    -0.052 C  
BRANCH  49  50
HETATM   50  N   UNL     1      -6.639   8.168  70.893  1.00  0.00    -0.037 NA 
HETATM   51  H   UNL     1      -6.011   7.396  71.114  1.00  0.00     0.000 HD 
BRANCH  50  52
HETATM   52  C   UNL     1      -7.555   8.454  72.011  1.00  0.00    -0.117 C  
BRANCH  52  53
HETATM   53  C   UNL     1      -8.525   7.291  72.233  1.00  0.00    -0.115 C  
HETATM   54  O   UNL     1      -9.298   7.051  71.061  1.00  0.00    -0.159 OA 
HETATM   55  H   UNL     1      -9.901   6.329  71.199  1.00  0.00     0.000 HD 
ENDBRANCH  52  53
ENDBRANCH  50  52
ENDBRANCH  49  50
ENDBRANCH  46  49
ENDBRANCH  39  40
ENDBRANCH  26  39
ENDBRANCH  15  16
ENDBRANCH   6  15
ENDBRANCH   2   4
TORSDOF 13
ENDMDL
MODEL       46
REMARK 921   NORMALIZED FREE ENERGY PREDICTED BY IDOCK:   -4.43 KCAL/MOL
REMARK 922        TOTAL FREE ENERGY PREDICTED BY IDOCK:  -11.26 KCAL/MOL
REMARK 923 INTER-LIGAND FREE ENERGY PREDICTED BY IDOCK:   -8.42 KCAL/MOL
REMARK 924 INTRA-LIGAND FREE ENERGY PREDICTED BY IDOCK:   -2.84 KCAL/MOL
REMARK 927      BINDING AFFINITY PREDICTED BY RF-SCORE:    0.00 PKD
ROOT
HETATM    1  C   UNL     1      -6.209  14.583  70.276  1.00  0.00    -0.176 C  
HETATM    2  N   UNL     1      -7.503  14.057  69.850  1.00  0.00    -0.188 NA 
HETATM    3  H   UNL     1      -8.091  14.816  69.504  1.00  0.00     0.000 HD 
ENDROOT
BRANCH   2   4
HETATM    4  C   UNL     1      -7.452  12.953  68.846  1.00  0.00     0.020 C  
HETATM    5  C   UNL     1      -6.433  11.850  69.228  1.00  0.00    -0.111 C  
HETATM    6  C   UNL     1      -6.556  10.665  68.244  1.00  0.00    -0.062 C  
HETATM    7  O   UNL     1      -6.616  11.425  70.580  1.00  0.00    -0.496 OA 
HETATM    8  H   UNL     1      -5.991  10.749  70.814  1.00  0.00     0.000 HD 
HETATM    9  O   UNL     1      -6.052  14.065  67.147  1.00  0.00    -0.342 OA 
HETATM   10  O   UNL     1      -6.263  11.128  66.925  1.00  0.00    -0.086 OA 
HETATM   11  H   UNL     1      -5.948  14.303  66.233  1.00  0.00     0.000 HD 
HETATM   12  C   UNL     1      -7.234  12.080  66.455  1.00  0.00     0.276 C  
HETATM   13  C   UNL     1      -8.418  14.245  66.846  1.00  0.00    -0.133 C  
HETATM   14  C   UNL     1      -7.280  13.345  67.340  1.00  0.00    -0.103 C  
BRANCH   6  15
HETATM   15  O   UNL     1      -7.860  10.084  68.311  1.00  0.00    -0.088 OA 
BRANCH  15  16
HETATM   16  C   UNL     1      -8.074   8.909  67.510  1.00  0.00    -0.109 C  
HETATM   17  H1  UNL     1     -12.022   6.839  67.366  1.00  0.00     0.000 HD 
HETATM   18  C   UNL     1      -8.146   7.594  68.319  1.00  0.00    -0.124 C  
HETATM   19  C   UNL     1      -9.399   9.137  66.731  1.00  0.00    -0.165 C  
HETATM   20  H2  UNL     1     -11.168   5.862  68.444  1.00  0.00     0.000 HD 
HETATM   21  C   UNL     1     -10.694   7.882  68.569  1.00  0.00    -0.024 C  
HETATM   22  C   UNL     1      -9.347   7.642  69.279  1.00  0.00    -0.148 C  
HETATM   23  O   UNL     1      -9.543   8.136  65.699  1.00  0.00    -0.433 OA 
HETATM   24  H   UNL     1     -10.354   8.275  65.223  1.00  0.00     0.000 HD 
HETATM   25  N   UNL     1     -11.131   6.680  67.835  1.00  0.00    -0.254 NA 
HETATM   26  C   UNL     1     -10.637   9.156  67.672  1.00  0.00    -0.242 C  
BRANCH  18  27
HETATM   27  N   UNL     1      -8.162   6.422  67.443  1.00  0.00    -0.116 N  
HETATM   28  H   UNL     1      -8.529   6.528  66.496  1.00  0.00     0.000 HD 
HETATM   29  C   UNL     1      -7.707   5.184  67.834  1.00  0.00    -0.087 C  
HETATM   30  O   UNL     1      -7.221   4.949  68.935  1.00  0.00    -0.052 OA 
BRANCH  29  31
HETATM   31  C   UNL     1      -7.827   4.098  66.753  1.00  0.00    -0.097 C  
HETATM   32  H   UNL     1      -9.271   3.193  65.758  1.00  0.00     0.000 HD 
HETATM   33  O   UNL     1      -9.197   3.864  66.426  1.00  0.00    -0.144 OA 
BRANCH  31  34
HETATM   34  C   UNL     1      -7.086   4.508  65.480  1.00  0.00    -0.067 C  
BRANCH  34  35
HETATM   35  C   UNL     1      -8.047   4.745  64.314  1.00  0.00    -0.111 C  
HETATM   36  H1  UNL     1      -8.826   6.331  63.275  1.00  0.00     0.000 HD 
HETATM   37  H2  UNL     1      -7.282   6.620  63.897  1.00  0.00     0.000 HD 
HETATM   38  N   UNL     1      -8.186   6.173  64.052  1.00  0.00    -0.072 NA 
ENDBRANCH  34  35
ENDBRANCH  31  34
ENDBRANCH  29  31
ENDBRANCH  18  27
BRANCH  26  39
HETATM   39  O   UNL     1     -10.665  10.252  68.584  1.00  0.00    -0.200 OA 
BRANCH  39  40
HETATM   40  C   UNL     1     -10.781  11.576  68.055  1.00  0.00    -0.202 C  
HETATM   41  H1  UNL     1     -12.307  12.526  71.032  1.00  0.00     0.000 HD 
HETATM   42  O   UNL     1     -11.723  11.634  66.979  1.00  0.00    -0.564 OA 
HETATM   43  H2  UNL     1     -11.702  11.030  70.589  1.00  0.00     0.000 HD 
HETATM   44  N   UNL     1     -12.071  11.918  70.248  1.00  0.00    -0.344 NA 
HETATM   45  C   UNL     1     -11.144  12.510  69.257  1.00  0.00    -0.142 C  
HETATM   46  C   UNL     1     -11.982  12.919  66.532  1.00  0.00    -0.377 C  
HETATM   47  C   UNL     1     -11.591  13.903  68.792  1.00  0.00    -0.370 C  
HETATM   48  C   UNL     1     -11.919  13.988  67.340  1.00  0.00    -0.439 C  
BRANCH  46  49
HETATM   49  C   UNL     1     -12.387  13.029  65.079  1.00  0.00    -0.473 C  
BRANCH  49  50
HETATM   50  N   UNL     1     -11.295  12.735  64.148  1.00  0.00    -0.363 NA 
HETATM   51  H   UNL     1     -10.465  13.289  64.360  1.00  0.00     0.000 HD 
BRANCH  50  52
HETATM   52  C   UNL     1     -10.987  11.295  64.115  1.00  0.00    -0.305 C  
BRANCH  52  53
HETATM   53  C   UNL     1      -9.717  11.026  63.304  1.00  0.00    -0.364 C  
HETATM   54  O   UNL     1      -9.567   9.632  63.051  1.00  0.00    -0.541 OA 
HETATM   55  H   UNL     1      -8.778   9.466  62.548  1.00  0.00     0.000 HD 
ENDBRANCH  52  53
ENDBRANCH  50  52
ENDBRANCH  49  50
ENDBRANCH  46  49
ENDBRANCH  39  40
ENDBRANCH  26  39
ENDBRANCH  15  16
ENDBRANCH   6  15
ENDBRANCH   2   4
TORSDOF 13
ENDMDL
MODEL       47
REMARK 921   NORMALIZED FREE ENERGY PREDICTED BY IDOCK:   -4.41 KCAL/MOL
REMARK 922        TOTAL FREE ENERGY PREDICTED BY IDOCK:  -11.22 KCAL/MOL
REMARK 923 INTER-LIGAND FREE ENERGY PREDICTED BY IDOCK:   -8.43 KCAL/MOL
REMARK 924 INTRA-LIGAND FREE ENERGY PREDICTED BY IDOCK:   -2.80 KCAL/MOL
REMARK 927      BINDING AFFINITY PREDICTED BY RF-SCORE:    0.00 PKD
ROOT
HETATM    1  C   UNL     1      -8.181   5.486  71.769  1.00  0.00    -0.119 C  
HETATM    2  N   UNL     1      -8.593   6.747  72.378  1.00  0.00    -0.123 NA 
HETATM    3  H   UNL     1      -7.790   7.370  72.468  1.00  0.00     0.000 HD 
ENDROOT
BRANCH   2   4
HETATM    4  C   UNL     1      -9.715   7.457  71.694  1.00  0.00    -0.154 C  
HETATM    5  C   UNL     1      -9.451   8.976  71.542  1.00  0.00    -0.246 C  
HETATM    6  C   UNL     1     -10.564   9.613  70.680  1.00  0.00    -0.319 C  
HETATM    7  O   UNL     1      -8.157   9.222  70.986  1.00  0.00    -0.251 OA 
HETATM    8  H   UNL     1      -7.995  10.153  70.894  1.00  0.00     0.000 HD 
HETATM    9  O   UNL     1     -11.265   7.622  73.605  1.00  0.00    -0.537 OA 
HETATM   10  O   UNL     1     -11.819   9.425  71.334  1.00  0.00    -0.319 OA 
HETATM   11  H   UNL     1     -12.145   7.475  73.931  1.00  0.00     0.000 HD 
HETATM   12  C   UNL     1     -12.187   8.038  71.416  1.00  0.00    -0.309 C  
HETATM   13  C   UNL     1     -11.564   5.737  72.165  1.00  0.00    -0.265 C  
HETATM   14  C   UNL     1     -11.165   7.215  72.231  1.00  0.00    -0.261 C  
BRANCH   6  15
HETATM   15  O   UNL     1     -10.574   9.048  69.367  1.00  0.00    -0.226 OA 
BRANCH  15  16
HETATM   16  C   UNL     1     -10.891   9.947  68.291  1.00  0.00    -0.230 C  
HETATM   17  H1  UNL     1      -7.806  11.319  65.377  1.00  0.00     0.000 HD 
HETATM   18  C   UNL     1     -10.394  11.395  68.507  1.00  0.00    -0.205 C  
HETATM   19  C   UNL     1     -10.258   9.345  67.006  1.00  0.00    -0.255 C  
HETATM   20  H2  UNL     1      -7.899  12.643  66.417  1.00  0.00     0.000 HD 
HETATM   21  C   UNL     1      -8.167  10.807  67.353  1.00  0.00    -0.116 C  
HETATM   22  C   UNL     1      -8.858  11.407  68.593  1.00  0.00    -0.126 C  
HETATM   23  O   UNL     1     -10.761  10.032  65.839  1.00  0.00    -0.011 OA 
HETATM   24  H   UNL     1     -10.374   9.664  65.053  1.00  0.00     0.000 HD 
HETATM   25  N   UNL     1      -8.263  11.716  66.197  1.00  0.00     0.003 NA 
HETATM   26  C   UNL     1      -8.703   9.375  67.049  1.00  0.00    -0.127 C  
BRANCH  18  27
HETATM   27  N   UNL     1     -10.915  12.302  67.484  1.00  0.00    -0.242 N  
HETATM   28  H   UNL     1     -10.657  12.137  66.511  1.00  0.00     0.000 HD 
HETATM   29  C   UNL     1     -11.736  13.369  67.772  1.00  0.00    -0.359 C  
HETATM   30  O   UNL     1     -12.131  13.645  68.899  1.00  0.00    -0.347 OA 
BRANCH  29  31
HETATM   31  C   UNL     1     -12.157  14.190  66.543  1.00  0.00    -0.454 C  
HETATM   32  H   UNL     1     -11.322  15.479  65.303  1.00  0.00     0.000 HD 
HETATM   33  O   UNL     1     -11.061  14.971  66.063  1.00  0.00    -0.334 OA 
BRANCH  31  34
HETATM   34  C   UNL     1     -12.637  13.279  65.413  1.00  0.00    -0.526 C  
BRANCH  34  35
HETATM   35  C   UNL     1     -11.753  13.399  64.171  1.00  0.00    -0.419 C  
HETATM   36  H1  UNL     1     -10.330  12.292  63.196  1.00  0.00     0.000 HD 
HETATM   37  H2  UNL     1     -11.474  11.357  64.014  1.00  0.00     0.000 HD 
HETATM   38  N   UNL     1     -10.919  12.212  64.024  1.00  0.00    -0.343 NA 
ENDBRANCH  34  35
ENDBRANCH  31  34
ENDBRANCH  29  31
ENDBRANCH  18  27
BRANCH  26  39
HETATM   39  O   UNL     1      -8.127   8.542  68.053  1.00  0.00    -0.113 OA 
BRANCH  39  40
HETATM   40  C   UNL     1      -7.974   7.147  67.775  1.00  0.00    -0.114 C  
HETATM   41  H1  UNL     1      -5.127   7.165  69.773  1.00  0.00     0.000 HD 
HETATM   42  O   UNL     1      -7.614   6.918  66.409  1.00  0.00    -0.085 OA 
HETATM   43  H2  UNL     1      -6.173   8.422  69.419  1.00  0.00     0.000 HD 
HETATM   44  N   UNL     1      -5.810   7.522  69.105  1.00  0.00    -0.029 NA 
HETATM   45  C   UNL     1      -6.926   6.599  68.801  1.00  0.00    -0.080 C  
HETATM   46  C   UNL     1      -7.308   5.596  66.127  1.00  0.00    -0.078 C  
HETATM   47  C   UNL     1      -6.440   5.189  68.432  1.00  0.00    -0.040 C  
HETATM   48  C   UNL     1      -6.776   4.770  67.041  1.00  0.00    -0.051 C  
BRANCH  46  49
HETATM   49  C   UNL     1      -7.570   5.161  64.703  1.00  0.00    -0.079 C  
BRANCH  49  50
HETATM   50  N   UNL     1      -6.400   5.292  63.831  1.00  0.00    -0.022 NA 
HETATM   51  H   UNL     1      -6.109   4.388  63.459  1.00  0.00     0.000 HD 
BRANCH  50  52
HETATM   52  C   UNL     1      -6.638   6.267  62.753  1.00  0.00    -0.037 C  
BRANCH  52  53
HETATM   53  C   UNL     1      -8.137   6.442  62.496  1.00  0.00    -0.088 C  
HETATM   54  O   UNL     1      -8.540   7.782  62.767  1.00  0.00    -0.394 OA 
HETATM   55  H   UNL     1      -9.471   7.890  62.608  1.00  0.00     0.000 HD 
ENDBRANCH  52  53
ENDBRANCH  50  52
ENDBRANCH  49  50
ENDBRANCH  46  49
ENDBRANCH  39  40
ENDBRANCH  26  39
ENDBRANCH  15  16
ENDBRANCH   6  15
ENDBRANCH   2   4
TORSDOF 13
ENDMDL
MODEL       48
REMARK 921   NORMALIZED FREE ENERGY PREDICTED BY IDOCK:   -4.36 KCAL/MOL
REMARK 922        TOTAL FREE ENERGY PREDICTED BY IDOCK:  -11.14 KCAL/MOL
REMARK 923 INTER-LIGAND FREE ENERGY PREDICTED BY IDOCK:   -9.54 KCAL/MOL
REMARK 924 INTRA-LIGAND FREE ENERGY PREDICTED BY IDOCK:   -1.59 KCAL/MOL
REMARK 927      BINDING AFFINITY PREDICTED BY RF-SCORE:    0.00 PKD
ROOT
HETATM    1  C   UNL     1     -12.292  15.668  63.956  1.00  0.00     0.253 C  
HETATM    2  N   UNL     1     -11.025  15.527  64.668  1.00  0.00    -0.664 NA 
HETATM    3  H   UNL     1     -10.832  16.371  65.208  1.00  0.00     0.000 HD 
ENDROOT
BRANCH   2   4
HETATM    4  C   UNL     1     -10.909  14.323  65.545  1.00  0.00    -0.322 C  
HETATM    5  C   UNL     1     -10.889  13.001  64.737  1.00  0.00    -0.337 C  
HETATM    6  C   UNL     1     -10.595  11.817  65.685  1.00  0.00    -0.268 C  
HETATM    7  O   UNL     1      -9.939  13.063  63.670  1.00  0.00    -0.717 OA 
HETATM    8  H   UNL     1      -9.927  12.252  63.175  1.00  0.00     0.000 HD 
HETATM    9  O   UNL     1     -13.258  14.176  66.282  1.00  0.00    -0.334 OA 
HETATM   10  O   UNL     1     -11.630  11.744  66.667  1.00  0.00    -0.490 OA 
HETATM   11  H   UNL     1     -13.859  14.102  67.013  1.00  0.00     0.000 HD 
HETATM   12  C   UNL     1     -11.642  12.893  67.530  1.00  0.00    -0.356 C  
HETATM   13  C   UNL     1     -11.775  15.381  67.719  1.00  0.00    -0.159 C  
HETATM   14  C   UNL     1     -11.900  14.201  66.750  1.00  0.00    -0.425 C  
BRANCH   6  15
HETATM   15  O   UNL     1      -9.311  11.964  66.296  1.00  0.00    -0.221 OA 
BRANCH  15  16
HETATM   16  C   UNL     1      -8.905  10.908  67.184  1.00  0.00    -0.135 C  
HETATM   17  H1  UNL     1      -5.113  11.118  69.521  1.00  0.00     0.000 HD 
HETATM   18  C   UNL     1      -7.759  10.027  66.638  1.00  0.00    -0.104 C  
HETATM   19  C   UNL     1      -8.480  11.585  68.516  1.00  0.00    -0.143 C  
HETATM   20  H2  UNL     1      -4.664  10.118  68.240  1.00  0.00     0.000 HD 
HETATM   21  C   UNL     1      -6.029  11.598  67.724  1.00  0.00    -0.052 C  
HETATM   22  C   UNL     1      -6.496  10.884  66.441  1.00  0.00    -0.130 C  
HETATM   23  O   UNL     1      -8.325  10.588  69.549  1.00  0.00    -0.292 OA 
HETATM   24  H   UNL     1      -8.064  11.002  70.364  1.00  0.00     0.000 HD 
HETATM   25  N   UNL     1      -5.422  10.646  68.672  1.00  0.00    -0.041 NA 
HETATM   26  C   UNL     1      -7.184  12.432  68.355  1.00  0.00    -0.110 C  
BRANCH  18  27
HETATM   27  N   UNL     1      -7.527   8.858  67.487  1.00  0.00    -0.085 N  
HETATM   28  H   UNL     1      -6.728   8.868  68.121  1.00  0.00     0.000 HD 
HETATM   29  C   UNL     1      -8.335   7.744  67.471  1.00  0.00    -0.120 C  
HETATM   30  O   UNL     1      -9.336   7.633  66.771  1.00  0.00    -0.154 OA 
BRANCH  29  31
HETATM   31  C   UNL     1      -7.899   6.634  68.441  1.00  0.00    -0.107 C  
HETATM   32  H   UNL     1      -6.954   6.505  70.169  1.00  0.00     0.000 HD 
HETATM   33  O   UNL     1      -7.224   7.191  69.570  1.00  0.00    -0.076 OA 
BRANCH  31  34
HETATM   34  C   UNL     1      -9.104   5.836  68.938  1.00  0.00    -0.121 C  
BRANCH  34  35
HETATM   35  C   UNL     1      -9.670   6.411  70.236  1.00  0.00    -0.167 C  
HETATM   36  H1  UNL     1     -11.445   7.173  70.923  1.00  0.00     0.000 HD 
HETATM   37  H2  UNL     1     -11.629   6.012  69.709  1.00  0.00     0.000 HD 
HETATM   38  N   UNL     1     -11.067   6.789  70.058  1.00  0.00    -0.291 NA 
ENDBRANCH  34  35
ENDBRANCH  31  34
ENDBRANCH  29  31
ENDBRANCH  18  27
BRANCH  26  39
HETATM   39  O   UNL     1      -7.327  13.569  67.505  1.00  0.00    -0.165 OA 
BRANCH  39  40
HETATM   40  C   UNL     1      -6.574  14.747  67.810  1.00  0.00    -0.170 C  
HETATM   41  H1  UNL     1      -8.852  15.427  70.347  1.00  0.00     0.000 HD 
HETATM   42  O   UNL     1      -6.686  15.726  66.773  1.00  0.00    -0.227 OA 
HETATM   43  H2  UNL     1      -8.809  14.130  69.291  1.00  0.00     0.000 HD 
HETATM   44  N   UNL     1      -8.527  15.099  69.438  1.00  0.00    -0.218 NA 
HETATM   45  C   UNL     1      -7.073  15.250  69.205  1.00  0.00    -0.177 C  
HETATM   46  C   UNL     1      -6.098  16.941  67.087  1.00  0.00    -0.173 C  
HETATM   47  C   UNL     1      -6.570  16.665  69.522  1.00  0.00    -0.212 C  
HETATM   48  C   UNL     1      -6.019  17.398  68.345  1.00  0.00    -0.159 C  
BRANCH  46  49
HETATM   49  C   UNL     1      -5.594  17.740  65.906  1.00  0.00    -0.189 C  
BRANCH  49  50
HETATM   50  N   UNL     1      -6.668  18.344  65.113  1.00  0.00    -0.472 NA 
HETATM   51  H   UNL     1      -7.475  17.724  65.045  1.00  0.00     0.000 HD 
BRANCH  50  52
HETATM   52  C   UNL     1      -7.048  19.668  65.637  1.00  0.00    -0.300 C  
BRANCH  52  53
HETATM   53  C   UNL     1      -8.504  19.671  66.108  1.00  0.00    -0.334 C  
HETATM   54  O   UNL     1      -8.786  20.848  66.860  1.00  0.00    -0.581 OA 
HETATM   55  H   UNL     1      -9.690  20.850  67.152  1.00  0.00     0.000 HD 
ENDBRANCH  52  53
ENDBRANCH  50  52
ENDBRANCH  49  50
ENDBRANCH  46  49
ENDBRANCH  39  40
ENDBRANCH  26  39
ENDBRANCH  15  16
ENDBRANCH   6  15
ENDBRANCH   2   4
TORSDOF 13
ENDMDL
MODEL       49
REMARK 921   NORMALIZED FREE ENERGY PREDICTED BY IDOCK:   -4.31 KCAL/MOL
REMARK 922        TOTAL FREE ENERGY PREDICTED BY IDOCK:  -11.06 KCAL/MOL
REMARK 923 INTER-LIGAND FREE ENERGY PREDICTED BY IDOCK:   -8.77 KCAL/MOL
REMARK 924 INTRA-LIGAND FREE ENERGY PREDICTED BY IDOCK:   -2.29 KCAL/MOL
REMARK 927      BINDING AFFINITY PREDICTED BY RF-SCORE:    0.00 PKD
ROOT
HETATM    1  C   UNL     1      -9.157   9.432  62.499  1.00  0.00    -0.158 C  
HETATM    2  N   UNL     1      -7.855   8.839  62.789  1.00  0.00    -0.131 NA 
HETATM    3  H   UNL     1      -7.112   9.425  62.409  1.00  0.00     0.000 HD 
ENDROOT
BRANCH   2   4
HETATM    4  C   UNL     1      -7.587   8.546  64.229  1.00  0.00    -0.122 C  
HETATM    5  C   UNL     1      -6.950   9.749  64.971  1.00  0.00    -0.119 C  
HETATM    6  C   UNL     1      -6.861   9.440  66.482  1.00  0.00    -0.083 C  
HETATM    7  O   UNL     1      -7.684  10.952  64.728  1.00  0.00    -0.350 OA 
HETATM    8  H   UNL     1      -7.293  11.689  65.182  1.00  0.00     0.000 HD 
HETATM    9  O   UNL     1      -5.512   7.241  63.960  1.00  0.00    -0.032 OA 
HETATM   10  O   UNL     1      -6.034   8.290  66.670  1.00  0.00    -0.049 OA 
HETATM   11  H   UNL     1      -5.041   6.443  64.168  1.00  0.00     0.000 HD 
HETATM   12  C   UNL     1      -6.614   7.105  66.100  1.00  0.00    -0.052 C  
HETATM   13  C   UNL     1      -7.543   5.983  64.069  1.00  0.00    -0.087 C  
HETATM   14  C   UNL     1      -6.811   7.232  64.574  1.00  0.00    -0.050 C  
BRANCH   6  15
HETATM   15  O   UNL     1      -8.163   9.237  67.036  1.00  0.00    -0.114 OA 
BRANCH  15  16
HETATM   16  C   UNL     1      -9.002  10.401  67.129  1.00  0.00    -0.139 C  
HETATM   17  H1  UNL     1     -11.586  11.168  70.682  1.00  0.00     0.000 HD 
HETATM   18  C   UNL     1     -10.505  10.119  66.909  1.00  0.00    -0.222 C  
HETATM   19  C   UNL     1      -8.766  11.007  68.540  1.00  0.00    -0.159 C  
HETATM   20  H2  UNL     1     -12.701  10.539  69.583  1.00  0.00     0.000 HD 
HETATM   21  C   UNL     1     -10.802   9.708  69.435  1.00  0.00    -0.217 C  
HETATM   22  C   UNL     1     -11.020   9.172  68.007  1.00  0.00    -0.032 C  
HETATM   23  O   UNL     1      -9.353  12.325  68.615  1.00  0.00    -0.363 OA 
HETATM   24  H   UNL     1      -9.209  12.696  69.478  1.00  0.00     0.000 HD 
HETATM   25  N   UNL     1     -11.731  10.813  69.737  1.00  0.00    -0.296 NA 
HETATM   26  C   UNL     1      -9.308  10.087  69.671  1.00  0.00    -0.220 C  
BRANCH  18  27
HETATM   27  N   UNL     1     -11.278  11.358  66.816  1.00  0.00    -0.295 N  
HETATM   28  H   UNL     1     -11.816  11.658  67.630  1.00  0.00     0.000 HD 
HETATM   29  C   UNL     1     -11.316  12.138  65.683  1.00  0.00    -0.347 C  
HETATM   30  O   UNL     1     -10.689  11.890  64.659  1.00  0.00    -0.280 OA 
BRANCH  29  31
HETATM   31  C   UNL     1     -12.199  13.390  65.809  1.00  0.00    -0.458 C  
HETATM   32  H   UNL     1     -12.463  14.856  67.104  1.00  0.00     0.000 HD 
HETATM   33  O   UNL     1     -11.917  14.082  67.027  1.00  0.00    -0.403 OA 
BRANCH  31  34
HETATM   34  C   UNL     1     -11.963  14.347  64.640  1.00  0.00    -0.475 C  
BRANCH  34  35
HETATM   35  C   UNL     1     -11.024  15.491  65.022  1.00  0.00    -0.440 C  
HETATM   36  H1  UNL     1     -10.716  17.451  64.506  1.00  0.00     0.000 HD 
HETATM   37  H2  UNL     1     -12.322  16.952  64.349  1.00  0.00     0.000 HD 
HETATM   38  N   UNL     1     -11.342  16.688  64.252  1.00  0.00    -1.093 NA 
ENDBRANCH  34  35
ENDBRANCH  31  34
ENDBRANCH  29  31
ENDBRANCH  18  27
BRANCH  26  39
HETATM   39  O   UNL     1      -8.625   8.841  69.793  1.00  0.00    -0.124 OA 
BRANCH  39  40
HETATM   40  C   UNL     1      -9.074   7.911  70.783  1.00  0.00    -0.152 C  
HETATM   41  H1  UNL     1      -6.723   9.252  72.966  1.00  0.00     0.000 HD 
HETATM   42  O   UNL     1      -8.718   6.567  70.443  1.00  0.00    -0.144 OA 
HETATM   43  H2  UNL     1      -7.069   9.694  71.389  1.00  0.00     0.000 HD 
HETATM   44  N   UNL     1      -7.109   8.940  72.075  1.00  0.00    -0.303 NA 
HETATM   45  C   UNL     1      -8.481   8.390  72.150  1.00  0.00    -0.181 C  
HETATM   46  C   UNL     1      -8.998   5.646  71.440  1.00  0.00    -0.140 C  
HETATM   47  C   UNL     1      -8.631   7.327  73.248  1.00  0.00    -0.168 C  
HETATM   48  C   UNL     1      -8.976   5.968  72.742  1.00  0.00    -0.123 C  
BRANCH  46  49
HETATM   49  C   UNL     1      -9.283   4.240  70.962  1.00  0.00    -0.140 C  
BRANCH  49  50
HETATM   50  N   UNL     1     -10.006   4.196  69.687  1.00  0.00    -0.129 NA 
HETATM   51  H   UNL     1     -10.270   5.131  69.376  1.00  0.00     0.000 HD 
BRANCH  50  52
HETATM   52  C   UNL     1      -9.235   3.482  68.654  1.00  0.00    -0.165 C  
BRANCH  52  53
HETATM   53  C   UNL     1      -8.879   4.417  67.495  1.00  0.00    -0.108 C  
HETATM   54  O   UNL     1      -9.361   5.734  67.746  1.00  0.00    -0.106 OA 
HETATM   55  H   UNL     1      -9.141   6.314  67.027  1.00  0.00     0.000 HD 
ENDBRANCH  52  53
ENDBRANCH  50  52
ENDBRANCH  49  50
ENDBRANCH  46  49
ENDBRANCH  39  40
ENDBRANCH  26  39
ENDBRANCH  15  16
ENDBRANCH   6  15
ENDBRANCH   2   4
TORSDOF 13
ENDMDL
MODEL       50
REMARK 921   NORMALIZED FREE ENERGY PREDICTED BY IDOCK:   -4.31 KCAL/MOL
REMARK 922        TOTAL FREE ENERGY PREDICTED BY IDOCK:  -11.04 KCAL/MOL
REMARK 923 INTER-LIGAND FREE ENERGY PREDICTED BY IDOCK:   -8.43 KCAL/MOL
REMARK 924 INTRA-LIGAND FREE ENERGY PREDICTED BY IDOCK:   -2.61 KCAL/MOL
REMARK 927      BINDING AFFINITY PREDICTED BY RF-SCORE:    0.00 PKD
ROOT
HETATM    1  C   UNL     1     -10.214   4.074  72.010  1.00  0.00    -0.116 C  
HETATM    2  N   UNL     1      -9.371   5.080  72.649  1.00  0.00    -0.133 NA 
HETATM    3  H   UNL     1      -8.429   4.713  72.782  1.00  0.00     0.000 HD 
ENDROOT
BRANCH   2   4
HETATM    4  C   UNL     1      -9.311   6.403  71.958  1.00  0.00    -0.151 C  
HETATM    5  C   UNL     1      -7.898   6.720  71.407  1.00  0.00    -0.098 C  
HETATM    6  C   UNL     1      -7.948   8.012  70.561  1.00  0.00    -0.096 C  
HETATM    7  O   UNL     1      -7.381   5.623  70.650  1.00  0.00    -0.078 OA 
HETATM    8  H   UNL     1      -6.515   5.817  70.312  1.00  0.00     0.000 HD 
HETATM    9  O   UNL     1      -9.176   7.852  73.949  1.00  0.00    -0.329 OA 
HETATM   10  O   UNL     1      -8.373   9.093  71.394  1.00  0.00    -0.321 OA 
HETATM   11  H   UNL     1      -9.523   8.607  74.410  1.00  0.00     0.000 HD 
HETATM   12  C   UNL     1      -9.722   8.922  71.859  1.00  0.00    -0.279 C  
HETATM   13  C   UNL     1     -11.366   7.476  73.065  1.00  0.00    -0.313 C  
HETATM   14  C   UNL     1      -9.883   7.647  72.716  1.00  0.00    -0.226 C  
BRANCH   6  15
HETATM   15  O   UNL     1      -8.819   7.850  69.439  1.00  0.00    -0.143 OA 
BRANCH  15  16
HETATM   16  C   UNL     1      -8.194   7.861  68.144  1.00  0.00    -0.123 C  
HETATM   17  H1  UNL     1      -9.454  10.698  64.942  1.00  0.00     0.000 HD 
HETATM   18  C   UNL     1      -9.050   7.232  67.022  1.00  0.00    -0.135 C  
HETATM   19  C   UNL     1      -7.878   9.346  67.815  1.00  0.00    -0.095 C  
HETATM   20  H2  UNL     1     -10.245   9.285  64.470  1.00  0.00     0.000 HD 
HETATM   21  C   UNL     1     -10.102   9.532  66.529  1.00  0.00    -0.256 C  
HETATM   22  C   UNL     1     -10.346   8.043  66.843  1.00  0.00    -0.408 C  
HETATM   23  O   UNL     1      -7.005   9.423  66.666  1.00  0.00    -0.079 OA 
HETATM   24  H   UNL     1      -6.812  10.331  66.465  1.00  0.00     0.000 HD 
HETATM   25  N   UNL     1      -9.616   9.713  65.149  1.00  0.00    -0.286 NA 
HETATM   26  C   UNL     1      -9.170  10.185  67.594  1.00  0.00    -0.141 C  
BRANCH  18  27
HETATM   27  N   UNL     1      -8.291   7.090  65.779  1.00  0.00    -0.138 N  
HETATM   28  H   UNL     1      -7.747   7.887  65.448  1.00  0.00     0.000 HD 
HETATM   29  C   UNL     1      -8.276   5.932  65.035  1.00  0.00    -0.138 C  
HETATM   30  O   UNL     1      -8.868   4.906  65.351  1.00  0.00    -0.139 OA 
BRANCH  29  31
HETATM   31  C   UNL     1      -7.415   6.011  63.764  1.00  0.00    -0.073 C  
HETATM   32  H   UNL     1      -7.606   6.692  61.921  1.00  0.00     0.000 HD 
HETATM   33  O   UNL     1      -8.138   6.643  62.707  1.00  0.00    -0.104 OA 
BRANCH  31  34
HETATM   34  C   UNL     1      -6.133   6.804  64.019  1.00  0.00    -0.035 C  
BRANCH  34  35
HETATM   35  C   UNL     1      -6.042   8.040  63.124  1.00  0.00    -0.072 C  
HETATM   36  H1  UNL     1      -6.273  10.070  63.295  1.00  0.00     0.000 HD 
HETATM   37  H2  UNL     1      -5.735   9.326  64.713  1.00  0.00     0.000 HD 
HETATM   38  N   UNL     1      -6.333   9.245  63.891  1.00  0.00    -0.089 NA 
ENDBRANCH  34  35
ENDBRANCH  31  34
ENDBRANCH  29  31
ENDBRANCH  18  27
BRANCH  26  39
HETATM   39  O   UNL     1      -9.982  10.331  68.758  1.00  0.00    -0.164 OA 
BRANCH  39  40
HETATM   40  C   UNL     1     -10.318  11.651  69.193  1.00  0.00    -0.014 C  
HETATM   41  H1  UNL     1     -13.477  10.463  70.030  1.00  0.00     0.000 HD 
HETATM   42  O   UNL     1     -10.411  12.562  68.093  1.00  0.00    -0.215 OA 
HETATM   43  H2  UNL     1     -12.173   9.629  69.395  1.00  0.00     0.000 HD 
HETATM   44  N   UNL     1     -12.614  10.544  69.492  1.00  0.00    -0.136 NA 
HETATM   45  C   UNL     1     -11.642  11.528  70.019  1.00  0.00    -0.282 C  
HETATM   46  C   UNL     1     -10.880  13.817  68.445  1.00  0.00    -0.252 C  
HETATM   47  C   UNL     1     -12.281  12.896  70.295  1.00  0.00    -0.362 C  
HETATM   48  C   UNL     1     -11.734  14.006  69.462  1.00  0.00    -0.367 C  
BRANCH  46  49
HETATM   49  C   UNL     1     -10.400  14.955  67.574  1.00  0.00    -0.239 C  
BRANCH  49  50
HETATM   50  N   UNL     1     -11.429  15.462  66.661  1.00  0.00    -0.111 NA 
HETATM   51  H   UNL     1     -11.054  16.176  66.037  1.00  0.00     0.000 HD 
BRANCH  50  52
HETATM   52  C   UNL     1     -12.068  14.368  65.909  1.00  0.00    -0.348 C  
BRANCH  52  53
HETATM   53  C   UNL     1     -11.723  14.457  64.420  1.00  0.00    -0.375 C  
HETATM   54  O   UNL     1     -12.406  15.549  63.810  1.00  0.00    -0.976 OA 
HETATM   55  H   UNL     1     -12.193  15.603  62.886  1.00  0.00     0.000 HD 
ENDBRANCH  52  53
ENDBRANCH  50  52
ENDBRANCH  49  50
ENDBRANCH  46  49
ENDBRANCH  39  40
ENDBRANCH  26  39
ENDBRANCH  15  16
ENDBRANCH   6  15
ENDBRANCH   2   4
TORSDOF 13
ENDMDL
MODEL       51
REMARK 921   NORMALIZED FREE ENERGY PREDICTED BY IDOCK:   -4.29 KCAL/MOL
REMARK 922        TOTAL FREE ENERGY PREDICTED BY IDOCK:  -11.01 KCAL/MOL
REMARK 923 INTER-LIGAND FREE ENERGY PREDICTED BY IDOCK:  -10.03 KCAL/MOL
REMARK 924 INTRA-LIGAND FREE ENERGY PREDICTED BY IDOCK:   -0.99 KCAL/MOL
REMARK 927      BINDING AFFINITY PREDICTED BY RF-SCORE:    0.00 PKD
ROOT
HETATM    1  C   UNL     1      -8.673  11.008  62.394  1.00  0.00    -0.303 C  
HETATM    2  N   UNL     1      -7.348  10.569  62.818  1.00  0.00    -0.265 NA 
HETATM    3  H   UNL     1      -6.783  11.374  63.090  1.00  0.00     0.000 HD 
ENDROOT
BRANCH   2   4
HETATM    4  C   UNL     1      -7.325   9.540  63.901  1.00  0.00    -0.114 C  
HETATM    5  C   UNL     1      -6.501   9.993  65.133  1.00  0.00    -0.115 C  
HETATM    6  C   UNL     1      -6.663   8.964  66.273  1.00  0.00    -0.074 C  
HETATM    7  O   UNL     1      -6.885  11.304  65.556  1.00  0.00    -0.344 OA 
HETATM    8  H   UNL     1      -6.379  11.581  66.311  1.00  0.00     0.000 HD 
HETATM    9  O   UNL     1      -5.618   8.038  62.947  1.00  0.00    -0.061 OA 
HETATM   10  O   UNL     1      -6.171   7.699  65.828  1.00  0.00    -0.038 OA 
HETATM   11  H   UNL     1      -5.384   7.149  62.708  1.00  0.00     0.000 HD 
HETATM   12  C   UNL     1      -6.956   7.160  64.751  1.00  0.00    -0.051 C  
HETATM   13  C   UNL     1      -7.894   7.492  62.458  1.00  0.00    -0.129 C  
HETATM   14  C   UNL     1      -6.940   8.075  63.507  1.00  0.00    -0.077 C  
BRANCH   6  15
HETATM   15  O   UNL     1      -8.030   8.872  66.683  1.00  0.00    -0.102 OA 
BRANCH  15  16
HETATM   16  C   UNL     1      -8.613  10.071  67.220  1.00  0.00    -0.125 C  
HETATM   17  H1  UNL     1     -11.184  10.017  70.864  1.00  0.00     0.000 HD 
HETATM   18  C   UNL     1     -10.128  10.217  66.947  1.00  0.00    -0.223 C  
HETATM   19  C   UNL     1      -8.339  10.054  68.749  1.00  0.00    -0.121 C  
HETATM   20  H2  UNL     1     -12.339  10.088  69.638  1.00  0.00     0.000 HD 
HETATM   21  C   UNL     1     -10.648   8.984  69.148  1.00  0.00    -0.203 C  
HETATM   22  C   UNL     1     -10.889   9.067  67.629  1.00  0.00    -0.133 C  
HETATM   23  O   UNL     1      -8.644  11.346  69.320  1.00  0.00    -0.376 OA 
HETATM   24  H   UNL     1      -8.477  11.335  70.255  1.00  0.00     0.000 HD 
HETATM   25  N   UNL     1     -11.344  10.072  69.859  1.00  0.00    -0.254 NA 
HETATM   26  C   UNL     1      -9.124   8.922  69.472  1.00  0.00    -0.146 C  
BRANCH  18  27
HETATM   27  N   UNL     1     -10.622  11.538  67.336  1.00  0.00    -0.205 N  
HETATM   28  H   UNL     1     -10.280  11.948  68.206  1.00  0.00     0.000 HD 
HETATM   29  C   UNL     1     -11.527  12.254  66.586  1.00  0.00    -0.373 C  
HETATM   30  O   UNL     1     -11.982  11.873  65.514  1.00  0.00    -0.399 OA 
BRANCH  29  31
HETATM   31  C   UNL     1     -11.910  13.615  67.191  1.00  0.00    -0.396 C  
HETATM   32  H   UNL     1     -12.132  14.392  68.991  1.00  0.00     0.000 HD 
HETATM   33  O   UNL     1     -11.895  13.551  68.618  1.00  0.00    -0.333 OA 
BRANCH  31  34
HETATM   34  C   UNL     1     -10.939  14.707  66.741  1.00  0.00    -0.323 C  
BRANCH  34  35
HETATM   35  C   UNL     1     -10.690  14.660  65.234  1.00  0.00    -0.381 C  
HETATM   36  H1  UNL     1     -10.246  15.967  63.718  1.00  0.00     0.000 HD 
HETATM   37  H2  UNL     1      -9.642  16.443  65.222  1.00  0.00     0.000 HD 
HETATM   38  N   UNL     1     -10.412  15.998  64.723  1.00  0.00    -0.513 NA 
ENDBRANCH  34  35
ENDBRANCH  31  34
ENDBRANCH  29  31
ENDBRANCH  18  27
BRANCH  26  39
HETATM   39  O   UNL     1      -8.721   7.603  69.109  1.00  0.00    -0.138 OA 
BRANCH  39  40
HETATM   40  C   UNL     1      -8.878   6.553  70.068  1.00  0.00    -0.144 C  
HETATM   41  H1  UNL     1      -9.150   4.312  67.423  1.00  0.00     0.000 HD 
HETATM   42  O   UNL     1     -10.128   6.653  70.758  1.00  0.00    -0.184 OA 
HETATM   43  H2  UNL     1      -8.898   5.966  67.380  1.00  0.00     0.000 HD 
HETATM   44  N   UNL     1      -9.270   5.190  67.928  1.00  0.00    -0.112 NA 
HETATM   45  C   UNL     1      -8.695   5.206  69.292  1.00  0.00    -0.096 C  
HETATM   46  C   UNL     1     -10.393   5.577  71.590  1.00  0.00    -0.219 C  
HETATM   47  C   UNL     1      -9.131   3.995  70.129  1.00  0.00    -0.186 C  
HETATM   48  C   UNL     1      -9.939   4.341  71.333  1.00  0.00    -0.238 C  
BRANCH  46  49
HETATM   49  C   UNL     1     -11.270   5.882  72.783  1.00  0.00    -0.276 C  
BRANCH  49  50
HETATM   50  N   UNL     1     -11.901   7.203  72.717  1.00  0.00    -0.530 NA 
HETATM   51  H   UNL     1     -11.223   7.929  72.485  1.00  0.00     0.000 HD 
BRANCH  50  52
HETATM   52  C   UNL     1     -13.040   7.211  71.782  1.00  0.00    -0.314 C  
BRANCH  52  53
HETATM   53  C   UNL     1     -13.860   8.494  71.933  1.00  0.00    -0.424 C  
HETATM   54  O   UNL     1     -13.655   9.074  73.219  1.00  0.00    -0.992 OA 
HETATM   55  H   UNL     1     -14.165   9.870  73.313  1.00  0.00     0.000 HD 
ENDBRANCH  52  53
ENDBRANCH  50  52
ENDBRANCH  49  50
ENDBRANCH  46  49
ENDBRANCH  39  40
ENDBRANCH  26  39
ENDBRANCH  15  16
ENDBRANCH   6  15
ENDBRANCH   2   4
TORSDOF 13
ENDMDL
MODEL       52
REMARK 921   NORMALIZED FREE ENERGY PREDICTED BY IDOCK:   -4.28 KCAL/MOL
REMARK 922        TOTAL FREE ENERGY PREDICTED BY IDOCK:  -11.00 KCAL/MOL
REMARK 923 INTER-LIGAND FREE ENERGY PREDICTED BY IDOCK:   -9.55 KCAL/MOL
REMARK 924 INTRA-LIGAND FREE ENERGY PREDICTED BY IDOCK:   -1.44 KCAL/MOL
REMARK 927      BINDING AFFINITY PREDICTED BY RF-SCORE:    0.00 PKD
ROOT
HETATM    1  C   UNL     1     -13.859   8.817  72.519  1.00  0.00    -0.368 C  
HETATM    2  N   UNL     1     -12.562   8.498  73.106  1.00  0.00    -0.464 NA 
HETATM    3  H   UNL     1     -12.691   8.022  73.999  1.00  0.00     0.000 HD 
ENDROOT
BRANCH   2   4
HETATM    4  C   UNL     1     -11.636   7.711  72.237  1.00  0.00    -0.322 C  
HETATM    5  C   UNL     1     -12.242   7.414  70.842  1.00  0.00    -0.231 C  
HETATM    6  C   UNL     1     -11.174   6.754  69.942  1.00  0.00    -0.326 C  
HETATM    7  O   UNL     1     -12.764   8.603  70.243  1.00  0.00     0.014 OA 
HETATM    8  H   UNL     1     -13.135   8.420  69.388  1.00  0.00     0.000 HD 
HETATM    9  O   UNL     1     -12.032   5.478  73.205  1.00  0.00    -0.526 OA 
HETATM   10  O   UNL     1     -10.764   5.523  70.539  1.00  0.00    -0.275 OA 
HETATM   11  H   UNL     1     -11.649   4.688  73.568  1.00  0.00     0.000 HD 
HETATM   12  C   UNL     1     -10.092   5.725  71.794  1.00  0.00    -0.187 C  
HETATM   13  C   UNL     1     -10.178   6.699  74.094  1.00  0.00    -0.390 C  
HETATM   14  C   UNL     1     -11.004   6.410  72.835  1.00  0.00    -0.250 C  
BRANCH   6  15
HETATM   15  O   UNL     1     -10.061   7.631  69.748  1.00  0.00    -0.189 OA 
BRANCH  15  16
HETATM   16  C   UNL     1     -10.176   8.572  68.667  1.00  0.00    -0.197 C  
HETATM   17  H1  UNL     1      -6.606  10.062  66.448  1.00  0.00     0.000 HD 
HETATM   18  C   UNL     1      -9.742  10.010  69.030  1.00  0.00    -0.199 C  
HETATM   19  C   UNL     1      -9.306   8.022  67.503  1.00  0.00    -0.147 C  
HETATM   20  H2  UNL     1      -6.906  11.344  67.503  1.00  0.00     0.000 HD 
HETATM   21  C   UNL     1      -7.331   9.471  68.299  1.00  0.00    -0.077 C  
HETATM   22  C   UNL     1      -8.250  10.021  69.406  1.00  0.00    -0.158 C  
HETATM   23  O   UNL     1      -9.584   8.755  66.290  1.00  0.00    -0.223 OA 
HETATM   24  H   UNL     1      -9.051   8.419  65.578  1.00  0.00     0.000 HD 
HETATM   25  N   UNL     1      -7.214  10.426  67.181  1.00  0.00    -0.089 NA 
HETATM   26  C   UNL     1      -7.787   8.052  67.842  1.00  0.00    -0.126 C  
BRANCH  18  27
HETATM   27  N   UNL     1     -10.067  10.957  67.963  1.00  0.00    -0.173 N  
HETATM   28  H   UNL     1      -9.310  11.305  67.374  1.00  0.00     0.000 HD 
HETATM   29  C   UNL     1     -11.346  11.402  67.715  1.00  0.00    -0.287 C  
HETATM   30  O   UNL     1     -12.333  11.031  68.340  1.00  0.00    -0.528 OA 
BRANCH  29  31
HETATM   31  C   UNL     1     -11.452  12.399  66.550  1.00  0.00    -0.371 C  
HETATM   32  H   UNL     1     -11.808  14.326  66.316  1.00  0.00     0.000 HD 
HETATM   33  O   UNL     1     -11.742  13.710  67.037  1.00  0.00    -0.342 OA 
BRANCH  31  34
HETATM   34  C   UNL     1     -10.148  12.452  65.754  1.00  0.00    -0.273 C  
BRANCH  34  35
HETATM   35  C   UNL     1     -10.380  12.906  64.313  1.00  0.00    -0.372 C  
HETATM   36  H1  UNL     1     -10.740  12.056  62.483  1.00  0.00     0.000 HD 
HETATM   37  H2  UNL     1     -11.340  11.155  63.779  1.00  0.00     0.000 HD 
HETATM   38  N   UNL     1     -10.586  11.753  63.444  1.00  0.00    -0.415 NA 
ENDBRANCH  34  35
ENDBRANCH  31  34
ENDBRANCH  29  31
ENDBRANCH  18  27
BRANCH  26  39
HETATM   39  O   UNL     1      -7.405   7.181  68.904  1.00  0.00    -0.088 OA 
BRANCH  39  40
HETATM   40  C   UNL     1      -7.654   5.779  68.759  1.00  0.00    -0.089 C  
HETATM   41  H1  UNL     1      -5.591   5.230  71.504  1.00  0.00     0.000 HD 
HETATM   42  O   UNL     1      -7.045   5.256  67.574  1.00  0.00    -0.064 OA 
HETATM   43  H2  UNL     1      -6.031   6.678  70.791  1.00  0.00     0.000 HD 
HETATM   44  N   UNL     1      -5.917   5.675  70.646  1.00  0.00    -0.024 NA 
HETATM   45  C   UNL     1      -7.153   5.096  70.075  1.00  0.00    -0.058 C  
HETATM   46  C   UNL     1      -7.129   3.877  67.465  1.00  0.00    -0.056 C  
HETATM   47  C   UNL     1      -7.081   3.568  69.942  1.00  0.00    -0.041 C  
HETATM   48  C   UNL     1      -7.159   3.072  68.538  1.00  0.00    -0.049 C  
BRANCH  46  49
HETATM   49  C   UNL     1      -7.138   3.339  66.053  1.00  0.00    -0.062 C  
BRANCH  49  50
HETATM   50  N   UNL     1      -8.080   4.035  65.172  1.00  0.00    -0.096 NA 
HETATM   51  H   UNL     1      -7.778   3.998  64.198  1.00  0.00     0.000 HD 
BRANCH  50  52
HETATM   52  C   UNL     1      -9.450   3.517  65.331  1.00  0.00    -0.152 C  
BRANCH  52  53
HETATM   53  C   UNL     1     -10.410   4.634  65.749  1.00  0.00    -0.264 C  
HETATM   54  O   UNL     1     -11.541   4.675  64.882  1.00  0.00    -1.016 OA 
HETATM   55  H   UNL     1     -12.137   5.368  65.141  1.00  0.00     0.000 HD 
ENDBRANCH  52  53
ENDBRANCH  50  52
ENDBRANCH  49  50
ENDBRANCH  46  49
ENDBRANCH  39  40
ENDBRANCH  26  39
ENDBRANCH  15  16
ENDBRANCH   6  15
ENDBRANCH   2   4
TORSDOF 13
ENDMDL
MODEL       53
REMARK 921   NORMALIZED FREE ENERGY PREDICTED BY IDOCK:   -4.26 KCAL/MOL
REMARK 922        TOTAL FREE ENERGY PREDICTED BY IDOCK:  -10.96 KCAL/MOL
REMARK 923 INTER-LIGAND FREE ENERGY PREDICTED BY IDOCK:   -8.46 KCAL/MOL
REMARK 924 INTRA-LIGAND FREE ENERGY PREDICTED BY IDOCK:   -2.50 KCAL/MOL
REMARK 927      BINDING AFFINITY PREDICTED BY RF-SCORE:    0.00 PKD
ROOT
HETATM    1  C   UNL     1     -11.795  12.668  69.505  1.00  0.00    -0.312 C  
HETATM    2  N   UNL     1     -10.584  12.893  68.722  1.00  0.00    -0.357 NA 
HETATM    3  H   UNL     1      -9.801  13.104  69.342  1.00  0.00     0.000 HD 
ENDROOT
BRANCH   2   4
HETATM    4  C   UNL     1     -10.208  11.792  67.784  1.00  0.00    -0.191 C  
HETATM    5  C   UNL     1      -8.814  11.194  68.098  1.00  0.00    -0.148 C  
HETATM    6  C   UNL     1      -8.566   9.957  67.207  1.00  0.00    -0.125 C  
HETATM    7  O   UNL     1      -8.693  10.869  69.485  1.00  0.00    -0.386 OA 
HETATM    8  H   UNL     1      -7.838  10.503  69.678  1.00  0.00     0.000 HD 
HETATM    9  O   UNL     1      -9.506  13.170  65.863  1.00  0.00    -0.448 OA 
HETATM   10  O   UNL     1      -8.598  10.361  65.837  1.00  0.00    -0.146 OA 
HETATM   11  H   UNL     1      -9.586  13.337  64.931  1.00  0.00     0.000 HD 
HETATM   12  C   UNL     1      -9.897  10.829  65.439  1.00  0.00    -0.262 C  
HETATM   13  C   UNL     1     -11.777  12.423  65.850  1.00  0.00    -0.476 C  
HETATM   14  C   UNL     1     -10.340  12.067  66.248  1.00  0.00    -0.221 C  
BRANCH   6  15
HETATM   15  O   UNL     1      -9.537   8.940  67.470  1.00  0.00    -0.138 OA 
BRANCH  15  16
HETATM   16  C   UNL     1      -9.416   8.257  68.729  1.00  0.00    -0.148 C  
HETATM   17  H1  UNL     1      -8.782   3.849  68.970  1.00  0.00     0.000 HD 
HETATM   18  C   UNL     1     -10.667   7.444  69.132  1.00  0.00    -0.166 C  
HETATM   19  C   UNL     1      -8.179   7.324  68.612  1.00  0.00    -0.125 C  
HETATM   20  H2  UNL     1     -10.437   3.969  69.274  1.00  0.00     0.000 HD 
HETATM   21  C   UNL     1      -9.717   5.376  67.924  1.00  0.00    -0.136 C  
HETATM   22  C   UNL     1     -10.914   6.330  68.100  1.00  0.00    -0.412 C  
HETATM   23  O   UNL     1      -7.821   6.813  69.915  1.00  0.00    -0.110 OA 
HETATM   24  H   UNL     1      -7.065   6.242  69.844  1.00  0.00     0.000 HD 
HETATM   25  N   UNL     1      -9.574   4.480  69.086  1.00  0.00    -0.168 NA 
HETATM   26  C   UNL     1      -8.413   6.166  67.600  1.00  0.00    -0.108 C  
BRANCH  18  27
HETATM   27  N   UNL     1     -10.564   6.940  70.502  1.00  0.00    -0.215 N  
HETATM   28  H   UNL     1      -9.976   6.125  70.677  1.00  0.00     0.000 HD 
HETATM   29  C   UNL     1     -11.222   7.513  71.566  1.00  0.00    -0.243 C  
HETATM   30  O   UNL     1     -11.931   8.510  71.478  1.00  0.00    -0.279 OA 
BRANCH  29  31
HETATM   31  C   UNL     1     -10.974   6.813  72.912  1.00  0.00    -0.263 C  
HETATM   32  H   UNL     1     -11.338   5.050  73.720  1.00  0.00     0.000 HD 
HETATM   33  O   UNL     1     -11.492   5.482  72.888  1.00  0.00    -0.304 OA 
BRANCH  31  34
HETATM   34  C   UNL     1      -9.480   6.749  73.228  1.00  0.00    -0.172 C  
BRANCH  34  35
HETATM   35  C   UNL     1      -8.888   8.138  73.467  1.00  0.00    -0.241 C  
HETATM   36  H1  UNL     1      -7.433   9.338  72.664  1.00  0.00     0.000 HD 
HETATM   37  H2  UNL     1      -8.147   8.295  71.543  1.00  0.00     0.000 HD 
HETATM   38  N   UNL     1      -7.827   8.411  72.505  1.00  0.00    -0.261 NA 
ENDBRANCH  34  35
ENDBRANCH  31  34
ENDBRANCH  29  31
ENDBRANCH  18  27
BRANCH  26  39
HETATM   39  O   UNL     1      -8.563   6.590  66.247  1.00  0.00    -0.129 OA 
BRANCH  39  40
HETATM   40  C   UNL     1      -8.206   5.678  65.203  1.00  0.00    -0.136 C  
HETATM   41  H1  UNL     1      -7.327   8.417  63.249  1.00  0.00     0.000 HD 
HETATM   42  O   UNL     1      -9.357   5.031  64.652  1.00  0.00    -0.053 OA 
HETATM   43  H2  UNL     1      -7.904   8.386  64.819  1.00  0.00     0.000 HD 
HETATM   44  N   UNL     1      -7.862   7.883  63.933  1.00  0.00    -0.140 NA 
HETATM   45  C   UNL     1      -7.385   6.499  64.153  1.00  0.00    -0.077 C  
HETATM   46  C   UNL     1      -9.080   4.252  63.540  1.00  0.00    -0.138 C  
HETATM   47  C   UNL     1      -7.192   5.727  62.840  1.00  0.00    -0.051 C  
HETATM   48  C   UNL     1      -8.082   4.540  62.690  1.00  0.00    -0.072 C  
BRANCH  46  49
HETATM   49  C   UNL     1     -10.011   3.081  63.322  1.00  0.00    -0.123 C  
BRANCH  49  50
HETATM   50  N   UNL     1     -10.276   2.315  64.543  1.00  0.00    -0.342 NA 
HETATM   51  H   UNL     1     -11.065   1.680  64.421  1.00  0.00     0.000 HD 
BRANCH  50  52
HETATM   52  C   UNL     1      -9.073   1.599  65.001  1.00  0.00    -0.120 C  
BRANCH  52  53
HETATM   53  C   UNL     1      -8.657   2.069  66.398  1.00  0.00    -0.112 C  
HETATM   54  O   UNL     1      -9.761   2.009  67.297  1.00  0.00    -0.400 OA 
HETATM   55  H   UNL     1      -9.503   2.301  68.164  1.00  0.00     0.000 HD 
ENDBRANCH  52  53
ENDBRANCH  50  52
ENDBRANCH  49  50
ENDBRANCH  46  49
ENDBRANCH  39  40
ENDBRANCH  26  39
ENDBRANCH  15  16
ENDBRANCH   6  15
ENDBRANCH   2   4
TORSDOF 13
ENDMDL
MODEL       54
REMARK 921   NORMALIZED FREE ENERGY PREDICTED BY IDOCK:   -4.26 KCAL/MOL
REMARK 922        TOTAL FREE ENERGY PREDICTED BY IDOCK:  -10.95 KCAL/MOL
REMARK 923 INTER-LIGAND FREE ENERGY PREDICTED BY IDOCK:   -8.23 KCAL/MOL
REMARK 924 INTRA-LIGAND FREE ENERGY PREDICTED BY IDOCK:   -2.72 KCAL/MOL
REMARK 927      BINDING AFFINITY PREDICTED BY RF-SCORE:    0.00 PKD
ROOT
HETATM    1  C   UNL     1      -7.895   6.818  62.831  1.00  0.00    -0.108 C  
HETATM    2  N   UNL     1      -7.225   5.793  63.626  1.00  0.00    -0.051 NA 
HETATM    3  H   UNL     1      -6.297   6.117  63.902  1.00  0.00     0.000 HD 
ENDROOT
BRANCH   2   4
HETATM    4  C   UNL     1      -7.975   5.313  64.825  1.00  0.00    -0.107 C  
HETATM    5  C   UNL     1      -7.157   5.455  66.133  1.00  0.00    -0.072 C  
HETATM    6  C   UNL     1      -8.049   5.105  67.345  1.00  0.00    -0.100 C  
HETATM    7  O   UNL     1      -6.604   6.767  66.256  1.00  0.00    -0.045 OA 
HETATM    8  H   UNL     1      -6.102   6.854  67.058  1.00  0.00     0.000 HD 
HETATM    9  O   UNL     1      -7.631   2.889  64.529  1.00  0.00    -0.073 OA 
HETATM   10  O   UNL     1      -8.489   3.752  67.219  1.00  0.00    -0.097 OA 
HETATM   11  H   UNL     1      -8.029   2.028  64.485  1.00  0.00     0.000 HD 
HETATM   12  C   UNL     1      -9.348   3.564  66.081  1.00  0.00    -0.160 C  
HETATM   13  C   UNL     1      -9.648   3.788  63.611  1.00  0.00    -0.152 C  
HETATM   14  C   UNL     1      -8.632   3.894  64.754  1.00  0.00    -0.114 C  
BRANCH   6  15
HETATM   15  O   UNL     1      -9.157   6.004  67.435  1.00  0.00    -0.109 OA 
BRANCH  15  16
HETATM   16  C   UNL     1      -9.849   6.035  68.695  1.00  0.00    -0.138 C  
HETATM   17  H1  UNL     1     -10.612   9.853  70.871  1.00  0.00     0.000 HD 
HETATM   18  C   UNL     1      -8.932   6.280  69.915  1.00  0.00    -0.141 C  
HETATM   19  C   UNL     1     -10.918   7.158  68.588  1.00  0.00    -0.035 C  
HETATM   20  H2  UNL     1      -9.272   9.254  71.701  1.00  0.00     0.000 HD 
HETATM   21  C   UNL     1      -9.275   8.822  69.668  1.00  0.00    -0.150 C  
HETATM   22  C   UNL     1      -8.267   7.663  69.793  1.00  0.00    -0.131 C  
HETATM   23  O   UNL     1     -11.836   7.072  69.700  1.00  0.00    -0.573 OA 
HETATM   24  H   UNL     1     -12.490   7.759  69.635  1.00  0.00     0.000 HD 
HETATM   25  N   UNL     1      -9.946   9.086  70.954  1.00  0.00    -0.236 NA 
HETATM   26  C   UNL     1     -10.275   8.572  68.499  1.00  0.00    -0.198 C  
BRANCH  18  27
HETATM   27  N   UNL     1      -9.653   6.103  71.176  1.00  0.00    -0.174 N  
HETATM   28  H   UNL     1     -10.667   6.220  71.176  1.00  0.00     0.000 HD 
HETATM   29  C   UNL     1      -9.029   5.787  72.361  1.00  0.00    -0.141 C  
HETATM   30  O   UNL     1      -7.823   5.597  72.472  1.00  0.00    -0.101 OA 
BRANCH  29  31
HETATM   31  C   UNL     1      -9.983   5.657  73.560  1.00  0.00    -0.177 C  
HETATM   32  H   UNL     1     -11.069   6.858  74.689  1.00  0.00     0.000 HD 
HETATM   33  O   UNL     1     -10.479   6.939  73.947  1.00  0.00    -0.366 OA 
BRANCH  31  34
HETATM   34  C   UNL     1     -11.171   4.757  73.219  1.00  0.00    -0.421 C  
BRANCH  34  35
HETATM   35  C   UNL     1     -10.931   3.311  73.652  1.00  0.00    -0.237 C  
HETATM   36  H1  UNL     1     -10.293   1.551  72.815  1.00  0.00     0.000 HD 
HETATM   37  H2  UNL     1      -9.624   2.926  72.097  1.00  0.00     0.000 HD 
HETATM   38  N   UNL     1     -10.453   2.516  72.527  1.00  0.00    -0.135 NA 
ENDBRANCH  34  35
ENDBRANCH  31  34
ENDBRANCH  29  31
ENDBRANCH  18  27
BRANCH  26  39
HETATM   39  O   UNL     1      -9.521   8.801  67.310  1.00  0.00    -0.149 OA 
BRANCH  39  40
HETATM   40  C   UNL     1     -10.135   9.529  66.242  1.00  0.00    -0.257 C  
HETATM   41  H1  UNL     1      -7.086   9.451  64.571  1.00  0.00     0.000 HD 
HETATM   42  O   UNL     1     -10.448  10.870  66.631  1.00  0.00    -0.237 OA 
HETATM   43  H2  UNL     1      -7.490   8.792  66.055  1.00  0.00     0.000 HD 
HETATM   44  N   UNL     1      -7.722   9.509  65.366  1.00  0.00    -0.106 NA 
HETATM   45  C   UNL     1      -9.159   9.441  65.021  1.00  0.00    -0.215 C  
HETATM   46  C   UNL     1     -10.906  11.660  65.589  1.00  0.00    -0.276 C  
HETATM   47  C   UNL     1      -9.544  10.421  63.904  1.00  0.00    -0.370 C  
HETATM   48  C   UNL     1     -10.517  11.472  64.319  1.00  0.00    -0.393 C  
BRANCH  46  49
HETATM   49  C   UNL     1     -11.840  12.780  65.988  1.00  0.00    -0.439 C  
BRANCH  49  50
HETATM   50  N   UNL     1     -11.213  14.104  65.938  1.00  0.00    -0.309 NA 
HETATM   51  H   UNL     1     -11.905  14.848  66.025  1.00  0.00     0.000 HD 
BRANCH  50  52
HETATM   52  C   UNL     1     -10.149  14.236  66.949  1.00  0.00    -0.264 C  
BRANCH  52  53
HETATM   53  C   UNL     1     -10.718  14.086  68.362  1.00  0.00    -0.251 C  
HETATM   54  O   UNL     1     -10.122  12.976  69.029  1.00  0.00    -0.426 OA 
HETATM   55  H   UNL     1     -10.476  12.883  69.906  1.00  0.00     0.000 HD 
ENDBRANCH  52  53
ENDBRANCH  50  52
ENDBRANCH  49  50
ENDBRANCH  46  49
ENDBRANCH  39  40
ENDBRANCH  26  39
ENDBRANCH  15  16
ENDBRANCH   6  15
ENDBRANCH   2   4
TORSDOF 13
ENDMDL
MODEL       55
REMARK 921   NORMALIZED FREE ENERGY PREDICTED BY IDOCK:   -4.24 KCAL/MOL
REMARK 922        TOTAL FREE ENERGY PREDICTED BY IDOCK:  -10.93 KCAL/MOL
REMARK 923 INTER-LIGAND FREE ENERGY PREDICTED BY IDOCK:   -7.86 KCAL/MOL
REMARK 924 INTRA-LIGAND FREE ENERGY PREDICTED BY IDOCK:   -3.06 KCAL/MOL
REMARK 927      BINDING AFFINITY PREDICTED BY RF-SCORE:    0.00 PKD
ROOT
HETATM    1  C   UNL     1      -9.631  17.465  68.793  1.00  0.00    -0.267 C  
HETATM    2  N   UNL     1      -9.292  16.635  67.641  1.00  0.00    -0.223 NA 
HETATM    3  H   UNL     1      -9.204  17.216  66.806  1.00  0.00     0.000 HD 
ENDROOT
BRANCH   2   4
HETATM    4  C   UNL     1      -8.078  15.779  67.797  1.00  0.00    -0.144 C  
HETATM    5  C   UNL     1      -8.126  14.910  69.079  1.00  0.00    -0.165 C  
HETATM    6  C   UNL     1      -6.931  13.931  69.088  1.00  0.00    -0.093 C  
HETATM    7  O   UNL     1      -9.370  14.214  69.184  1.00  0.00    -0.397 OA 
HETATM    8  H   UNL     1      -9.399  13.681  69.970  1.00  0.00     0.000 HD 
HETATM    9  O   UNL     1      -6.530  17.491  68.666  1.00  0.00    -0.179 OA 
HETATM   10  O   UNL     1      -5.717  14.684  69.085  1.00  0.00    -0.094 OA 
HETATM   11  H   UNL     1      -5.681  17.910  68.588  1.00  0.00     0.000 HD 
HETATM   12  C   UNL     1      -5.548  15.437  67.872  1.00  0.00    -0.134 C  
HETATM   13  C   UNL     1      -6.491  17.137  66.301  1.00  0.00    -0.166 C  
HETATM   14  C   UNL     1      -6.679  16.469  67.668  1.00  0.00    -0.138 C  
BRANCH   6  15
HETATM   15  O   UNL     1      -6.993  13.045  67.968  1.00  0.00    -0.085 OA 
BRANCH  15  16
HETATM   16  C   UNL     1      -6.699  11.663  68.235  1.00  0.00    -0.064 C  
HETATM   17  H1  UNL     1      -9.308   8.367  66.746  1.00  0.00     0.000 HD 
HETATM   18  C   UNL     1      -7.605  11.018  69.308  1.00  0.00    -0.089 C  
HETATM   19  C   UNL     1      -6.842  10.909  66.884  1.00  0.00    -0.114 C  
HETATM   20  H2  UNL     1      -9.812   8.496  68.350  1.00  0.00     0.000 HD 
HETATM   21  C   UNL     1      -9.273  10.305  67.480  1.00  0.00    -0.141 C  
HETATM   22  C   UNL     1      -9.066  11.025  68.826  1.00  0.00    -0.161 C  
HETATM   23  O   UNL     1      -6.297   9.576  67.002  1.00  0.00    -0.064 OA 
HETATM   24  H   UNL     1      -6.384   9.115  66.176  1.00  0.00     0.000 HD 
HETATM   25  N   UNL     1      -9.171   8.843  67.636  1.00  0.00    -0.136 NA 
HETATM   26  C   UNL     1      -8.316  10.870  66.387  1.00  0.00    -0.162 C  
BRANCH  18  27
HETATM   27  N   UNL     1      -7.134   9.683  69.680  1.00  0.00    -0.066 N  
HETATM   28  H   UNL     1      -7.395   8.894  69.089  1.00  0.00     0.000 HD 
HETATM   29  C   UNL     1      -6.356   9.441  70.789  1.00  0.00    -0.081 C  
HETATM   30  O   UNL     1      -5.961  10.316  71.553  1.00  0.00    -0.308 OA 
BRANCH  29  31
HETATM   31  C   UNL     1      -5.984   7.963  70.989  1.00  0.00    -0.034 C  
HETATM   32  H   UNL     1      -5.236   6.835  72.425  1.00  0.00     0.000 HD 
HETATM   33  O   UNL     1      -5.466   7.749  72.302  1.00  0.00    -0.036 OA 
BRANCH  31  34
HETATM   34  C   UNL     1      -7.202   7.061  70.792  1.00  0.00    -0.071 C  
BRANCH  34  35
HETATM   35  C   UNL     1      -7.013   6.100  69.618  1.00  0.00    -0.071 C  
HETATM   36  H1  UNL     1      -6.673   6.202  67.599  1.00  0.00     0.000 HD 
HETATM   37  H2  UNL     1      -6.023   7.500  68.463  1.00  0.00     0.000 HD 
HETATM   38  N   UNL     1      -6.799   6.843  68.382  1.00  0.00    -0.071 NA 
ENDBRANCH  34  35
ENDBRANCH  31  34
ENDBRANCH  29  31
ENDBRANCH  18  27
BRANCH  26  39
HETATM   39  O   UNL     1      -8.854  12.145  66.045  1.00  0.00    -0.066 OA 
BRANCH  39  40
HETATM   40  C   UNL     1     -10.267  12.342  66.159  1.00  0.00    -0.239 C  
HETATM   41  H1  UNL     1     -10.420  12.532  62.690  1.00  0.00     0.000 HD 
HETATM   42  O   UNL     1     -10.577  13.615  66.735  1.00  0.00    -0.270 OA 
HETATM   43  H2  UNL     1      -9.091  12.269  63.673  1.00  0.00     0.000 HD 
HETATM   44  N   UNL     1     -10.030  12.664  63.624  1.00  0.00    -0.298 NA 
HETATM   45  C   UNL     1     -10.865  12.139  64.727  1.00  0.00    -0.307 C  
HETATM   46  C   UNL     1     -11.929  13.915  66.729  1.00  0.00    -0.438 C  
HETATM   47  C   UNL     1     -12.323  12.610  64.638  1.00  0.00    -0.546 C  
HETATM   48  C   UNL     1     -12.764  13.459  65.783  1.00  0.00    -0.383 C  
BRANCH  46  49
HETATM   49  C   UNL     1     -12.393  14.833  67.838  1.00  0.00     0.195 C  
BRANCH  49  50
HETATM   50  N   UNL     1     -12.290  14.232  69.171  1.00  0.00    -0.539 NA 
HETATM   51  H   UNL     1     -11.330  13.960  69.384  1.00  0.00     0.000 HD 
BRANCH  50  52
HETATM   52  C   UNL     1     -12.841  15.121  70.208  1.00  0.00    -0.245 C  
BRANCH  52  53
HETATM   53  C   UNL     1     -11.775  15.473  71.248  1.00  0.00    -0.401 C  
HETATM   54  O   UNL     1     -12.244  16.497  72.122  1.00  0.00    -0.574 OA 
HETATM   55  H   UNL     1     -11.581  16.716  72.767  1.00  0.00     0.000 HD 
ENDBRANCH  52  53
ENDBRANCH  50  52
ENDBRANCH  49  50
ENDBRANCH  46  49
ENDBRANCH  39  40
ENDBRANCH  26  39
ENDBRANCH  15  16
ENDBRANCH   6  15
ENDBRANCH   2   4
TORSDOF 13
ENDMDL
MODEL       56
REMARK 921   NORMALIZED FREE ENERGY PREDICTED BY IDOCK:   -4.23 KCAL/MOL
REMARK 922        TOTAL FREE ENERGY PREDICTED BY IDOCK:  -10.91 KCAL/MOL
REMARK 923 INTER-LIGAND FREE ENERGY PREDICTED BY IDOCK:   -8.40 KCAL/MOL
REMARK 924 INTRA-LIGAND FREE ENERGY PREDICTED BY IDOCK:   -2.52 KCAL/MOL
REMARK 927      BINDING AFFINITY PREDICTED BY RF-SCORE:    0.00 PKD
ROOT
HETATM    1  C   UNL     1      -8.302   2.435  67.801  1.00  0.00    -0.067 C  
HETATM    2  N   UNL     1      -9.623   3.005  67.556  1.00  0.00    -0.346 NA 
HETATM    3  H   UNL     1     -10.270   2.714  68.289  1.00  0.00     0.000 HD 
ENDROOT
BRANCH   2   4
HETATM    4  C   UNL     1      -9.665   4.490  67.398  1.00  0.00    -0.178 C  
HETATM    5  C   UNL     1     -10.565   5.174  68.458  1.00  0.00     0.069 C  
HETATM    6  C   UNL     1     -10.426   6.709  68.345  1.00  0.00    -0.211 C  
HETATM    7  O   UNL     1     -10.249   4.718  69.775  1.00  0.00    -0.246 OA 
HETATM    8  H   UNL     1     -10.801   5.138  70.424  1.00  0.00     0.000 HD 
HETATM    9  O   UNL     1     -11.269   4.617  65.530  1.00  0.00    -0.909 OA 
HETATM   10  O   UNL     1     -10.852   7.117  67.043  1.00  0.00    -0.351 OA 
HETATM   11  H   UNL     1     -11.460   4.964  64.666  1.00  0.00     0.000 HD 
HETATM   12  C   UNL     1      -9.995   6.607  66.007  1.00  0.00     0.349 C  
HETATM   13  C   UNL     1      -8.954   4.606  64.932  1.00  0.00    -0.153 C  
HETATM   14  C   UNL     1      -9.980   5.063  65.976  1.00  0.00    -0.199 C  
BRANCH   6  15
HETATM   15  O   UNL     1      -9.080   7.116  68.600  1.00  0.00    -0.134 OA 
BRANCH  15  16
HETATM   16  C   UNL     1      -8.833   7.725  69.879  1.00  0.00    -0.142 C  
HETATM   17  H1  UNL     1      -7.183  11.853  70.246  1.00  0.00     0.000 HD 
HETATM   18  C   UNL     1      -7.339   7.793  70.271  1.00  0.00    -0.067 C  
HETATM   19  C   UNL     1      -9.441   9.154  69.817  1.00  0.00    -0.182 C  
HETATM   20  H2  UNL     1      -5.806  10.915  70.505  1.00  0.00     0.000 HD 
HETATM   21  C   UNL     1      -7.143  10.099  69.139  1.00  0.00    -0.073 C  
HETATM   22  C   UNL     1      -6.579   8.671  69.261  1.00  0.00    -0.049 C  
HETATM   23  O   UNL     1      -9.484   9.730  71.140  1.00  0.00    -0.305 OA 
HETATM   24  H   UNL     1      -9.856  10.604  71.102  1.00  0.00     0.000 HD 
HETATM   25  N   UNL     1      -6.810  10.907  70.327  1.00  0.00    -0.228 NA 
HETATM   26  C   UNL     1      -8.670  10.076  68.828  1.00  0.00    -0.136 C  
BRANCH  18  27
HETATM   27  N   UNL     1      -7.165   8.235  71.655  1.00  0.00    -0.080 N  
HETATM   28  H   UNL     1      -7.645   9.082  71.960  1.00  0.00     0.000 HD 
HETATM   29  C   UNL     1      -6.382   7.563  72.566  1.00  0.00    -0.051 C  
HETATM   30  O   UNL     1      -5.783   6.522  72.319  1.00  0.00    -0.036 OA 
BRANCH  29  31
HETATM   31  C   UNL     1      -6.339   8.211  73.959  1.00  0.00    -0.114 C  
HETATM   32  H   UNL     1      -5.658   9.880  74.764  1.00  0.00     0.000 HD 
HETATM   33  O   UNL     1      -5.685   9.479  73.902  1.00  0.00    -0.310 OA 
BRANCH  31  34
HETATM   34  C   UNL     1      -7.749   8.414  74.513  1.00  0.00    -0.276 C  
BRANCH  34  35
HETATM   35  C   UNL     1      -8.648   7.210  74.236  1.00  0.00    -0.191 C  
HETATM   36  H1  UNL     1     -10.465   6.827  73.366  1.00  0.00     0.000 HD 
HETATM   37  H2  UNL     1      -9.660   8.155  72.701  1.00  0.00     0.000 HD 
HETATM   38  N   UNL     1      -9.865   7.630  73.551  1.00  0.00    -0.311 NA 
ENDBRANCH  34  35
ENDBRANCH  31  34
ENDBRANCH  29  31
ENDBRANCH  18  27
BRANCH  26  39
HETATM   39  O   UNL     1      -8.764   9.680  67.461  1.00  0.00    -0.125 OA 
BRANCH  39  40
HETATM   40  C   UNL     1      -9.812  10.234  66.661  1.00  0.00    -0.204 C  
HETATM   41  H1  UNL     1      -7.659  10.113  63.933  1.00  0.00     0.000 HD 
HETATM   42  O   UNL     1     -10.082  11.594  67.014  1.00  0.00    -0.205 OA 
HETATM   43  H2  UNL     1      -7.389   9.624  65.510  1.00  0.00     0.000 HD 
HETATM   44  N   UNL     1      -7.939  10.235  64.906  1.00  0.00    -0.153 NA 
HETATM   45  C   UNL     1      -9.383  10.047  65.167  1.00  0.00    -0.245 C  
HETATM   46  C   UNL     1     -10.984  12.222  66.170  1.00  0.00    -0.293 C  
HETATM   47  C   UNL     1     -10.266  10.858  64.207  1.00  0.00    -0.430 C  
HETATM   48  C   UNL     1     -11.101  11.898  64.874  1.00  0.00    -0.363 C  
BRANCH  46  49
HETATM   49  C   UNL     1     -11.796  13.331  66.800  1.00  0.00    -0.394 C  
BRANCH  49  50
HETATM   50  N   UNL     1     -11.494  14.656  66.249  1.00  0.00    -0.359 NA 
HETATM   51  H   UNL     1     -12.320  15.082  65.830  1.00  0.00     0.000 HD 
BRANCH  50  52
HETATM   52  C   UNL     1     -10.889  15.537  67.263  1.00  0.00    -0.313 C  
BRANCH  52  53
HETATM   53  C   UNL     1     -10.153  14.719  68.327  1.00  0.00    -0.221 C  
HETATM   54  O   UNL     1      -8.814  14.451  67.917  1.00  0.00    -0.165 OA 
HETATM   55  H   UNL     1      -8.357  13.942  68.577  1.00  0.00     0.000 HD 
ENDBRANCH  52  53
ENDBRANCH  50  52
ENDBRANCH  49  50
ENDBRANCH  46  49
ENDBRANCH  39  40
ENDBRANCH  26  39
ENDBRANCH  15  16
ENDBRANCH   6  15
ENDBRANCH   2   4
TORSDOF 13
ENDMDL
MODEL       57
REMARK 921   NORMALIZED FREE ENERGY PREDICTED BY IDOCK:   -4.22 KCAL/MOL
REMARK 922        TOTAL FREE ENERGY PREDICTED BY IDOCK:  -10.88 KCAL/MOL
REMARK 923 INTER-LIGAND FREE ENERGY PREDICTED BY IDOCK:   -8.86 KCAL/MOL
REMARK 924 INTRA-LIGAND FREE ENERGY PREDICTED BY IDOCK:   -2.02 KCAL/MOL
REMARK 927      BINDING AFFINITY PREDICTED BY RF-SCORE:    0.00 PKD
ROOT
HETATM    1  C   UNL     1      -7.860  15.001  66.976  1.00  0.00    -0.129 C  
HETATM    2  N   UNL     1      -9.050  14.875  66.140  1.00  0.00    -0.484 NA 
HETATM    3  H   UNL     1      -8.779  14.721  65.168  1.00  0.00     0.000 HD 
ENDROOT
BRANCH   2   4
HETATM    4  C   UNL     1     -10.031  13.833  66.568  1.00  0.00    -0.288 C  
HETATM    5  C   UNL     1     -10.516  12.954  65.387  1.00  0.00    -0.292 C  
HETATM    6  C   UNL     1     -11.387  11.797  65.925  1.00  0.00    -0.263 C  
HETATM    7  O   UNL     1      -9.413  12.463  64.622  1.00  0.00    -0.458 OA 
HETATM    8  H   UNL     1      -9.710  11.925  63.898  1.00  0.00     0.000 HD 
HETATM    9  O   UNL     1     -12.039  15.256  66.714  1.00  0.00     0.029 OA 
HETATM   10  O   UNL     1     -12.525  12.346  66.590  1.00  0.00    -0.329 OA 
HETATM   11  H   UNL     1     -12.781  15.535  67.238  1.00  0.00     0.000 HD 
HETATM   12  C   UNL     1     -12.161  13.089  67.766  1.00  0.00    -0.193 C  
HETATM   13  C   UNL     1     -10.812  14.952  68.744  1.00  0.00    -0.254 C  
HETATM   14  C   UNL     1     -11.252  14.293  67.432  1.00  0.00    -0.316 C  
BRANCH   6  15
HETATM   15  O   UNL     1     -10.631  10.957  66.800  1.00  0.00    -0.244 OA 
BRANCH  15  16
HETATM   16  C   UNL     1      -9.875   9.906  66.175  1.00  0.00    -0.260 C  
HETATM   17  H1  UNL     1      -7.847   6.724  68.553  1.00  0.00     0.000 HD 
HETATM   18  C   UNL     1      -8.343  10.067  66.299  1.00  0.00    -0.127 C  
HETATM   19  C   UNL     1     -10.333   8.575  66.834  1.00  0.00    -0.297 C  
HETATM   20  H2  UNL     1      -6.560   7.759  68.208  1.00  0.00     0.000 HD 
HETATM   21  C   UNL     1      -8.375   8.729  68.500  1.00  0.00    -0.129 C  
HETATM   22  C   UNL     1      -7.935  10.019  67.782  1.00  0.00    -0.105 C  
HETATM   23  O   UNL     1      -9.832   7.452  66.077  1.00  0.00    -0.427 OA 
HETATM   24  H   UNL     1     -10.112   6.638  66.480  1.00  0.00     0.000 HD 
HETATM   25  N   UNL     1      -7.555   7.578  68.078  1.00  0.00    -0.108 NA 
HETATM   26  C   UNL     1      -9.905   8.483  68.327  1.00  0.00    -0.169 C  
BRANCH  18  27
HETATM   27  N   UNL     1      -7.629   9.087  65.480  1.00  0.00    -0.089 N  
HETATM   28  H   UNL     1      -7.332   8.213  65.915  1.00  0.00     0.000 HD 
HETATM   29  C   UNL     1      -7.339   9.286  64.149  1.00  0.00    -0.106 C  
HETATM   30  O   UNL     1      -7.671  10.283  63.517  1.00  0.00    -0.150 OA 
BRANCH  29  31
HETATM   31  C   UNL     1      -6.577   8.126  63.489  1.00  0.00    -0.076 C  
HETATM   32  H   UNL     1      -5.096   6.908  63.959  1.00  0.00     0.000 HD 
HETATM   33  O   UNL     1      -5.568   7.625  64.367  1.00  0.00    -0.033 OA 
BRANCH  31  34
HETATM   34  C   UNL     1      -7.524   6.981  63.133  1.00  0.00    -0.095 C  
BRANCH  34  35
HETATM   35  C   UNL     1      -7.068   5.655  63.743  1.00  0.00    -0.051 C  
HETATM   36  H1  UNL     1      -6.577   3.769  63.107  1.00  0.00     0.000 HD 
HETATM   37  H2  UNL     1      -6.242   4.976  61.974  1.00  0.00     0.000 HD 
HETATM   38  N   UNL     1      -6.881   4.653  62.700  1.00  0.00    -0.030 NA 
ENDBRANCH  34  35
ENDBRANCH  31  34
ENDBRANCH  29  31
ENDBRANCH  18  27
BRANCH  26  39
HETATM   39  O   UNL     1     -10.533   9.439  69.178  1.00  0.00    -0.208 OA 
BRANCH  39  40
HETATM   40  C   UNL     1     -11.400   8.965  70.213  1.00  0.00    -0.159 C  
HETATM   41  H1  UNL     1     -12.538  12.226  70.615  1.00  0.00     0.000 HD 
HETATM   42  O   UNL     1     -10.664   8.555  71.370  1.00  0.00    -0.222 OA 
HETATM   43  H2  UNL     1     -11.411  11.631  69.531  1.00  0.00     0.000 HD 
HETATM   44  N   UNL     1     -11.868  11.479  70.431  1.00  0.00    -0.348 NA 
HETATM   45  C   UNL     1     -12.428  10.111  70.496  1.00  0.00    -0.223 C  
HETATM   46  C   UNL     1     -11.464   8.229  72.453  1.00  0.00    -0.394 C  
HETATM   47  C   UNL     1     -13.228   9.863  71.783  1.00  0.00    -0.535 C  
HETATM   48  C   UNL     1     -12.657   8.806  72.666  1.00  0.00    -0.282 C  
BRANCH  46  49
HETATM   49  C   UNL     1     -10.880   7.212  73.407  1.00  0.00    -0.319 C  
BRANCH  49  50
HETATM   50  N   UNL     1      -9.572   7.602  73.942  1.00  0.00    -0.385 NA 
HETATM   51  H   UNL     1      -9.639   7.887  74.919  1.00  0.00     0.000 HD 
BRANCH  50  52
HETATM   52  C   UNL     1      -8.574   6.534  73.759  1.00  0.00    -0.123 C  
BRANCH  52  53
HETATM   53  C   UNL     1      -7.809   6.722  72.446  1.00  0.00    -0.094 C  
HETATM   54  O   UNL     1      -7.811   8.092  72.055  1.00  0.00    -0.100 OA 
HETATM   55  H   UNL     1      -7.337   8.209  71.240  1.00  0.00     0.000 HD 
ENDBRANCH  52  53
ENDBRANCH  50  52
ENDBRANCH  49  50
ENDBRANCH  46  49
ENDBRANCH  39  40
ENDBRANCH  26  39
ENDBRANCH  15  16
ENDBRANCH   6  15
ENDBRANCH   2   4
TORSDOF 13
ENDMDL
MODEL       58
REMARK 921   NORMALIZED FREE ENERGY PREDICTED BY IDOCK:   -4.21 KCAL/MOL
REMARK 922        TOTAL FREE ENERGY PREDICTED BY IDOCK:  -10.87 KCAL/MOL
REMARK 923 INTER-LIGAND FREE ENERGY PREDICTED BY IDOCK:   -8.90 KCAL/MOL
REMARK 924 INTRA-LIGAND FREE ENERGY PREDICTED BY IDOCK:   -1.97 KCAL/MOL
REMARK 927      BINDING AFFINITY PREDICTED BY RF-SCORE:    0.00 PKD
ROOT
HETATM    1  C   UNL     1      -9.250  18.773  67.875  1.00  0.00    -0.294 C  
HETATM    2  N   UNL     1      -8.718  17.704  67.035  1.00  0.00    -0.235 NA 
HETATM    3  H   UNL     1      -8.136  18.099  66.295  1.00  0.00     0.000 HD 
ENDROOT
BRANCH   2   4
HETATM    4  C   UNL     1      -7.971  16.629  67.754  1.00  0.00    -0.172 C  
HETATM    5  C   UNL     1      -8.676  16.189  69.061  1.00  0.00    -0.254 C  
HETATM    6  C   UNL     1      -7.946  14.965  69.659  1.00  0.00    -0.010 C  
HETATM    7  O   UNL     1     -10.059  15.910  68.832  1.00  0.00    -0.206 OA 
HETATM    8  H   UNL     1     -10.491  15.640  69.634  1.00  0.00     0.000 HD 
HETATM    9  O   UNL     1      -6.241  18.030  68.816  1.00  0.00    -0.195 OA 
HETATM   10  O   UNL     1      -6.600  15.333  69.961  1.00  0.00    -0.170 OA 
HETATM   11  H   UNL     1      -5.315  18.167  68.975  1.00  0.00     0.000 HD 
HETATM   12  C   UNL     1      -5.845  15.652  68.780  1.00  0.00    -0.100 C  
HETATM   13  C   UNL     1      -5.659  17.048  66.715  1.00  0.00    -0.201 C  
HETATM   14  C   UNL     1      -6.444  16.854  68.017  1.00  0.00    -0.144 C  
BRANCH   6  15
HETATM   15  O   UNL     1      -7.990  13.858  68.756  1.00  0.00    -0.129 OA 
BRANCH  15  16
HETATM   16  C   UNL     1      -9.256  13.606  68.122  1.00  0.00    -0.204 C  
HETATM   17  H1  UNL     1     -10.501   9.505  66.890  1.00  0.00     0.000 HD 
HETATM   18  C   UNL     1      -9.161  13.329  66.604  1.00  0.00    -0.171 C  
HETATM   19  C   UNL     1      -9.887  12.390  68.855  1.00  0.00     0.122 C  
HETATM   20  H2  UNL     1      -9.975  10.152  65.424  1.00  0.00     0.000 HD 
HETATM   21  C   UNL     1      -8.901  10.810  67.077  1.00  0.00    -0.135 C  
HETATM   22  C   UNL     1      -8.336  12.052  66.362  1.00  0.00     0.053 C  
HETATM   23  O   UNL     1     -11.271  12.245  68.469  1.00  0.00    -0.231 OA 
HETATM   24  H   UNL     1     -11.657  11.501  68.918  1.00  0.00     0.000 HD 
HETATM   25  N   UNL     1     -10.128  10.327  66.417  1.00  0.00    -0.227 NA 
HETATM   26  C   UNL     1      -9.093  11.076  68.600  1.00  0.00    -0.174 C  
BRANCH  18  27
HETATM   27  N   UNL     1     -10.484  13.279  65.981  1.00  0.00    -0.281 N  
HETATM   28  H   UNL     1     -10.896  12.366  65.788  1.00  0.00     0.000 HD 
HETATM   29  C   UNL     1     -11.199  14.405  65.643  1.00  0.00    -0.323 C  
HETATM   30  O   UNL     1     -10.814  15.551  65.854  1.00  0.00    -0.326 OA 
BRANCH  29  31
HETATM   31  C   UNL     1     -12.562  14.116  64.993  1.00  0.00    -0.380 C  
HETATM   32  H   UNL     1     -13.500  14.578  63.320  1.00  0.00     0.000 HD 
HETATM   33  O   UNL     1     -12.657  14.757  63.721  1.00  0.00    -0.806 OA 
BRANCH  31  34
HETATM   34  C   UNL     1     -12.767  12.613  64.798  1.00  0.00    -0.460 C  
BRANCH  34  35
HETATM   35  C   UNL     1     -12.411  12.170  63.379  1.00  0.00    -0.538 C  
HETATM   36  H1  UNL     1     -10.795  11.399  62.380  1.00  0.00     0.000 HD 
HETATM   37  H2  UNL     1     -10.860  10.957  64.009  1.00  0.00     0.000 HD 
HETATM   38  N   UNL     1     -11.033  11.694  63.326  1.00  0.00    -0.335 NA 
ENDBRANCH  34  35
ENDBRANCH  31  34
ENDBRANCH  29  31
ENDBRANCH  18  27
BRANCH  26  39
HETATM   39  O   UNL     1      -7.776  11.070  69.147  1.00  0.00    -0.131 OA 
BRANCH  39  40
HETATM   40  C   UNL     1      -7.520  10.264  70.301  1.00  0.00     0.036 C  
HETATM   41  H1  UNL     1      -5.577   8.189  68.297  1.00  0.00     0.000 HD 
HETATM   42  O   UNL     1      -8.696   9.572  70.731  1.00  0.00    -0.204 OA 
HETATM   43  H2  UNL     1      -6.399   9.586  67.881  1.00  0.00     0.000 HD 
HETATM   44  N   UNL     1      -6.351   8.808  68.539  1.00  0.00    -0.053 NA 
HETATM   45  C   UNL     1      -6.332   9.314  69.930  1.00  0.00    -0.043 C  
HETATM   46  C   UNL     1      -8.466   8.664  71.752  1.00  0.00    -0.155 C  
HETATM   47  C   UNL     1      -6.146   8.193  70.962  1.00  0.00    -0.033 C  
HETATM   48  C   UNL     1      -7.298   8.019  71.893  1.00  0.00    -0.089 C  
BRANCH  46  49
HETATM   49  C   UNL     1      -9.641   8.412  72.670  1.00  0.00    -0.267 C  
BRANCH  49  50
HETATM   50  N   UNL     1     -10.819   7.885  71.975  1.00  0.00    -0.240 NA 
HETATM   51  H   UNL     1     -10.943   6.889  72.155  1.00  0.00     0.000 HD 
BRANCH  50  52
HETATM   52  C   UNL     1     -12.032   8.650  72.314  1.00  0.00    -0.368 C  
BRANCH  52  53
HETATM   53  C   UNL     1     -12.304   9.734  71.269  1.00  0.00    -0.371 C  
HETATM   54  O   UNL     1     -12.018   9.252  69.958  1.00  0.00    -0.454 OA 
HETATM   55  H   UNL     1     -12.186   9.925  69.309  1.00  0.00     0.000 HD 
ENDBRANCH  52  53
ENDBRANCH  50  52
ENDBRANCH  49  50
ENDBRANCH  46  49
ENDBRANCH  39  40
ENDBRANCH  26  39
ENDBRANCH  15  16
ENDBRANCH   6  15
ENDBRANCH   2   4
TORSDOF 13
ENDMDL
MODEL       59
REMARK 921   NORMALIZED FREE ENERGY PREDICTED BY IDOCK:   -4.18 KCAL/MOL
REMARK 922        TOTAL FREE ENERGY PREDICTED BY IDOCK:  -10.83 KCAL/MOL
REMARK 923 INTER-LIGAND FREE ENERGY PREDICTED BY IDOCK:   -8.92 KCAL/MOL
REMARK 924 INTRA-LIGAND FREE ENERGY PREDICTED BY IDOCK:   -1.91 KCAL/MOL
REMARK 927      BINDING AFFINITY PREDICTED BY RF-SCORE:    0.00 PKD
ROOT
HETATM    1  C   UNL     1      -8.311   8.132  73.917  1.00  0.00    -0.248 C  
HETATM    2  N   UNL     1      -9.677   7.655  73.727  1.00  0.00    -0.350 NA 
HETATM    3  H   UNL     1     -10.341   8.387  73.983  1.00  0.00     0.000 HD 
ENDROOT
BRANCH   2   4
HETATM    4  C   UNL     1      -9.995   7.133  72.364  1.00  0.00    -0.166 C  
HETATM    5  C   UNL     1     -11.214   7.844  71.725  1.00  0.00    -0.260 C  
HETATM    6  C   UNL     1     -11.377   7.380  70.260  1.00  0.00    -0.221 C  
HETATM    7  O   UNL     1     -11.083   9.265  71.809  1.00  0.00    -0.364 OA 
HETATM    8  H   UNL     1     -11.831   9.701  71.417  1.00  0.00     0.000 HD 
HETATM    9  O   UNL     1     -11.177   5.072  73.025  1.00  0.00    -0.283 OA 
HETATM   10  O   UNL     1     -11.605   5.970  70.246  1.00  0.00    -0.294 OA 
HETATM   11  H   UNL     1     -11.256   4.131  72.920  1.00  0.00     0.000 HD 
HETATM   12  C   UNL     1     -10.469   5.231  70.726  1.00  0.00    -0.228 C  
HETATM   13  C   UNL     1      -8.838   4.849  72.580  1.00  0.00    -0.125 C  
HETATM   14  C   UNL     1     -10.126   5.583  72.190  1.00  0.00    -0.186 C  
BRANCH   6  15
HETATM   15  O   UNL     1     -10.226   7.726  69.487  1.00  0.00    -0.197 OA 
BRANCH  15  16
HETATM   16  C   UNL     1     -10.419   8.730  68.475  1.00  0.00    -0.175 C  
HETATM   17  H1  UNL     1      -7.259   9.699  65.481  1.00  0.00     0.000 HD 
HETATM   18  C   UNL     1      -9.659  10.050  68.739  1.00  0.00    -0.168 C  
HETATM   19  C   UNL     1      -9.959   8.101  67.131  1.00  0.00    -0.236 C  
HETATM   20  H2  UNL     1      -7.068  10.954  66.590  1.00  0.00     0.000 HD 
HETATM   21  C   UNL     1      -7.625   9.143  67.445  1.00  0.00    -0.085 C  
HETATM   22  C   UNL     1      -8.144   9.783  68.747  1.00  0.00    -0.102 C  
HETATM   23  O   UNL     1     -10.376   8.935  66.028  1.00  0.00    -0.333 OA 
HETATM   24  H   UNL     1     -10.094   8.550  65.205  1.00  0.00     0.000 HD 
HETATM   25  N   UNL     1      -7.602  10.122  66.342  1.00  0.00    -0.104 NA 
HETATM   26  C   UNL     1      -8.423   7.851  67.096  1.00  0.00    -0.117 C  
BRANCH  18  27
HETATM   27  N   UNL     1     -10.049  11.095  67.791  1.00  0.00    -0.176 N  
HETATM   28  H   UNL     1      -9.381  11.373  67.072  1.00  0.00     0.000 HD 
HETATM   29  C   UNL     1     -11.274  11.721  67.824  1.00  0.00    -0.266 C  
HETATM   30  O   UNL     1     -12.163  11.449  68.624  1.00  0.00    -0.532 OA 
BRANCH  29  31
HETATM   31  C   UNL     1     -11.464  12.791  66.737  1.00  0.00    -0.343 C  
HETATM   32  H   UNL     1     -12.541  13.023  65.099  1.00  0.00     0.000 HD 
HETATM   33  O   UNL     1     -12.424  12.361  65.771  1.00  0.00    -0.615 OA 
BRANCH  31  34
HETATM   34  C   UNL     1     -11.942  14.110  67.344  1.00  0.00    -0.439 C  
BRANCH  34  35
HETATM   35  C   UNL     1     -10.772  15.004  67.756  1.00  0.00    -0.278 C  
HETATM   36  H1  UNL     1     -10.466  16.941  68.355  1.00  0.00     0.000 HD 
HETATM   37  H2  UNL     1     -11.978  16.326  68.791  1.00  0.00     0.000 HD 
HETATM   38  N   UNL     1     -11.246  16.344  68.081  1.00  0.00    -0.321 NA 
ENDBRANCH  34  35
ENDBRANCH  31  34
ENDBRANCH  29  31
ENDBRANCH  18  27
BRANCH  26  39
HETATM   39  O   UNL     1      -7.967   6.871  68.026  1.00  0.00    -0.112 OA 
BRANCH  39  40
HETATM   40  C   UNL     1      -8.310   5.501  67.796  1.00  0.00    -0.099 C  
HETATM   41  H1  UNL     1      -5.226   4.608  69.134  1.00  0.00     0.000 HD 
HETATM   42  O   UNL     1      -8.346   5.194  66.399  1.00  0.00    -0.108 OA 
HETATM   43  H2  UNL     1      -5.891   6.132  68.946  1.00  0.00     0.000 HD 
HETATM   44  N   UNL     1      -5.898   5.169  68.609  1.00  0.00    -0.019 NA 
HETATM   45  C   UNL     1      -7.280   4.640  68.600  1.00  0.00    -0.057 C  
HETATM   46  C   UNL     1      -8.527   3.848  66.127  1.00  0.00    -0.110 C  
HETATM   47  C   UNL     1      -7.339   3.156  68.211  1.00  0.00    -0.050 C  
HETATM   48  C   UNL     1      -8.084   2.883  66.948  1.00  0.00    -0.080 C  
BRANCH  46  49
HETATM   49  C   UNL     1      -9.216   3.538  64.818  1.00  0.00    -0.142 C  
BRANCH  49  50
HETATM   50  N   UNL     1      -9.264   2.105  64.512  1.00  0.00    -0.130 NA 
HETATM   51  H   UNL     1     -10.056   1.653  64.967  1.00  0.00     0.000 HD 
BRANCH  50  52
HETATM   52  C   UNL     1      -9.268   1.864  63.058  1.00  0.00    -0.091 C  
BRANCH  52  53
HETATM   53  C   UNL     1     -10.691   1.930  62.498  1.00  0.00    -0.135 C  
HETATM   54  O   UNL     1     -11.648   1.740  63.537  1.00  0.00    -0.577 OA 
HETATM   55  H   UNL     1     -12.532   1.780  63.189  1.00  0.00     0.000 HD 
ENDBRANCH  52  53
ENDBRANCH  50  52
ENDBRANCH  49  50
ENDBRANCH  46  49
ENDBRANCH  39  40
ENDBRANCH  26  39
ENDBRANCH  15  16
ENDBRANCH   6  15
ENDBRANCH   2   4
TORSDOF 13
ENDMDL
MODEL       60
REMARK 921   NORMALIZED FREE ENERGY PREDICTED BY IDOCK:   -4.16 KCAL/MOL
REMARK 922        TOTAL FREE ENERGY PREDICTED BY IDOCK:  -10.79 KCAL/MOL
REMARK 923 INTER-LIGAND FREE ENERGY PREDICTED BY IDOCK:   -8.92 KCAL/MOL
REMARK 924 INTRA-LIGAND FREE ENERGY PREDICTED BY IDOCK:   -1.86 KCAL/MOL
REMARK 927      BINDING AFFINITY PREDICTED BY RF-SCORE:    0.00 PKD
ROOT
HETATM    1  C   UNL     1     -12.479  13.194  71.463  1.00  0.00    -0.098 C  
HETATM    2  N   UNL     1     -13.080  11.901  71.148  1.00  0.00    -0.153 NA 
HETATM    3  H   UNL     1     -13.841  12.024  70.479  1.00  0.00     0.000 HD 
ENDROOT
BRANCH   2   4
HETATM    4  C   UNL     1     -12.136  10.852  70.660  1.00  0.00    -0.371 C  
HETATM    5  C   UNL     1     -11.959  10.883  69.121  1.00  0.00    -0.288 C  
HETATM    6  C   UNL     1     -10.847   9.894  68.706  1.00  0.00    -0.208 C  
HETATM    7  O   UNL     1     -11.678  12.206  68.660  1.00  0.00    -0.294 OA 
HETATM    8  H   UNL     1     -11.570  12.224  67.716  1.00  0.00     0.000 HD 
HETATM    9  O   UNL     1     -13.662   8.917  70.738  1.00  0.00    -0.464 OA 
HETATM   10  O   UNL     1     -11.229   8.576  69.101  1.00  0.00     0.107 OA 
HETATM   11  H   UNL     1     -13.802   8.025  71.033  1.00  0.00     0.000 HD 
HETATM   12  C   UNL     1     -11.308   8.439  70.530  1.00  0.00    -0.216 C  
HETATM   13  C   UNL     1     -12.298   9.263  72.672  1.00  0.00     0.040 C  
HETATM   14  C   UNL     1     -12.366   9.382  71.145  1.00  0.00    -0.308 C  
BRANCH   6  15
HETATM   15  O   UNL     1      -9.595  10.267  69.287  1.00  0.00    -0.205 OA 
BRANCH  15  16
HETATM   16  C   UNL     1      -8.433   9.586  68.783  1.00  0.00    -0.122 C  
HETATM   17  H1  UNL     1      -6.120  11.132  65.297  1.00  0.00     0.000 HD 
HETATM   18  C   UNL     1      -8.670   8.824  67.459  1.00  0.00    -0.134 C  
HETATM   19  C   UNL     1      -7.331  10.665  68.596  1.00  0.00    -0.094 C  
HETATM   20  H2  UNL     1      -7.053   9.927  64.575  1.00  0.00     0.000 HD 
HETATM   21  C   UNL     1      -8.010  10.927  66.126  1.00  0.00    -0.155 C  
HETATM   22  C   UNL     1      -9.057   9.819  66.351  1.00  0.00    -0.187 C  
HETATM   23  O   UNL     1      -6.055  10.031  68.360  1.00  0.00    -0.045 OA 
HETATM   24  H   UNL     1      -5.380  10.691  68.246  1.00  0.00     0.000 HD 
HETATM   25  N   UNL     1      -6.813  10.399  65.446  1.00  0.00    -0.137 NA 
HETATM   26  C   UNL     1      -7.679  11.667  67.457  1.00  0.00    -0.136 C  
BRANCH  18  27
HETATM   27  N   UNL     1      -7.519   7.993  67.102  1.00  0.00    -0.091 N  
HETATM   28  H   UNL     1      -6.619   8.196  67.538  1.00  0.00     0.000 HD 
HETATM   29  C   UNL     1      -7.593   6.950  66.207  1.00  0.00    -0.088 C  
HETATM   30  O   UNL     1      -8.626   6.599  65.646  1.00  0.00    -0.152 OA 
BRANCH  29  31
HETATM   31  C   UNL     1      -6.260   6.219  65.979  1.00  0.00    -0.037 C  
HETATM   32  H   UNL     1      -5.533   4.406  66.257  1.00  0.00     0.000 HD 
HETATM   33  O   UNL     1      -6.357   4.857  66.398  1.00  0.00    -0.034 OA 
BRANCH  31  34
HETATM   34  C   UNL     1      -5.865   6.248  64.503  1.00  0.00    -0.022 C  
BRANCH  34  35
HETATM   35  C   UNL     1      -5.541   4.851  63.974  1.00  0.00    -0.017 C  
HETATM   36  H1  UNL     1      -5.821   3.764  62.258  1.00  0.00     0.000 HD 
HETATM   37  H2  UNL     1      -5.685   5.426  61.993  1.00  0.00     0.000 HD 
HETATM   38  N   UNL     1      -6.037   4.695  62.611  1.00  0.00    -0.017 NA 
ENDBRANCH  34  35
ENDBRANCH  31  34
ENDBRANCH  29  31
ENDBRANCH  18  27
BRANCH  26  39
HETATM   39  O   UNL     1      -8.818  12.483  67.721  1.00  0.00    -0.160 OA 
BRANCH  39  40
HETATM   40  C   UNL     1      -9.205  13.450  66.740  1.00  0.00    -0.236 C  
HETATM   41  H1  UNL     1      -8.157  15.942  68.928  1.00  0.00     0.000 HD 
HETATM   42  O   UNL     1     -10.627  13.501  66.583  1.00  0.00    -0.276 OA 
HETATM   43  H2  UNL     1      -8.111  14.281  69.124  1.00  0.00     0.000 HD 
HETATM   44  N   UNL     1      -8.569  15.054  68.641  1.00  0.00    -0.166 NA 
HETATM   45  C   UNL     1      -8.574  14.813  67.181  1.00  0.00    -0.226 C  
HETATM   46  C   UNL     1     -11.060  14.524  65.755  1.00  0.00    -0.324 C  
HETATM   47  C   UNL     1      -9.149  15.998  66.391  1.00  0.00    -0.354 C  
HETATM   48  C   UNL     1     -10.396  15.683  65.636  1.00  0.00    -0.408 C  
BRANCH  46  49
HETATM   49  C   UNL     1     -12.362  14.262  65.031  1.00  0.00    -0.428 C  
BRANCH  49  50
HETATM   50  N   UNL     1     -12.176  13.842  63.638  1.00  0.00    -0.971 NA 
HETATM   51  H   UNL     1     -11.264  14.127  63.281  1.00  0.00     0.000 HD 
BRANCH  50  52
HETATM   52  C   UNL     1     -12.390  12.393  63.479  1.00  0.00    -0.546 C  
BRANCH  52  53
HETATM   53  C   UNL     1     -11.100  11.618  63.759  1.00  0.00    -0.420 C  
HETATM   54  O   UNL     1      -9.970  12.323  63.252  1.00  0.00    -0.483 OA 
HETATM   55  H   UNL     1      -9.169  11.842  63.425  1.00  0.00     0.000 HD 
ENDBRANCH  52  53
ENDBRANCH  50  52
ENDBRANCH  49  50
ENDBRANCH  46  49
ENDBRANCH  39  40
ENDBRANCH  26  39
ENDBRANCH  15  16
ENDBRANCH   6  15
ENDBRANCH   2   4
TORSDOF 13
ENDMDL
MODEL       61
REMARK 921   NORMALIZED FREE ENERGY PREDICTED BY IDOCK:   -4.16 KCAL/MOL
REMARK 922        TOTAL FREE ENERGY PREDICTED BY IDOCK:  -10.78 KCAL/MOL
REMARK 923 INTER-LIGAND FREE ENERGY PREDICTED BY IDOCK:   -8.19 KCAL/MOL
REMARK 924 INTRA-LIGAND FREE ENERGY PREDICTED BY IDOCK:   -2.59 KCAL/MOL
REMARK 927      BINDING AFFINITY PREDICTED BY RF-SCORE:    0.00 PKD
ROOT
HETATM    1  C   UNL     1      -6.982   5.814  72.262  1.00  0.00    -0.082 C  
HETATM    2  N   UNL     1      -8.291   5.938  72.896  1.00  0.00    -0.118 NA 
HETATM    3  H   UNL     1      -8.190   6.327  73.833  1.00  0.00     0.000 HD 
ENDROOT
BRANCH   2   4
HETATM    4  C   UNL     1      -9.309   6.715  72.128  1.00  0.00    -0.141 C  
HETATM    5  C   UNL     1      -9.584   8.108  72.748  1.00  0.00    -0.283 C  
HETATM    6  C   UNL     1     -10.510   8.919  71.814  1.00  0.00    -0.360 C  
HETATM    7  O   UNL     1      -8.365   8.807  73.007  1.00  0.00    -0.412 OA 
HETATM    8  H   UNL     1      -8.533   9.661  73.387  1.00  0.00     0.000 HD 
HETATM    9  O   UNL     1     -11.341   5.610  72.986  1.00  0.00    -0.375 OA 
HETATM   10  O   UNL     1     -11.749   8.223  71.673  1.00  0.00    -0.266 OA 
HETATM   11  H   UNL     1     -12.161   5.179  72.777  1.00  0.00     0.000 HD 
HETATM   12  C   UNL     1     -11.590   6.960  71.004  1.00  0.00    -0.328 C  
HETATM   13  C   UNL     1     -10.448   4.738  70.946  1.00  0.00    -0.107 C  
HETATM   14  C   UNL     1     -10.661   6.004  71.784  1.00  0.00    -0.244 C  
BRANCH   6  15
HETATM   15  O   UNL     1      -9.888   9.131  70.544  1.00  0.00    -0.197 OA 
BRANCH  15  16
HETATM   16  C   UNL     1     -10.435  10.190  69.739  1.00  0.00    -0.263 C  
HETATM   17  H1  UNL     1      -9.925  10.288  65.309  1.00  0.00     0.000 HD 
HETATM   18  C   UNL     1      -9.386  11.205  69.229  1.00  0.00     0.146 C  
HETATM   19  C   UNL     1     -11.156   9.512  68.541  1.00  0.00     0.015 C  
HETATM   20  H2  UNL     1      -8.737  11.376  65.809  1.00  0.00     0.000 HD 
HETATM   21  C   UNL     1      -9.032   9.782  67.111  1.00  0.00    -0.135 C  
HETATM   22  C   UNL     1      -8.377  10.491  68.313  1.00  0.00    -0.122 C  
HETATM   23  O   UNL     1     -11.965  10.481  67.839  1.00  0.00    -0.696 OA 
HETATM   24  H   UNL     1     -12.406  10.067  67.106  1.00  0.00     0.000 HD 
HETATM   25  N   UNL     1      -9.492  10.756  66.104  1.00  0.00    -0.181 NA 
HETATM   26  C   UNL     1     -10.157   8.810  67.576  1.00  0.00    -0.222 C  
BRANCH  18  27
HETATM   27  N   UNL     1     -10.018  12.360  68.591  1.00  0.00    -0.382 N  
HETATM   28  H   UNL     1     -11.009  12.301  68.353  1.00  0.00     0.000 HD 
HETATM   29  C   UNL     1      -9.341  13.521  68.295  1.00  0.00    -0.205 C  
HETATM   30  O   UNL     1      -8.159  13.711  68.561  1.00  0.00    -0.144 OA 
BRANCH  29  31
HETATM   31  C   UNL     1     -10.203  14.599  67.620  1.00  0.00    -0.232 C  
HETATM   32  H   UNL     1     -10.206  15.602  65.920  1.00  0.00     0.000 HD 
HETATM   33  O   UNL     1      -9.672  14.935  66.337  1.00  0.00    -0.254 OA 
BRANCH  31  34
HETATM   34  C   UNL     1     -11.643  14.116  67.440  1.00  0.00    -0.399 C  
BRANCH  34  35
HETATM   35  C   UNL     1     -12.009  13.956  65.964  1.00  0.00    -0.412 C  
HETATM   36  H1  UNL     1     -12.702  12.488  64.713  1.00  0.00     0.000 HD 
HETATM   37  H2  UNL     1     -13.225  12.321  66.310  1.00  0.00     0.000 HD 
HETATM   38  N   UNL     1     -12.458  12.595  65.697  1.00  0.00    -0.620 NA 
ENDBRANCH  34  35
ENDBRANCH  31  34
ENDBRANCH  29  31
ENDBRANCH  18  27
BRANCH  26  39
HETATM   39  O   UNL     1      -9.473   7.697  68.148  1.00  0.00    -0.144 OA 
BRANCH  39  40
HETATM   40  C   UNL     1      -8.540   6.979  67.334  1.00  0.00    -0.121 C  
HETATM   41  H1  UNL     1     -11.200   5.099  66.118  1.00  0.00     0.000 HD 
HETATM   42  O   UNL     1      -7.676   6.156  68.124  1.00  0.00    -0.099 OA 
HETATM   43  H2  UNL     1     -11.218   6.357  67.221  1.00  0.00     0.000 HD 
HETATM   44  N   UNL     1     -10.651   5.620  66.802  1.00  0.00    -0.290 NA 
HETATM   45  C   UNL     1      -9.383   6.180  66.285  1.00  0.00    -0.134 C  
HETATM   46  C   UNL     1      -6.856   5.328  67.374  1.00  0.00    -0.060 C  
HETATM   47  C   UNL     1      -8.538   5.136  65.540  1.00  0.00    -0.143 C  
HETATM   48  C   UNL     1      -7.219   4.850  66.175  1.00  0.00    -0.077 C  
BRANCH  46  49
HETATM   49  C   UNL     1      -5.540   4.962  68.023  1.00  0.00    -0.016 C  
BRANCH  49  50
HETATM   50  N   UNL     1      -5.468   3.558  68.438  1.00  0.00    -0.013 NA 
HETATM   51  H   UNL     1      -4.741   3.056  67.929  1.00  0.00     0.000 HD 
BRANCH  50  52
HETATM   52  C   UNL     1      -5.291   3.434  69.895  1.00  0.00    -0.008 C  
BRANCH  52  53
HETATM   53  C   UNL     1      -6.493   2.734  70.533  1.00  0.00    -0.028 C  
HETATM   54  O   UNL     1      -7.633   2.815  69.681  1.00  0.00    -0.044 OA 
HETATM   55  H   UNL     1      -8.379   2.380  70.078  1.00  0.00     0.000 HD 
ENDBRANCH  52  53
ENDBRANCH  50  52
ENDBRANCH  49  50
ENDBRANCH  46  49
ENDBRANCH  39  40
ENDBRANCH  26  39
ENDBRANCH  15  16
ENDBRANCH   6  15
ENDBRANCH   2   4
TORSDOF 13
ENDMDL
MODEL       62
REMARK 921   NORMALIZED FREE ENERGY PREDICTED BY IDOCK:   -4.14 KCAL/MOL
REMARK 922        TOTAL FREE ENERGY PREDICTED BY IDOCK:  -10.76 KCAL/MOL
REMARK 923 INTER-LIGAND FREE ENERGY PREDICTED BY IDOCK:   -7.31 KCAL/MOL
REMARK 924 INTRA-LIGAND FREE ENERGY PREDICTED BY IDOCK:   -3.45 KCAL/MOL
REMARK 927      BINDING AFFINITY PREDICTED BY RF-SCORE:    0.00 PKD
ROOT
HETATM    1  C   UNL     1      -7.194   4.829  69.104  1.00  0.00    -0.053 C  
HETATM    2  N   UNL     1      -6.370   5.872  69.707  1.00  0.00    -0.035 NA 
HETATM    3  H   UNL     1      -5.632   6.152  69.060  1.00  0.00     0.000 HD 
ENDROOT
BRANCH   2   4
HETATM    4  C   UNL     1      -7.108   7.077  70.193  1.00  0.00    -0.067 C  
HETATM    5  C   UNL     1      -6.746   8.355  69.395  1.00  0.00    -0.045 C  
HETATM    6  C   UNL     1      -7.666   9.518  69.832  1.00  0.00    -0.129 C  
HETATM    7  O   UNL     1      -6.831   8.125  67.987  1.00  0.00    -0.069 OA 
HETATM    8  H   UNL     1      -6.609   8.909  67.498  1.00  0.00     0.000 HD 
HETATM    9  O   UNL     1      -5.732   7.576  72.178  1.00  0.00    -0.037 OA 
HETATM   10  O   UNL     1      -7.464   9.768  71.223  1.00  0.00    -0.260 OA 
HETATM   11  H   UNL     1      -5.716   7.758  73.110  1.00  0.00     0.000 HD 
HETATM   12  C   UNL     1      -7.881   8.662  72.041  1.00  0.00    -0.048 C  
HETATM   13  C   UNL     1      -7.669   6.224  72.550  1.00  0.00    -0.102 C  
HETATM   14  C   UNL     1      -7.082   7.377  71.729  1.00  0.00    -0.063 C  
BRANCH   6  15
HETATM   15  O   UNL     1      -9.035   9.213  69.554  1.00  0.00    -0.139 OA 
BRANCH  15  16
HETATM   16  C   UNL     1      -9.824  10.281  69.004  1.00  0.00    -0.207 C  
HETATM   17  H1  UNL     1     -11.019  10.361  64.708  1.00  0.00     0.000 HD 
HETATM   18  C   UNL     1      -9.026  11.273  68.127  1.00  0.00    -0.166 C  
HETATM   19  C   UNL     1     -10.956   9.617  68.173  1.00  0.00    -0.132 C  
HETATM   20  H2  UNL     1      -9.710  11.424  64.713  1.00  0.00     0.000 HD 
HETATM   21  C   UNL     1      -9.522   9.840  66.045  1.00  0.00    -0.211 C  
HETATM   22  C   UNL     1      -8.451  10.536  66.905  1.00  0.00    -0.125 C  
HETATM   23  O   UNL     1     -11.952  10.601  67.818  1.00  0.00    -0.664 OA 
HETATM   24  H   UNL     1     -12.644  10.195  67.309  1.00  0.00     0.000 HD 
HETATM   25  N   UNL     1     -10.310  10.821  65.277  1.00  0.00    -0.277 NA 
HETATM   26  C   UNL     1     -10.408   8.892  66.910  1.00  0.00    -0.262 C  
BRANCH  18  27
HETATM   27  N   UNL     1      -9.830  12.440  67.763  1.00  0.00    -0.198 N  
HETATM   28  H   UNL     1     -10.846  12.346  67.754  1.00  0.00     0.000 HD 
HETATM   29  C   UNL     1      -9.282  13.658  67.432  1.00  0.00    -0.222 C  
HETATM   30  O   UNL     1      -8.079  13.892  67.436  1.00  0.00    -0.170 OA 
BRANCH  29  31
HETATM   31  C   UNL     1     -10.316  14.739  67.077  1.00  0.00    -0.255 C  
HETATM   32  H   UNL     1     -10.560  16.113  65.681  1.00  0.00     0.000 HD 
HETATM   33  O   UNL     1      -9.920  15.445  65.900  1.00  0.00    -0.294 OA 
BRANCH  31  34
HETATM   34  C   UNL     1     -11.693  14.121  66.835  1.00  0.00    -0.437 C  
BRANCH  34  35
HETATM   35  C   UNL     1     -12.044  14.080  65.347  1.00  0.00    -0.401 C  
HETATM   36  H1  UNL     1     -13.219  12.972  64.084  1.00  0.00     0.000 HD 
HETATM   37  H2  UNL     1     -13.818  13.066  65.661  1.00  0.00     0.000 HD 
HETATM   38  N   UNL     1     -12.985  13.000  65.076  1.00  0.00    -0.782 NA 
ENDBRANCH  34  35
ENDBRANCH  31  34
ENDBRANCH  29  31
ENDBRANCH  18  27
BRANCH  26  39
HETATM   39  O   UNL     1      -9.579   7.766  67.191  1.00  0.00    -0.150 OA 
BRANCH  39  40
HETATM   40  C   UNL     1      -9.481   6.729  66.211  1.00  0.00    -0.067 C  
HETATM   41  H1  UNL     1     -11.438   4.728  68.275  1.00  0.00     0.000 HD 
HETATM   42  O   UNL     1      -8.153   6.202  66.131  1.00  0.00    -0.108 OA 
HETATM   43  H2  UNL     1     -10.934   6.307  68.509  1.00  0.00     0.000 HD 
HETATM   44  N   UNL     1     -10.735   5.427  68.033  1.00  0.00    -0.088 NA 
HETATM   45  C   UNL     1     -10.560   5.657  66.582  1.00  0.00    -0.295 C  
HETATM   46  C   UNL     1      -8.040   5.096  65.305  1.00  0.00    -0.120 C  
HETATM   47  C   UNL     1     -10.371   4.351  65.797  1.00  0.00    -0.246 C  
HETATM   48  C   UNL     1      -9.047   4.230  65.121  1.00  0.00    -0.145 C  
BRANCH  46  49
HETATM   49  C   UNL     1      -6.685   4.906  64.660  1.00  0.00    -0.048 C  
BRANCH  49  50
HETATM   50  N   UNL     1      -6.544   5.617  63.386  1.00  0.00    -0.032 NA 
HETATM   51  H   UNL     1      -7.450   5.903  63.016  1.00  0.00     0.000 HD 
BRANCH  50  52
HETATM   52  C   UNL     1      -5.624   6.761  63.506  1.00  0.00    -0.031 C  
BRANCH  52  53
HETATM   53  C   UNL     1      -6.400   8.071  63.666  1.00  0.00    -0.067 C  
HETATM   54  O   UNL     1      -6.568   8.391  65.044  1.00  0.00    -0.062 OA 
HETATM   55  H   UNL     1      -7.050   9.203  65.143  1.00  0.00     0.000 HD 
ENDBRANCH  52  53
ENDBRANCH  50  52
ENDBRANCH  49  50
ENDBRANCH  46  49
ENDBRANCH  39  40
ENDBRANCH  26  39
ENDBRANCH  15  16
ENDBRANCH   6  15
ENDBRANCH   2   4
TORSDOF 13
ENDMDL
MODEL       63
REMARK 921   NORMALIZED FREE ENERGY PREDICTED BY IDOCK:   -4.06 KCAL/MOL
REMARK 922        TOTAL FREE ENERGY PREDICTED BY IDOCK:  -10.61 KCAL/MOL
REMARK 923 INTER-LIGAND FREE ENERGY PREDICTED BY IDOCK:   -8.20 KCAL/MOL
REMARK 924 INTRA-LIGAND FREE ENERGY PREDICTED BY IDOCK:   -2.41 KCAL/MOL
REMARK 927      BINDING AFFINITY PREDICTED BY RF-SCORE:    0.00 PKD
ROOT
HETATM    1  C   UNL     1     -10.604   4.597  73.586  1.00  0.00    -0.249 C  
HETATM    2  N   UNL     1     -11.415   5.304  72.600  1.00  0.00    -0.240 NA 
HETATM    3  H   UNL     1     -12.278   5.636  73.031  1.00  0.00     0.000 HD 
ENDROOT
BRANCH   2   4
HETATM    4  C   UNL     1     -10.733   6.429  71.891  1.00  0.00    -0.224 C  
HETATM    5  C   UNL     1      -9.268   6.092  71.517  1.00  0.00    -0.146 C  
HETATM    6  C   UNL     1      -8.683   7.223  70.641  1.00  0.00    -0.147 C  
HETATM    7  O   UNL     1      -9.182   4.826  70.858  1.00  0.00    -0.129 OA 
HETATM    8  H   UNL     1      -8.283   4.620  70.629  1.00  0.00     0.000 HD 
HETATM    9  O   UNL     1     -10.215   7.837  73.849  1.00  0.00    -0.297 OA 
HETATM   10  O   UNL     1      -8.701   8.441  71.387  1.00  0.00    -0.141 OA 
HETATM   11  H   UNL     1     -10.261   8.700  74.243  1.00  0.00     0.000 HD 
HETATM   12  C   UNL     1     -10.039   8.878  71.681  1.00  0.00    -0.341 C  
HETATM   13  C   UNL     1     -12.254   8.334  72.702  1.00  0.00    -0.293 C  
HETATM   14  C   UNL     1     -10.808   7.851  72.541  1.00  0.00    -0.341 C  
BRANCH   6  15
HETATM   15  O   UNL     1      -9.417   7.352  69.422  1.00  0.00    -0.155 OA 
BRANCH  15  16
HETATM   16  C   UNL     1      -8.788   6.822  68.242  1.00  0.00    -0.125 C  
HETATM   17  H1  UNL     1      -7.891   9.377  64.699  1.00  0.00     0.000 HD 
HETATM   18  C   UNL     1      -9.746   6.628  67.045  1.00  0.00    -0.157 C  
HETATM   19  C   UNL     1      -7.646   7.807  67.867  1.00  0.00    -0.116 C  
HETATM   20  H2  UNL     1      -9.305   8.602  64.206  1.00  0.00     0.000 HD 
HETATM   21  C   UNL     1      -9.231   9.021  66.240  1.00  0.00    -0.206 C  
HETATM   22  C   UNL     1     -10.315   7.991  66.612  1.00  0.00    -0.273 C  
HETATM   23  O   UNL     1      -6.790   7.212  66.867  1.00  0.00    -0.067 OA 
HETATM   24  H   UNL     1      -6.092   7.815  66.637  1.00  0.00     0.000 HD 
HETATM   25  N   UNL     1      -8.608   8.695  64.944  1.00  0.00    -0.167 NA 
HETATM   26  C   UNL     1      -8.193   9.184  67.391  1.00  0.00    -0.107 C  
BRANCH  18  27
HETATM   27  N   UNL     1      -9.099   5.906  65.949  1.00  0.00    -0.233 N  
HETATM   28  H   UNL     1      -8.171   6.206  65.650  1.00  0.00     0.000 HD 
HETATM   29  C   UNL     1      -9.683   4.841  65.302  1.00  0.00    -0.087 C  
HETATM   30  O   UNL     1     -10.780   4.378  65.595  1.00  0.00    -0.240 OA 
BRANCH  29  31
HETATM   31  C   UNL     1      -8.826   4.239  64.177  1.00  0.00    -0.142 C  
HETATM   32  H   UNL     1      -8.962   3.986  62.224  1.00  0.00     0.000 HD 
HETATM   33  O   UNL     1      -9.492   4.358  62.920  1.00  0.00    -0.145 OA 
BRANCH  31  34
HETATM   34  C   UNL     1      -7.474   4.946  64.081  1.00  0.00    -0.064 C  
BRANCH  34  35
HETATM   35  C   UNL     1      -6.350   4.111  64.694  1.00  0.00    -0.034 C  
HETATM   36  H1  UNL     1      -5.436   3.881  66.515  1.00  0.00     0.000 HD 
HETATM   37  H2  UNL     1      -7.059   4.338  66.623  1.00  0.00     0.000 HD 
HETATM   38  N   UNL     1      -6.186   4.438  66.105  1.00  0.00    -0.031 NA 
ENDBRANCH  34  35
ENDBRANCH  31  34
ENDBRANCH  29  31
ENDBRANCH  18  27
BRANCH  26  39
HETATM   39  O   UNL     1      -8.872   9.927  68.401  1.00  0.00    -0.118 OA 
BRANCH  39  40
HETATM   40  C   UNL     1      -9.376  11.225  68.070  1.00  0.00    -0.166 C  
HETATM   41  H1  UNL     1      -6.323  12.554  69.074  1.00  0.00     0.000 HD 
HETATM   42  O   UNL     1     -10.410  11.634  68.971  1.00  0.00    -0.185 OA 
HETATM   43  H2  UNL     1      -6.814  10.955  69.037  1.00  0.00     0.000 HD 
HETATM   44  N   UNL     1      -7.126  11.925  69.088  1.00  0.00    -0.088 NA 
HETATM   45  C   UNL     1      -8.144  12.191  68.048  1.00  0.00    -0.155 C  
HETATM   46  C   UNL     1     -10.826  12.942  68.785  1.00  0.00    -0.242 C  
HETATM   47  C   UNL     1      -8.569  13.666  68.003  1.00  0.00    -0.175 C  
HETATM   48  C   UNL     1     -10.004  13.901  68.330  1.00  0.00    -0.233 C  
BRANCH  46  49
HETATM   49  C   UNL     1     -12.258  13.228  69.177  1.00  0.00    -0.124 C  
BRANCH  49  50
HETATM   50  N   UNL     1     -12.550  14.658  69.307  1.00  0.00    -0.556 NA 
HETATM   51  H   UNL     1     -13.271  14.953  68.649  1.00  0.00     0.000 HD 
BRANCH  50  52
HETATM   52  C   UNL     1     -12.907  15.012  70.692  1.00  0.00    -0.363 C  
BRANCH  52  53
HETATM   53  C   UNL     1     -11.825  15.888  71.327  1.00  0.00    -0.449 C  
HETATM   54  O   UNL     1     -10.960  15.105  72.146  1.00  0.00    -0.449 OA 
HETATM   55  H   UNL     1     -10.288  15.649  72.540  1.00  0.00     0.000 HD 
ENDBRANCH  52  53
ENDBRANCH  50  52
ENDBRANCH  49  50
ENDBRANCH  46  49
ENDBRANCH  39  40
ENDBRANCH  26  39
ENDBRANCH  15  16
ENDBRANCH   6  15
ENDBRANCH   2   4
TORSDOF 13
ENDMDL
MODEL       64
REMARK 921   NORMALIZED FREE ENERGY PREDICTED BY IDOCK:   -4.06 KCAL/MOL
REMARK 922        TOTAL FREE ENERGY PREDICTED BY IDOCK:  -10.60 KCAL/MOL
REMARK 923 INTER-LIGAND FREE ENERGY PREDICTED BY IDOCK:   -9.51 KCAL/MOL
REMARK 924 INTRA-LIGAND FREE ENERGY PREDICTED BY IDOCK:   -1.10 KCAL/MOL
REMARK 927      BINDING AFFINITY PREDICTED BY RF-SCORE:    0.00 PKD
ROOT
HETATM    1  C   UNL     1      -7.133  17.391  65.847  1.00  0.00    -0.117 C  
HETATM    2  N   UNL     1      -8.586  17.531  65.869  1.00  0.00    -0.533 NA 
HETATM    3  H   UNL     1      -8.955  17.484  64.919  1.00  0.00     0.000 HD 
ENDROOT
BRANCH   2   4
HETATM    4  C   UNL     1      -9.314  16.567  66.747  1.00  0.00    -0.243 C  
HETATM    5  C   UNL     1     -10.522  15.909  66.034  1.00  0.00    -0.345 C  
HETATM    6  C   UNL     1     -11.119  14.805  66.934  1.00  0.00    -0.339 C  
HETATM    7  O   UNL     1     -10.146  15.392  64.755  1.00  0.00    -0.389 OA 
HETATM    8  H   UNL     1     -10.887  14.989  64.318  1.00  0.00     0.000 HD 
HETATM    9  O   UNL     1     -10.611  18.189  68.078  1.00  0.00    -0.390 OA 
HETATM   10  O   UNL     1     -11.569  15.397  68.154  1.00  0.00    -0.347 OA 
HETATM   11  H   UNL     1     -10.866  18.485  68.943  1.00  0.00     0.000 HD 
HETATM   12  C   UNL     1     -10.484  15.936  68.928  1.00  0.00    -0.233 C  
HETATM   13  C   UNL     1      -8.526  17.486  69.013  1.00  0.00    -0.037 C  
HETATM   14  C   UNL     1      -9.734  17.056  68.174  1.00  0.00    -0.268 C  
BRANCH   6  15
HETATM   15  O   UNL     1     -10.156  13.777  67.182  1.00  0.00    -0.237 OA 
BRANCH  15  16
HETATM   16  C   UNL     1      -9.954  12.828  66.120  1.00  0.00    -0.266 C  
HETATM   17  H1  UNL     1     -10.996   8.517  66.580  1.00  0.00     0.000 HD 
HETATM   18  C   UNL     1      -8.745  11.889  66.332  1.00  0.00    -0.118 C  
HETATM   19  C   UNL     1     -11.266  12.004  66.004  1.00  0.00    -0.335 C  
HETATM   20  H2  UNL     1      -9.328   8.488  66.829  1.00  0.00     0.000 HD 
HETATM   21  C   UNL     1     -10.265  10.200  67.546  1.00  0.00    -0.211 C  
HETATM   22  C   UNL     1      -8.970  11.032  67.590  1.00  0.00    -0.142 C  
HETATM   23  O   UNL     1     -11.252  11.223  64.789  1.00  0.00    -0.196 OA 
HETATM   24  H   UNL     1     -12.054  10.718  64.718  1.00  0.00     0.000 HD 
HETATM   25  N   UNL     1     -10.139   9.067  66.610  1.00  0.00    -0.278 NA 
HETATM   26  C   UNL     1     -11.502  11.100  67.249  1.00  0.00    -0.136 C  
BRANCH  18  27
HETATM   27  N   UNL     1      -8.470  11.088  65.139  1.00  0.00    -0.375 N  
HETATM   28  H   UNL     1      -9.219  10.953  64.460  1.00  0.00     0.000 HD 
HETATM   29  C   UNL     1      -7.248  10.506  64.889  1.00  0.00     0.027 C  
HETATM   30  O   UNL     1      -6.270  10.623  65.620  1.00  0.00    -0.129 OA 
BRANCH  29  31
HETATM   31  C   UNL     1      -7.187   9.704  63.579  1.00  0.00    -0.111 C  
HETATM   32  H   UNL     1      -5.929   8.472  62.687  1.00  0.00     0.000 HD 
HETATM   33  O   UNL     1      -5.966   8.967  63.497  1.00  0.00    -0.085 OA 
BRANCH  31  34
HETATM   34  C   UNL     1      -8.356   8.723  63.483  1.00  0.00    -0.147 C  
BRANCH  34  35
HETATM   35  C   UNL     1      -7.875   7.277  63.361  1.00  0.00    -0.110 C  
HETATM   36  H1  UNL     1      -7.315   5.743  64.601  1.00  0.00     0.000 HD 
HETATM   37  H2  UNL     1      -8.456   6.785  65.283  1.00  0.00     0.000 HD 
HETATM   38  N   UNL     1      -7.636   6.707  64.682  1.00  0.00    -0.097 NA 
ENDBRANCH  34  35
ENDBRANCH  31  34
ENDBRANCH  29  31
ENDBRANCH  18  27
BRANCH  26  39
HETATM   39  O   UNL     1     -11.737  11.818  68.459  1.00  0.00    -0.295 OA 
BRANCH  39  40
HETATM   40  C   UNL     1     -12.440  11.158  69.517  1.00  0.00    -0.074 C  
HETATM   41  H1  UNL     1     -12.172  14.081  71.382  1.00  0.00     0.000 HD 
HETATM   42  O   UNL     1     -11.648  10.123  70.109  1.00  0.00    -0.258 OA 
HETATM   43  H2  UNL     1     -11.639  13.772  69.826  1.00  0.00     0.000 HD 
HETATM   44  N   UNL     1     -11.888  13.356  70.723  1.00  0.00    -0.121 NA 
HETATM   45  C   UNL     1     -12.875  12.271  70.527  1.00  0.00     0.163 C  
HETATM   46  C   UNL     1     -12.224   9.555  71.234  1.00  0.00    -0.348 C  
HETATM   47  C   UNL     1     -13.374  11.682  71.855  1.00  0.00    -0.403 C  
HETATM   48  C   UNL     1     -13.033  10.244  72.053  1.00  0.00    -0.503 C  
BRANCH  46  49
HETATM   49  C   UNL     1     -11.841   8.118  71.502  1.00  0.00    -0.294 C  
BRANCH  49  50
HETATM   50  N   UNL     1     -10.940   7.961  72.648  1.00  0.00    -0.349 NA 
HETATM   51  H   UNL     1     -10.774   6.978  72.860  1.00  0.00     0.000 HD 
BRANCH  50  52
HETATM   52  C   UNL     1      -9.676   8.690  72.444  1.00  0.00    -0.243 C  
BRANCH  52  53
HETATM   53  C   UNL     1      -8.554   8.084  73.290  1.00  0.00    -0.235 C  
HETATM   54  O   UNL     1      -7.405   8.927  73.281  1.00  0.00    -0.358 OA 
HETATM   55  H   UNL     1      -6.709   8.551  73.806  1.00  0.00     0.000 HD 
ENDBRANCH  52  53
ENDBRANCH  50  52
ENDBRANCH  49  50
ENDBRANCH  46  49
ENDBRANCH  39  40
ENDBRANCH  26  39
ENDBRANCH  15  16
ENDBRANCH   6  15
ENDBRANCH   2   4
TORSDOF 13
ENDMDL
MODEL       65
REMARK 921   NORMALIZED FREE ENERGY PREDICTED BY IDOCK:   -4.05 KCAL/MOL
REMARK 922        TOTAL FREE ENERGY PREDICTED BY IDOCK:  -10.58 KCAL/MOL
REMARK 923 INTER-LIGAND FREE ENERGY PREDICTED BY IDOCK:   -8.78 KCAL/MOL
REMARK 924 INTRA-LIGAND FREE ENERGY PREDICTED BY IDOCK:   -1.81 KCAL/MOL
REMARK 927      BINDING AFFINITY PREDICTED BY RF-SCORE:    0.00 PKD
ROOT
HETATM    1  C   UNL     1     -10.180   4.922  70.146  1.00  0.00    -0.240 C  
HETATM    2  N   UNL     1     -10.530   5.817  71.245  1.00  0.00    -0.226 NA 
HETATM    3  H   UNL     1      -9.789   5.814  71.946  1.00  0.00     0.000 HD 
ENDROOT
BRANCH   2   4
HETATM    4  C   UNL     1     -10.857   7.221  70.854  1.00  0.00    -0.243 C  
HETATM    5  C   UNL     1      -9.629   8.162  70.936  1.00  0.00    -0.162 C  
HETATM    6  C   UNL     1      -9.995   9.547  70.358  1.00  0.00    -0.267 C  
HETATM    7  O   UNL     1      -8.501   7.598  70.262  1.00  0.00    -0.130 OA 
HETATM    8  H   UNL     1      -7.748   8.174  70.313  1.00  0.00     0.000 HD 
HETATM    9  O   UNL     1     -11.921   7.950  72.957  1.00  0.00    -0.617 OA 
HETATM   10  O   UNL     1     -11.057  10.105  71.133  1.00  0.00    -0.291 OA 
HETATM   11  H   UNL     1     -12.672   8.359  73.368  1.00  0.00     0.000 HD 
HETATM   12  C   UNL     1     -12.271   9.342  71.020  1.00  0.00    -0.279 C  
HETATM   13  C   UNL     1     -13.392   7.122  71.263  1.00  0.00    -0.321 C  
HETATM   14  C   UNL     1     -12.096   7.896  71.532  1.00  0.00    -0.306 C  
BRANCH   6  15
HETATM   15  O   UNL     1     -10.360   9.440  68.980  1.00  0.00    -0.198 OA 
BRANCH  15  16
HETATM   16  C   UNL     1      -9.330   8.990  68.083  1.00  0.00    -0.142 C  
HETATM   17  H1  UNL     1      -7.989  11.446  64.610  1.00  0.00     0.000 HD 
HETATM   18  C   UNL     1      -9.851   8.509  66.710  1.00  0.00    -0.257 C  
HETATM   19  C   UNL     1      -8.347  10.179  67.901  1.00  0.00    -0.117 C  
HETATM   20  H2  UNL     1      -9.023  10.343  63.863  1.00  0.00     0.000 HD 
HETATM   21  C   UNL     1      -9.613  10.898  65.777  1.00  0.00    -0.216 C  
HETATM   22  C   UNL     1     -10.532   9.677  65.976  1.00  0.00    -0.047 C  
HETATM   23  O   UNL     1      -7.143   9.729  67.244  1.00  0.00    -0.084 OA 
HETATM   24  H   UNL     1      -6.542  10.456  67.132  1.00  0.00     0.000 HD 
HETATM   25  N   UNL     1      -8.597  10.638  64.741  1.00  0.00    -0.163 NA 
HETATM   26  C   UNL     1      -8.998  11.365  67.131  1.00  0.00    -0.162 C  
BRANCH  18  27
HETATM   27  N   UNL     1      -8.791   7.880  65.921  1.00  0.00    -0.226 N  
HETATM   28  H   UNL     1      -8.142   8.482  65.413  1.00  0.00     0.000 HD 
HETATM   29  C   UNL     1      -8.628   6.517  65.830  1.00  0.00    -0.149 C  
HETATM   30  O   UNL     1      -9.330   5.702  66.419  1.00  0.00    -0.147 OA 
BRANCH  29  31
HETATM   31  C   UNL     1      -7.453   6.080  64.941  1.00  0.00    -0.082 C  
HETATM   32  H   UNL     1      -7.202   5.317  63.138  1.00  0.00     0.000 HD 
HETATM   33  O   UNL     1      -7.928   5.587  63.688  1.00  0.00    -0.097 OA 
BRANCH  31  34
HETATM   34  C   UNL     1      -6.503   7.248  64.676  1.00  0.00    -0.037 C  
BRANCH  34  35
HETATM   35  C   UNL     1      -5.210   7.124  65.483  1.00  0.00    -0.027 C  
HETATM   36  H1  UNL     1      -4.598   7.334  67.428  1.00  0.00     0.000 HD 
HETATM   37  H2  UNL     1      -6.203   6.833  67.273  1.00  0.00     0.000 HD 
HETATM   38  N   UNL     1      -5.459   7.416  66.890  1.00  0.00    -0.023 NA 
ENDBRANCH  34  35
ENDBRANCH  31  34
ENDBRANCH  29  31
ENDBRANCH  18  27
BRANCH  26  39
HETATM   39  O   UNL     1     -10.069  12.000  67.826  1.00  0.00    -0.187 OA 
BRANCH  39  40
HETATM   40  C   UNL     1      -9.983  13.407  68.070  1.00  0.00    -0.239 C  
HETATM   41  H1  UNL     1     -12.857  13.143  70.011  1.00  0.00     0.000 HD 
HETATM   42  O   UNL     1     -10.257  14.165  66.888  1.00  0.00    -0.261 OA 
HETATM   43  H2  UNL     1     -12.020  11.942  69.200  1.00  0.00     0.000 HD 
HETATM   44  N   UNL     1     -12.221  12.941  69.240  1.00  0.00    -0.156 NA 
HETATM   45  C   UNL     1     -10.960  13.717  69.254  1.00  0.00    -0.144 C  
HETATM   46  C   UNL     1     -10.334  15.531  67.106  1.00  0.00    -0.272 C  
HETATM   47  C   UNL     1     -11.197  15.224  69.428  1.00  0.00    -0.291 C  
HETATM   48  C   UNL     1     -10.754  16.051  68.269  1.00  0.00    -0.298 C  
BRANCH  46  49
HETATM   49  C   UNL     1      -9.959  16.397  65.925  1.00  0.00    -0.332 C  
BRANCH  49  50
HETATM   50  N   UNL     1     -10.488  17.761  66.014  1.00  0.00    -0.459 NA 
HETATM   51  H   UNL     1     -11.196  17.840  66.743  1.00  0.00     0.000 HD 
BRANCH  50  52
HETATM   52  C   UNL     1      -9.409  18.747  66.201  1.00  0.00    -0.161 C  
BRANCH  52  53
HETATM   53  C   UNL     1      -9.768  19.746  67.304  1.00  0.00    -0.370 C  
HETATM   54  O   UNL     1      -9.296  19.289  68.569  1.00  0.00    -0.353 OA 
HETATM   55  H   UNL     1      -9.520  19.909  69.254  1.00  0.00     0.000 HD 
ENDBRANCH  52  53
ENDBRANCH  50  52
ENDBRANCH  49  50
ENDBRANCH  46  49
ENDBRANCH  39  40
ENDBRANCH  26  39
ENDBRANCH  15  16
ENDBRANCH   6  15
ENDBRANCH   2   4
TORSDOF 13
ENDMDL
MODEL       66
REMARK 921   NORMALIZED FREE ENERGY PREDICTED BY IDOCK:   -4.03 KCAL/MOL
REMARK 922        TOTAL FREE ENERGY PREDICTED BY IDOCK:  -10.56 KCAL/MOL
REMARK 923 INTER-LIGAND FREE ENERGY PREDICTED BY IDOCK:   -8.59 KCAL/MOL
REMARK 924 INTRA-LIGAND FREE ENERGY PREDICTED BY IDOCK:   -1.97 KCAL/MOL
REMARK 927      BINDING AFFINITY PREDICTED BY RF-SCORE:    0.00 PKD
ROOT
HETATM    1  C   UNL     1     -10.854   5.930  73.406  1.00  0.00    -0.245 C  
HETATM    2  N   UNL     1     -11.390   5.958  72.049  1.00  0.00    -0.281 NA 
HETATM    3  H   UNL     1     -12.307   5.512  72.026  1.00  0.00     0.000 HD 
ENDROOT
BRANCH   2   4
HETATM    4  C   UNL     1     -11.464   7.308  71.413  1.00  0.00    -0.266 C  
HETATM    5  C   UNL     1     -10.174   8.138  71.631  1.00  0.00    -0.206 C  
HETATM    6  C   UNL     1     -10.251   9.443  70.807  1.00  0.00    -0.299 C  
HETATM    7  O   UNL     1      -9.010   7.379  71.297  1.00  0.00    -0.138 OA 
HETATM    8  H   UNL     1      -8.219   7.889  71.432  1.00  0.00     0.000 HD 
HETATM    9  O   UNL     1     -12.833   8.445  73.120  1.00  0.00    -0.639 OA 
HETATM   10  O   UNL     1     -11.373  10.206  71.254  1.00  0.00    -0.325 OA 
HETATM   11  H   UNL     1     -13.598   8.978  73.301  1.00  0.00     0.000 HD 
HETATM   12  C   UNL     1     -12.621   9.545  70.985  1.00  0.00    -0.253 C  
HETATM   13  C   UNL     1     -14.023   7.496  71.275  1.00  0.00    -0.384 C  
HETATM   14  C   UNL     1     -12.725   8.186  71.712  1.00  0.00    -0.330 C  
BRANCH   6  15
HETATM   15  O   UNL     1     -10.343   9.156  69.410  1.00  0.00    -0.203 OA 
BRANCH  15  16
HETATM   16  C   UNL     1      -9.120   8.767  68.760  1.00  0.00    -0.138 C  
HETATM   17  H1  UNL     1      -8.297   9.768  64.493  1.00  0.00     0.000 HD 
HETATM   18  C   UNL     1      -9.274   7.585  67.776  1.00  0.00    -0.135 C  
HETATM   19  C   UNL     1      -8.593  10.024  68.016  1.00  0.00    -0.121 C  
HETATM   20  H2  UNL     1      -8.790   8.159  64.372  1.00  0.00     0.000 HD 
HETATM   21  C   UNL     1      -9.762   9.237  65.861  1.00  0.00    -0.285 C  
HETATM   22  C   UNL     1     -10.221   7.984  66.631  1.00  0.00    -0.315 C  
HETATM   23  O   UNL     1      -7.237   9.802  67.571  1.00  0.00    -0.088 OA 
HETATM   24  H   UNL     1      -6.914  10.571  67.115  1.00  0.00     0.000 HD 
HETATM   25  N   UNL     1      -8.601   8.939  65.002  1.00  0.00    -0.176 NA 
HETATM   26  C   UNL     1      -9.513  10.432  66.829  1.00  0.00    -0.166 C  
BRANCH  18  27
HETATM   27  N   UNL     1      -7.975   7.107  67.301  1.00  0.00    -0.110 N  
HETATM   28  H   UNL     1      -7.250   7.794  67.095  1.00  0.00     0.000 HD 
HETATM   29  C   UNL     1      -7.685   5.774  67.118  1.00  0.00    -0.101 C  
HETATM   30  O   UNL     1      -8.469   4.862  67.360  1.00  0.00    -0.106 OA 
BRANCH  29  31
HETATM   31  C   UNL     1      -6.261   5.503  66.606  1.00  0.00    -0.034 C  
HETATM   32  H   UNL     1      -4.965   6.367  65.394  1.00  0.00     0.000 HD 
HETATM   33  O   UNL     1      -5.846   6.535  65.710  1.00  0.00    -0.024 OA 
BRANCH  31  34
HETATM   34  C   UNL     1      -5.266   5.434  67.764  1.00  0.00    -0.004 C  
BRANCH  34  35
HETATM   35  C   UNL     1      -5.709   6.295  68.947  1.00  0.00    -0.019 C  
HETATM   36  H1  UNL     1      -5.584   8.253  69.543  1.00  0.00     0.000 HD 
HETATM   37  H2  UNL     1      -5.617   8.055  67.866  1.00  0.00     0.000 HD 
HETATM   38  N   UNL     1      -5.288   7.678  68.754  1.00  0.00    -0.025 NA 
ENDBRANCH  34  35
ENDBRANCH  31  34
ENDBRANCH  29  31
ENDBRANCH  18  27
BRANCH  26  39
HETATM   39  O   UNL     1     -10.813  10.871  67.218  1.00  0.00    -0.254 OA 
BRANCH  39  40
HETATM   40  C   UNL     1     -10.999  12.254  67.534  1.00  0.00    -0.254 C  
HETATM   41  H1  UNL     1     -12.838  12.575  64.600  1.00  0.00     0.000 HD 
HETATM   42  O   UNL     1      -9.775  12.988  67.430  1.00  0.00    -0.205 OA 
HETATM   43  H2  UNL     1     -12.113  11.212  65.245  1.00  0.00     0.000 HD 
HETATM   44  N   UNL     1     -12.101  12.231  65.216  1.00  0.00    -0.481 NA 
HETATM   45  C   UNL     1     -12.130  12.782  66.589  1.00  0.00    -0.246 C  
HETATM   46  C   UNL     1      -9.930  14.357  67.580  1.00  0.00    -0.224 C  
HETATM   47  C   UNL     1     -12.229  14.314  66.607  1.00  0.00    -0.411 C  
HETATM   48  C   UNL     1     -11.053  14.997  67.220  1.00  0.00    -0.334 C  
BRANCH  46  49
HETATM   49  C   UNL     1      -8.728  15.088  68.133  1.00  0.00    -0.165 C  
BRANCH  49  50
HETATM   50  N   UNL     1      -7.996  14.319  69.145  1.00  0.00    -0.329 NA 
HETATM   51  H   UNL     1      -8.555  13.544  69.500  1.00  0.00     0.000 HD 
BRANCH  50  52
HETATM   52  C   UNL     1      -6.695  13.855  68.632  1.00  0.00    -0.098 C  
BRANCH  52  53
HETATM   53  C   UNL     1      -6.027  12.901  69.625  1.00  0.00    -0.120 C  
HETATM   54  O   UNL     1      -5.638  11.692  68.977  1.00  0.00    -0.050 OA 
HETATM   55  H   UNL     1      -5.224  11.100  69.594  1.00  0.00     0.000 HD 
ENDBRANCH  52  53
ENDBRANCH  50  52
ENDBRANCH  49  50
ENDBRANCH  46  49
ENDBRANCH  39  40
ENDBRANCH  26  39
ENDBRANCH  15  16
ENDBRANCH   6  15
ENDBRANCH   2   4
TORSDOF 13
ENDMDL
MODEL       67
REMARK 921   NORMALIZED FREE ENERGY PREDICTED BY IDOCK:   -4.03 KCAL/MOL
REMARK 922        TOTAL FREE ENERGY PREDICTED BY IDOCK:  -10.56 KCAL/MOL
REMARK 923 INTER-LIGAND FREE ENERGY PREDICTED BY IDOCK:   -8.59 KCAL/MOL
REMARK 924 INTRA-LIGAND FREE ENERGY PREDICTED BY IDOCK:   -1.96 KCAL/MOL
REMARK 927      BINDING AFFINITY PREDICTED BY RF-SCORE:    0.00 PKD
ROOT
HETATM    1  C   UNL     1      -8.763  11.178  62.375  1.00  0.00    -0.266 C  
HETATM    2  N   UNL     1      -7.531  10.517  62.794  1.00  0.00    -0.256 NA 
HETATM    3  H   UNL     1      -6.824  11.214  63.030  1.00  0.00     0.000 HD 
ENDROOT
BRANCH   2   4
HETATM    4  C   UNL     1      -7.674   9.536  63.911  1.00  0.00    -0.123 C  
HETATM    5  C   UNL     1      -6.838   9.927  65.155  1.00  0.00    -0.124 C  
HETATM    6  C   UNL     1      -7.165   8.970  66.323  1.00  0.00    -0.090 C  
HETATM    7  O   UNL     1      -7.064  11.290  65.520  1.00  0.00    -0.342 OA 
HETATM    8  H   UNL     1      -6.550  11.530  66.283  1.00  0.00     0.000 HD 
HETATM    9  O   UNL     1      -6.144   7.794  63.069  1.00  0.00    -0.065 OA 
HETATM   10  O   UNL     1      -6.825   7.637  65.938  1.00  0.00    -0.055 OA 
HETATM   11  H   UNL     1      -6.018   6.875  62.868  1.00  0.00     0.000 HD 
HETATM   12  C   UNL     1      -7.638   7.161  64.852  1.00  0.00    -0.103 C  
HETATM   13  C   UNL     1      -8.455   7.523  62.518  1.00  0.00     0.076 C  
HETATM   14  C   UNL     1      -7.467   8.020  63.580  1.00  0.00    -0.122 C  
BRANCH   6  15
HETATM   15  O   UNL     1      -8.544   9.067  66.687  1.00  0.00    -0.123 OA 
BRANCH  15  16
HETATM   16  C   UNL     1      -8.970  10.330  67.228  1.00  0.00    -0.132 C  
HETATM   17  H1  UNL     1     -11.161  10.616  71.102  1.00  0.00     0.000 HD 
HETATM   18  C   UNL     1     -10.487  10.596  67.096  1.00  0.00    -0.245 C  
HETATM   19  C   UNL     1      -8.548  10.338  68.723  1.00  0.00    -0.139 C  
HETATM   20  H2  UNL     1     -12.423  10.746  69.991  1.00  0.00     0.000 HD 
HETATM   21  C   UNL     1     -10.886   9.485  69.386  1.00  0.00    -0.206 C  
HETATM   22  C   UNL     1     -11.269   9.539  67.895  1.00  0.00     0.110 C  
HETATM   23  O   UNL     1      -8.686  11.669  69.268  1.00  0.00    -0.343 OA 
HETATM   24  H   UNL     1      -8.428  11.675  70.182  1.00  0.00     0.000 HD 
HETATM   25  N   UNL     1     -11.415  10.652  70.116  1.00  0.00    -0.306 NA 
HETATM   26  C   UNL     1      -9.348   9.302  69.564  1.00  0.00    -0.173 C  
BRANCH  18  27
HETATM   27  N   UNL     1     -10.828  11.967  67.478  1.00  0.00    -0.231 N  
HETATM   28  H   UNL     1     -10.357  12.380  68.283  1.00  0.00     0.000 HD 
HETATM   29  C   UNL     1     -11.756  12.727  66.802  1.00  0.00    -0.392 C  
HETATM   30  O   UNL     1     -12.361  12.345  65.807  1.00  0.00    -0.644 OA 
BRANCH  29  31
HETATM   31  C   UNL     1     -11.960  14.136  67.382  1.00  0.00    -0.404 C  
HETATM   32  H   UNL     1     -12.025  14.975  69.168  1.00  0.00     0.000 HD 
HETATM   33  O   UNL     1     -11.899  14.104  68.809  1.00  0.00    -0.317 OA 
BRANCH  31  34
HETATM   34  C   UNL     1     -10.889  15.099  66.871  1.00  0.00    -0.317 C  
BRANCH  34  35
HETATM   35  C   UNL     1      -9.756  15.279  67.881  1.00  0.00    -0.211 C  
HETATM   36  H1  UNL     1      -7.943  14.425  68.311  1.00  0.00     0.000 HD 
HETATM   37  H2  UNL     1      -8.360  14.345  66.676  1.00  0.00     0.000 HD 
HETATM   38  N   UNL     1      -8.698  14.306  67.637  1.00  0.00    -0.180 NA 
ENDBRANCH  34  35
ENDBRANCH  31  34
ENDBRANCH  29  31
ENDBRANCH  18  27
BRANCH  26  39
HETATM   39  O   UNL     1      -9.094   7.942  69.217  1.00  0.00    -0.148 OA 
BRANCH  39  40
HETATM   40  C   UNL     1      -9.081   6.964  70.261  1.00  0.00    -0.153 C  
HETATM   41  H1  UNL     1     -10.611   4.745  68.063  1.00  0.00     0.000 HD 
HETATM   42  O   UNL     1      -9.982   7.308  71.318  1.00  0.00    -0.188 OA 
HETATM   43  H2  UNL     1     -10.121   6.323  67.796  1.00  0.00     0.000 HD 
HETATM   44  N   UNL     1     -10.403   5.643  68.502  1.00  0.00    -0.195 NA 
HETATM   45  C   UNL     1      -9.400   5.587  69.588  1.00  0.00    -0.134 C  
HETATM   46  C   UNL     1     -10.117   6.320  72.280  1.00  0.00    -0.177 C  
HETATM   47  C   UNL     1      -9.713   4.497  70.624  1.00  0.00    -0.282 C  
HETATM   48  C   UNL     1      -9.989   5.016  71.995  1.00  0.00    -0.239 C  
BRANCH  46  49
HETATM   49  C   UNL     1     -10.467   6.811  73.667  1.00  0.00    -0.347 C  
BRANCH  49  50
HETATM   50  N   UNL     1      -9.320   7.361  74.395  1.00  0.00    -0.427 NA 
HETATM   51  H   UNL     1      -9.392   7.181  75.396  1.00  0.00     0.000 HD 
BRANCH  50  52
HETATM   52  C   UNL     1      -8.045   6.863  73.848  1.00  0.00    -0.118 C  
BRANCH  52  53
HETATM   53  C   UNL     1      -7.047   8.008  73.662  1.00  0.00    -0.129 C  
HETATM   54  O   UNL     1      -7.412   8.818  72.548  1.00  0.00    -0.335 OA 
HETATM   55  H   UNL     1      -6.792   9.528  72.432  1.00  0.00     0.000 HD 
ENDBRANCH  52  53
ENDBRANCH  50  52
ENDBRANCH  49  50
ENDBRANCH  46  49
ENDBRANCH  39  40
ENDBRANCH  26  39
ENDBRANCH  15  16
ENDBRANCH   6  15
ENDBRANCH   2   4
TORSDOF 13
ENDMDL
MODEL       68
REMARK 921   NORMALIZED FREE ENERGY PREDICTED BY IDOCK:   -4.01 KCAL/MOL
REMARK 922        TOTAL FREE ENERGY PREDICTED BY IDOCK:  -10.52 KCAL/MOL
REMARK 923 INTER-LIGAND FREE ENERGY PREDICTED BY IDOCK:   -8.71 KCAL/MOL
REMARK 924 INTRA-LIGAND FREE ENERGY PREDICTED BY IDOCK:   -1.80 KCAL/MOL
REMARK 927      BINDING AFFINITY PREDICTED BY RF-SCORE:    0.00 PKD
ROOT
HETATM    1  C   UNL     1     -13.147   9.562  71.478  1.00  0.00    -0.389 C  
HETATM    2  N   UNL     1     -11.814  10.156  71.444  1.00  0.00    -0.359 NA 
HETATM    3  H   UNL     1     -11.479  10.318  72.394  1.00  0.00     0.000 HD 
ENDROOT
BRANCH   2   4
HETATM    4  C   UNL     1     -10.790   9.397  70.665  1.00  0.00    -0.283 C  
HETATM    5  C   UNL     1     -11.260   9.074  69.224  1.00  0.00     0.176 C  
HETATM    6  C   UNL     1     -10.095   8.446  68.426  1.00  0.00    -0.198 C  
HETATM    7  O   UNL     1     -11.767  10.241  68.573  1.00  0.00    -0.610 OA 
HETATM    8  H   UNL     1     -12.056  10.043  67.690  1.00  0.00     0.000 HD 
HETATM    9  O   UNL     1     -11.194   7.156  71.610  1.00  0.00    -0.237 OA 
HETATM   10  O   UNL     1      -9.699   7.232  69.066  1.00  0.00    -0.150 OA 
HETATM   11  H   UNL     1     -10.818   6.381  72.012  1.00  0.00     0.000 HD 
HETATM   12  C   UNL     1      -9.147   7.463  70.373  1.00  0.00    -0.157 C  
HETATM   13  C   UNL     1      -9.468   8.443  72.650  1.00  0.00    -0.335 C  
HETATM   14  C   UNL     1     -10.170   8.121  71.326  1.00  0.00    -0.195 C  
BRANCH   6  15
HETATM   15  O   UNL     1      -9.000   9.359  68.324  1.00  0.00    -0.128 OA 
BRANCH  15  16
HETATM   16  C   UNL     1      -8.117   9.168  67.206  1.00  0.00    -0.106 C  
HETATM   17  H1  UNL     1      -8.300  11.764  63.584  1.00  0.00     0.000 HD 
HETATM   18  C   UNL     1      -8.784   8.515  65.974  1.00  0.00    -0.161 C  
HETATM   19  C   UNL     1      -7.556  10.569  66.837  1.00  0.00    -0.110 C  
HETATM   20  H2  UNL     1      -9.141  10.398  63.062  1.00  0.00     0.000 HD 
HETATM   21  C   UNL     1      -9.412  10.846  65.074  1.00  0.00    -0.233 C  
HETATM   22  C   UNL     1      -9.900   9.432  65.444  1.00  0.00    -0.159 C  
HETATM   23  O   UNL     1      -6.455  10.433  65.912  1.00  0.00    -0.105 OA 
HETATM   24  H   UNL     1      -6.112  11.290  65.686  1.00  0.00     0.000 HD 
HETATM   25  N   UNL     1      -8.623  10.828  63.828  1.00  0.00    -0.094 NA 
HETATM   26  C   UNL     1      -8.656  11.509  66.265  1.00  0.00    -0.133 C  
BRANCH  18  27
HETATM   27  N   UNL     1      -7.800   8.164  64.950  1.00  0.00    -0.120 N  
HETATM   28  H   UNL     1      -7.167   8.891  64.614  1.00  0.00     0.000 HD 
HETATM   29  C   UNL     1      -7.687   6.900  64.417  1.00  0.00    -0.113 C  
HETATM   30  O   UNL     1      -8.373   5.946  64.764  1.00  0.00    -0.138 OA 
BRANCH  29  31
HETATM   31  C   UNL     1      -6.588   6.762  63.350  1.00  0.00    -0.042 C  
HETATM   32  H   UNL     1      -4.616   6.804  63.283  1.00  0.00     0.000 HD 
HETATM   33  O   UNL     1      -5.295   6.890  63.943  1.00  0.00    -0.027 OA 
BRANCH  31  34
HETATM   34  C   UNL     1      -6.672   5.406  62.651  1.00  0.00    -0.025 C  
BRANCH  34  35
HETATM   35  C   UNL     1      -5.909   4.324  63.415  1.00  0.00    -0.017 C  
HETATM   36  H1  UNL     1      -6.026   2.300  63.724  1.00  0.00     0.000 HD 
HETATM   37  H2  UNL     1      -6.627   2.794  62.225  1.00  0.00     0.000 HD 
HETATM   38  N   UNL     1      -6.534   3.022  63.214  1.00  0.00    -0.025 NA 
ENDBRANCH  34  35
ENDBRANCH  31  34
ENDBRANCH  29  31
ENDBRANCH  18  27
BRANCH  26  39
HETATM   39  O   UNL     1      -9.673  11.860  67.200  1.00  0.00    -0.183 OA 
BRANCH  39  40
HETATM   40  C   UNL     1      -9.844  13.241  67.536  1.00  0.00    -0.220 C  
HETATM   41  H1  UNL     1     -13.276  12.797  67.196  1.00  0.00     0.000 HD 
HETATM   42  O   UNL     1      -9.354  14.099  66.501  1.00  0.00    -0.279 OA 
HETATM   43  H2  UNL     1     -12.047  11.675  67.021  1.00  0.00     0.000 HD 
HETATM   44  N   UNL     1     -12.285  12.666  66.991  1.00  0.00    -0.428 NA 
HETATM   45  C   UNL     1     -11.364  13.441  67.851  1.00  0.00    -0.289 C  
HETATM   46  C   UNL     1      -9.631  15.440  66.711  1.00  0.00    -0.241 C  
HETATM   47  C   UNL     1     -11.745  14.926  67.935  1.00  0.00    -0.344 C  
HETATM   48  C   UNL     1     -10.719  15.854  67.377  1.00  0.00    -0.313 C  
BRANCH  46  49
HETATM   49  C   UNL     1      -8.646  16.408  66.095  1.00  0.00    -0.308 C  
BRANCH  49  50
HETATM   50  N   UNL     1      -9.067  17.808  66.198  1.00  0.00    -0.493 NA 
HETATM   51  H   UNL     1      -9.978  17.892  66.650  1.00  0.00     0.000 HD 
BRANCH  50  52
HETATM   52  C   UNL     1      -8.051  18.629  66.880  1.00  0.00    -0.248 C  
BRANCH  52  53
HETATM   53  C   UNL     1      -7.767  19.910  66.093  1.00  0.00    -0.325 C  
HETATM   54  O   UNL     1      -7.865  21.053  66.939  1.00  0.00    -0.564 OA 
HETATM   55  H   UNL     1      -7.690  21.848  66.451  1.00  0.00     0.000 HD 
ENDBRANCH  52  53
ENDBRANCH  50  52
ENDBRANCH  49  50
ENDBRANCH  46  49
ENDBRANCH  39  40
ENDBRANCH  26  39
ENDBRANCH  15  16
ENDBRANCH   6  15
ENDBRANCH   2   4
TORSDOF 13
ENDMDL
MODEL       69
REMARK 921   NORMALIZED FREE ENERGY PREDICTED BY IDOCK:   -3.96 KCAL/MOL
REMARK 922        TOTAL FREE ENERGY PREDICTED BY IDOCK:  -10.44 KCAL/MOL
REMARK 923 INTER-LIGAND FREE ENERGY PREDICTED BY IDOCK:   -8.66 KCAL/MOL
REMARK 924 INTRA-LIGAND FREE ENERGY PREDICTED BY IDOCK:   -1.77 KCAL/MOL
REMARK 927      BINDING AFFINITY PREDICTED BY RF-SCORE:    0.00 PKD
ROOT
HETATM    1  C   UNL     1      -8.008   6.920  63.004  1.00  0.00    -0.081 C  
HETATM    2  N   UNL     1      -8.652   7.060  64.306  1.00  0.00    -0.302 NA 
HETATM    3  H   UNL     1      -8.489   6.225  64.868  1.00  0.00     0.000 HD 
ENDROOT
BRANCH   2   4
HETATM    4  C   UNL     1      -8.276   8.279  65.083  1.00  0.00    -0.154 C  
HETATM    5  C   UNL     1      -8.336   9.570  64.228  1.00  0.00    -0.170 C  
HETATM    6  C   UNL     1      -8.106  10.803  65.131  1.00  0.00     0.004 C  
HETATM    7  O   UNL     1      -9.576   9.665  63.524  1.00  0.00    -0.490 OA 
HETATM    8  H   UNL     1      -9.613  10.456  62.999  1.00  0.00     0.000 HD 
HETATM    9  O   UNL     1      -5.825   8.010  65.029  1.00  0.00    -0.044 OA 
HETATM   10  O   UNL     1      -6.812  10.703  65.727  1.00  0.00    -0.133 OA 
HETATM   11  H   UNL     1      -5.016   7.985  65.525  1.00  0.00     0.000 HD 
HETATM   12  C   UNL     1      -6.712   9.584  66.625  1.00  0.00    -0.072 C  
HETATM   13  C   UNL     1      -6.942   7.117  66.946  1.00  0.00    -0.077 C  
HETATM   14  C   UNL     1      -6.942   8.239  65.902  1.00  0.00    -0.064 C  
BRANCH   6  15
HETATM   15  O   UNL     1      -9.128  10.901  66.125  1.00  0.00    -0.171 OA 
BRANCH  15  16
HETATM   16  C   UNL     1      -9.384  12.217  66.645  1.00  0.00    -0.226 C  
HETATM   17  H1  UNL     1     -11.449  12.851  70.546  1.00  0.00     0.000 HD 
HETATM   18  C   UNL     1     -10.859  12.667  66.532  1.00  0.00    -0.258 C  
HETATM   19  C   UNL     1      -8.936  12.203  68.132  1.00  0.00    -0.195 C  
HETATM   20  H2  UNL     1     -12.706  13.115  69.453  1.00  0.00     0.000 HD 
HETATM   21  C   UNL     1     -11.348  11.661  68.852  1.00  0.00    -0.267 C  
HETATM   22  C   UNL     1     -11.751  11.732  67.366  1.00  0.00    -0.304 C  
HETATM   23  O   UNL     1      -8.898  13.552  68.649  1.00  0.00    -0.332 OA 
HETATM   24  H   UNL     1      -8.624  13.543  69.559  1.00  0.00     0.000 HD 
HETATM   25  N   UNL     1     -11.716  12.899  69.564  1.00  0.00    -0.319 NA 
HETATM   26  C   UNL     1      -9.842  11.292  69.009  1.00  0.00    -0.082 C  
BRANCH  18  27
HETATM   27  N   UNL     1     -11.021  14.077  66.888  1.00  0.00    -0.294 N  
HETATM   28  H   UNL     1     -11.337  14.307  67.830  1.00  0.00     0.000 HD 
HETATM   29  C   UNL     1     -10.767  15.108  66.012  1.00  0.00    -0.329 C  
HETATM   30  O   UNL     1     -10.356  14.950  64.867  1.00  0.00    -0.400 OA 
BRANCH  29  31
HETATM   31  C   UNL     1     -11.011  16.508  66.599  1.00  0.00     0.060 C  
HETATM   32  H   UNL     1     -11.246  17.313  68.386  1.00  0.00     0.000 HD 
HETATM   33  O   UNL     1     -11.095  16.447  68.023  1.00  0.00    -0.348 OA 
BRANCH  31  34
HETATM   34  C   UNL     1      -9.883  17.466  66.218  1.00  0.00    -0.291 C  
BRANCH  34  35
HETATM   35  C   UNL     1     -10.416  18.843  65.819  1.00  0.00    -0.290 C  
HETATM   36  H1  UNL     1     -11.002  20.579  66.737  1.00  0.00     0.000 HD 
HETATM   37  H2  UNL     1      -9.811  19.732  67.584  1.00  0.00     0.000 HD 
HETATM   38  N   UNL     1     -10.646  19.662  67.003  1.00  0.00    -0.473 NA 
ENDBRANCH  34  35
ENDBRANCH  31  34
ENDBRANCH  29  31
ENDBRANCH  18  27
BRANCH  26  39
HETATM   39  O   UNL     1      -9.765   9.904  68.688  1.00  0.00    -0.150 OA 
BRANCH  39  40
HETATM   40  C   UNL     1     -10.047   8.950  69.717  1.00  0.00    -0.199 C  
HETATM   41  H1  UNL     1      -7.071   9.880  71.257  1.00  0.00     0.000 HD 
HETATM   42  O   UNL     1      -9.950   7.607  69.231  1.00  0.00    -0.173 OA 
HETATM   43  H2  UNL     1      -7.760  10.473  69.852  1.00  0.00     0.000 HD 
HETATM   44  N   UNL     1      -7.709   9.677  70.487  1.00  0.00    -0.227 NA 
HETATM   45  C   UNL     1      -9.069   9.262  70.898  1.00  0.00    -0.222 C  
HETATM   46  C   UNL     1     -10.067   6.646  70.221  1.00  0.00    -0.179 C  
HETATM   47  C   UNL     1      -9.051   8.139  71.945  1.00  0.00    -0.230 C  
HETATM   48  C   UNL     1      -9.671   6.863  71.485  1.00  0.00    -0.164 C  
BRANCH  46  49
HETATM   49  C   UNL     1     -10.627   5.316  69.770  1.00  0.00    -0.213 C  
BRANCH  49  50
HETATM   50  N   UNL     1      -9.638   4.234  69.784  1.00  0.00    -0.195 NA 
HETATM   51  H   UNL     1     -10.085   3.322  69.880  1.00  0.00     0.000 HD 
BRANCH  50  52
HETATM   52  C   UNL     1      -8.765   4.286  68.599  1.00  0.00    -0.096 C  
BRANCH  52  53
HETATM   53  C   UNL     1      -8.761   2.942  67.866  1.00  0.00    -0.109 C  
HETATM   54  O   UNL     1      -9.729   2.938  66.820  1.00  0.00    -0.407 OA 
HETATM   55  H   UNL     1      -9.727   2.104  66.365  1.00  0.00     0.000 HD 
ENDBRANCH  52  53
ENDBRANCH  50  52
ENDBRANCH  49  50
ENDBRANCH  46  49
ENDBRANCH  39  40
ENDBRANCH  26  39
ENDBRANCH  15  16
ENDBRANCH   6  15
ENDBRANCH   2   4
TORSDOF 13
ENDMDL
MODEL       70
REMARK 921   NORMALIZED FREE ENERGY PREDICTED BY IDOCK:   -3.96 KCAL/MOL
REMARK 922        TOTAL FREE ENERGY PREDICTED BY IDOCK:  -10.43 KCAL/MOL
REMARK 923 INTER-LIGAND FREE ENERGY PREDICTED BY IDOCK:   -8.22 KCAL/MOL
REMARK 924 INTRA-LIGAND FREE ENERGY PREDICTED BY IDOCK:   -2.22 KCAL/MOL
REMARK 927      BINDING AFFINITY PREDICTED BY RF-SCORE:    0.00 PKD
ROOT
HETATM    1  C   UNL     1      -9.416  11.396  62.913  1.00  0.00    -0.345 C  
HETATM    2  N   UNL     1      -8.017  10.986  62.977  1.00  0.00    -0.379 NA 
HETATM    3  H   UNL     1      -7.428  11.787  63.209  1.00  0.00     0.000 HD 
ENDROOT
BRANCH   2   4
HETATM    4  C   UNL     1      -7.719   9.850  63.901  1.00  0.00    -0.140 C  
HETATM    5  C   UNL     1      -6.692  10.231  64.998  1.00  0.00    -0.108 C  
HETATM    6  C   UNL     1      -6.563   9.074  66.013  1.00  0.00    -0.065 C  
HETATM    7  O   UNL     1      -7.057  11.452  65.644  1.00  0.00    -0.304 OA 
HETATM    8  H   UNL     1      -6.427  11.686  66.316  1.00  0.00     0.000 HD 
HETATM    9  O   UNL     1      -6.154   8.603  62.460  1.00  0.00    -0.087 OA 
HETATM   10  O   UNL     1      -6.098   7.909  65.329  1.00  0.00    -0.038 OA 
HETATM   11  H   UNL     1      -5.923   7.767  62.073  1.00  0.00     0.000 HD 
HETATM   12  C   UNL     1      -7.051   7.429  64.365  1.00  0.00    -0.062 C  
HETATM   13  C   UNL     1      -8.447   7.933  62.355  1.00  0.00    -0.035 C  
HETATM   14  C   UNL     1      -7.337   8.473  63.264  1.00  0.00    -0.103 C  
BRANCH   6  15
HETATM   15  O   UNL     1      -7.812   8.828  66.664  1.00  0.00    -0.098 OA 
BRANCH  15  16
HETATM   16  C   UNL     1      -8.301   9.878  67.516  1.00  0.00    -0.114 C  
HETATM   17  H1  UNL     1     -10.888   9.035  71.050  1.00  0.00     0.000 HD 
HETATM   18  C   UNL     1      -9.797  10.211  67.317  1.00  0.00    -0.183 C  
HETATM   19  C   UNL     1      -8.038   9.423  68.978  1.00  0.00    -0.106 C  
HETATM   20  H2  UNL     1     -12.027   9.528  69.908  1.00  0.00     0.000 HD 
HETATM   21  C   UNL     1     -10.427   8.470  69.109  1.00  0.00    -0.205 C  
HETATM   22  C   UNL     1     -10.652   8.983  67.673  1.00  0.00    -0.298 C  
HETATM   23  O   UNL     1      -8.241  10.530  69.884  1.00  0.00    -0.372 OA 
HETATM   24  H   UNL     1      -8.081  10.252  70.778  1.00  0.00     0.000 HD 
HETATM   25  N   UNL     1     -11.037   9.374  70.100  1.00  0.00    -0.243 NA 
HETATM   26  C   UNL     1      -8.915   8.202  69.379  1.00  0.00    -0.147 C  
BRANCH  18  27
HETATM   27  N   UNL     1     -10.186  11.411  68.060  1.00  0.00    -0.180 N  
HETATM   28  H   UNL     1     -10.549  11.300  69.007  1.00  0.00     0.000 HD 
HETATM   29  C   UNL     1     -10.085  12.682  67.542  1.00  0.00    -0.212 C  
HETATM   30  O   UNL     1      -9.637  12.935  66.429  1.00  0.00    -0.254 OA 
BRANCH  29  31
HETATM   31  C   UNL     1     -10.557  13.791  68.497  1.00  0.00    -0.253 C  
HETATM   32  H   UNL     1     -10.841  15.743  68.427  1.00  0.00     0.000 HD 
HETATM   33  O   UNL     1     -10.549  15.057  67.837  1.00  0.00    -0.251 OA 
BRANCH  31  34
HETATM   34  C   UNL     1     -11.973  13.513  69.001  1.00  0.00    -0.376 C  
BRANCH  34  35
HETATM   35  C   UNL     1     -12.091  13.726  70.510  1.00  0.00    -0.345 C  
HETATM   36  H1  UNL     1     -12.738  12.686  72.154  1.00  0.00     0.000 HD 
HETATM   37  H2  UNL     1     -12.132  11.701  70.923  1.00  0.00     0.000 HD 
HETATM   38  N   UNL     1     -12.659  12.544  71.148  1.00  0.00    -0.327 NA 
ENDBRANCH  34  35
ENDBRANCH  31  34
ENDBRANCH  29  31
ENDBRANCH  18  27
BRANCH  26  39
HETATM   39  O   UNL     1      -8.617   7.005  68.663  1.00  0.00    -0.121 OA 
BRANCH  39  40
HETATM   40  C   UNL     1      -8.601   5.768  69.381  1.00  0.00    -0.111 C  
HETATM   41  H1  UNL     1     -10.195   4.288  66.667  1.00  0.00     0.000 HD 
HETATM   42  O   UNL     1      -9.482   5.802  70.509  1.00  0.00    -0.161 OA 
HETATM   43  H2  UNL     1      -9.687   5.871  66.855  1.00  0.00     0.000 HD 
HETATM   44  N   UNL     1      -9.968   5.019  67.341  1.00  0.00    -0.176 NA 
HETATM   45  C   UNL     1      -8.950   4.645  68.347  1.00  0.00    -0.113 C  
HETATM   46  C   UNL     1      -9.616   4.580  71.149  1.00  0.00    -0.175 C  
HETATM   47  C   UNL     1      -9.262   3.307  69.032  1.00  0.00    -0.224 C  
HETATM   48  C   UNL     1      -9.510   3.412  70.498  1.00  0.00    -0.247 C  
BRANCH  46  49
HETATM   49  C   UNL     1      -9.939   4.655  72.624  1.00  0.00    -0.163 C  
BRANCH  49  50
HETATM   50  N   UNL     1      -9.165   5.675  73.337  1.00  0.00    -0.135 NA 
HETATM   51  H   UNL     1      -8.542   6.179  72.706  1.00  0.00     0.000 HD 
BRANCH  50  52
HETATM   52  C   UNL     1     -10.042   6.597  74.079  1.00  0.00    -0.347 C  
BRANCH  52  53
HETATM   53  C   UNL     1     -10.621   7.666  73.149  1.00  0.00    -0.379 C  
HETATM   54  O   UNL     1      -9.580   8.332  72.439  1.00  0.00    -0.236 OA 
HETATM   55  H   UNL     1      -9.939   8.996  71.862  1.00  0.00     0.000 HD 
ENDBRANCH  52  53
ENDBRANCH  50  52
ENDBRANCH  49  50
ENDBRANCH  46  49
ENDBRANCH  39  40
ENDBRANCH  26  39
ENDBRANCH  15  16
ENDBRANCH   6  15
ENDBRANCH   2   4
TORSDOF 13
ENDMDL
MODEL       71
REMARK 921   NORMALIZED FREE ENERGY PREDICTED BY IDOCK:   -3.96 KCAL/MOL
REMARK 922        TOTAL FREE ENERGY PREDICTED BY IDOCK:  -10.43 KCAL/MOL
REMARK 923 INTER-LIGAND FREE ENERGY PREDICTED BY IDOCK:   -8.40 KCAL/MOL
REMARK 924 INTRA-LIGAND FREE ENERGY PREDICTED BY IDOCK:   -2.03 KCAL/MOL
REMARK 927      BINDING AFFINITY PREDICTED BY RF-SCORE:    0.00 PKD
ROOT
HETATM    1  C   UNL     1      -6.887   8.875  67.400  1.00  0.00    -0.070 C  
HETATM    2  N   UNL     1      -7.925   8.621  68.394  1.00  0.00    -0.112 NA 
HETATM    3  H   UNL     1      -7.516   8.598  69.329  1.00  0.00     0.000 HD 
ENDROOT
BRANCH   2   4
HETATM    4  C   UNL     1      -9.087   9.560  68.368  1.00  0.00    -0.127 C  
HETATM    5  C   UNL     1      -9.172  10.434  69.645  1.00  0.00    -0.056 C  
HETATM    6  C   UNL     1     -10.284  11.494  69.476  1.00  0.00     0.331 C  
HETATM    7  O   UNL     1      -7.912  11.043  69.939  1.00  0.00    -0.289 OA 
HETATM    8  H   UNL     1      -7.965  11.578  70.722  1.00  0.00     0.000 HD 
HETATM    9  O   UNL     1     -10.864   7.967  68.988  1.00  0.00    -0.393 OA 
HETATM   10  O   UNL     1     -11.533  10.827  69.288  1.00  0.00    -0.254 OA 
HETATM   11  H   UNL     1     -11.718   7.608  68.781  1.00  0.00     0.000 HD 
HETATM   12  C   UNL     1     -11.569  10.078  68.061  1.00  0.00     0.446 C  
HETATM   13  C   UNL     1     -10.521   8.305  66.646  1.00  0.00    -0.217 C  
HETATM   14  C   UNL     1     -10.495   8.969  68.027  1.00  0.00    -0.216 C  
BRANCH   6  15
HETATM   15  O   UNL     1      -9.991  12.365  68.381  1.00  0.00    -0.220 OA 
BRANCH  15  16
HETATM   16  C   UNL     1      -9.922  13.768  68.687  1.00  0.00    -0.174 C  
HETATM   17  H1  UNL     1     -11.547  16.867  65.923  1.00  0.00     0.000 HD 
HETATM   18  C   UNL     1      -8.854  14.541  67.881  1.00  0.00    -0.176 C  
HETATM   19  C   UNL     1     -11.335  14.354  68.413  1.00  0.00    -0.287 C  
HETATM   20  H2  UNL     1      -9.898  16.934  65.572  1.00  0.00     0.000 HD 
HETATM   21  C   UNL     1     -10.590  15.032  66.042  1.00  0.00    -0.322 C  
HETATM   22  C   UNL     1      -9.193  14.479  66.381  1.00  0.00    -0.264 C  
HETATM   23  O   UNL     1     -11.430  15.689  68.955  1.00  0.00    -0.315 OA 
HETATM   24  H   UNL     1     -12.294  16.047  68.787  1.00  0.00     0.000 HD 
HETATM   25  N   UNL     1     -10.622  16.502  66.147  1.00  0.00    -0.278 NA 
HETATM   26  C   UNL     1     -11.692  14.337  66.898  1.00  0.00    -0.408 C  
BRANCH  18  27
HETATM   27  N   UNL     1      -8.692  15.909  68.373  1.00  0.00    -0.177 N  
HETATM   28  H   UNL     1      -9.529  16.469  68.536  1.00  0.00     0.000 HD 
HETATM   29  C   UNL     1      -7.464  16.478  68.626  1.00  0.00    -0.202 C  
HETATM   30  O   UNL     1      -6.396  15.891  68.492  1.00  0.00    -0.107 OA 
BRANCH  29  31
HETATM   31  C   UNL     1      -7.533  17.928  69.130  1.00  0.00    -0.082 C  
HETATM   32  H   UNL     1      -6.292  19.261  69.891  1.00  0.00     0.000 HD 
HETATM   33  O   UNL     1      -6.249  18.365  69.579  1.00  0.00    -0.257 OA 
BRANCH  31  34
HETATM   34  C   UNL     1      -8.009  18.871  68.024  1.00  0.00    -0.315 C  
BRANCH  34  35
HETATM   35  C   UNL     1      -6.971  19.009  66.910  1.00  0.00    -0.200 C  
HETATM   36  H1  UNL     1      -6.811  18.583  64.911  1.00  0.00     0.000 HD 
HETATM   37  H2  UNL     1      -8.388  18.933  65.406  1.00  0.00     0.000 HD 
HETATM   38  N   UNL     1      -7.502  18.492  65.654  1.00  0.00    -0.522 NA 
ENDBRANCH  34  35
ENDBRANCH  31  34
ENDBRANCH  29  31
ENDBRANCH  18  27
BRANCH  26  39
HETATM   39  O   UNL     1     -11.825  13.031  66.341  1.00  0.00    -0.370 OA 
BRANCH  39  40
HETATM   40  C   UNL     1     -11.059  12.704  65.178  1.00  0.00    -0.294 C  
HETATM   41  H1  UNL     1     -14.038  11.946  63.551  1.00  0.00     0.000 HD 
HETATM   42  O   UNL     1     -10.288  11.514  65.371  1.00  0.00    -0.252 OA 
HETATM   43  H2  UNL     1     -13.802  12.504  65.111  1.00  0.00     0.000 HD 
HETATM   44  N   UNL     1     -13.378  12.007  64.327  1.00  0.00    -0.571 NA 
HETATM   45  C   UNL     1     -12.070  12.610  63.987  1.00  0.00    -0.462 C  
HETATM   46  C   UNL     1      -9.646  11.073  64.226  1.00  0.00    -0.262 C  
HETATM   47  C   UNL     1     -11.436  11.976  62.740  1.00  0.00     0.512 C  
HETATM   48  C   UNL     1     -10.143  11.279  62.997  1.00  0.00    -0.327 C  
BRANCH  46  49
HETATM   49  C   UNL     1      -8.367  10.300  64.458  1.00  0.00    -0.168 C  
BRANCH  49  50
HETATM   50  N   UNL     1      -7.331  10.579  63.459  1.00  0.00    -0.342 NA 
HETATM   51  H   UNL     1      -6.491  10.966  63.890  1.00  0.00     0.000 HD 
BRANCH  50  52
HETATM   52  C   UNL     1      -7.022   9.383  62.655  1.00  0.00    -0.094 C  
BRANCH  52  53
HETATM   53  C   UNL     1      -7.615   8.127  63.296  1.00  0.00    -0.132 C  
HETATM   54  O   UNL     1      -8.563   7.517  62.423  1.00  0.00    -0.376 OA 
HETATM   55  H   UNL     1      -8.932   6.737  62.821  1.00  0.00     0.000 HD 
ENDBRANCH  52  53
ENDBRANCH  50  52
ENDBRANCH  49  50
ENDBRANCH  46  49
ENDBRANCH  39  40
ENDBRANCH  26  39
ENDBRANCH  15  16
ENDBRANCH   6  15
ENDBRANCH   2   4
TORSDOF 13
ENDMDL
MODEL       72
REMARK 921   NORMALIZED FREE ENERGY PREDICTED BY IDOCK:   -3.96 KCAL/MOL
REMARK 922        TOTAL FREE ENERGY PREDICTED BY IDOCK:  -10.43 KCAL/MOL
REMARK 923 INTER-LIGAND FREE ENERGY PREDICTED BY IDOCK:   -8.51 KCAL/MOL
REMARK 924 INTRA-LIGAND FREE ENERGY PREDICTED BY IDOCK:   -1.91 KCAL/MOL
REMARK 927      BINDING AFFINITY PREDICTED BY RF-SCORE:    0.00 PKD
ROOT
HETATM    1  C   UNL     1      -6.207   5.878  67.457  1.00  0.00    -0.033 C  
HETATM    2  N   UNL     1      -5.418   7.001  67.956  1.00  0.00    -0.019 NA 
HETATM    3  H   UNL     1      -4.765   7.315  67.238  1.00  0.00     0.000 HD 
ENDROOT
BRANCH   2   4
HETATM    4  C   UNL     1      -6.204   8.161  68.473  1.00  0.00    -0.049 C  
HETATM    5  C   UNL     1      -5.716   9.514  67.895  1.00  0.00    -0.041 C  
HETATM    6  C   UNL     1      -6.675  10.643  68.333  1.00  0.00    -0.060 C  
HETATM    7  O   UNL     1      -5.598   9.454  66.472  1.00  0.00    -0.050 OA 
HETATM    8  H   UNL     1      -5.298  10.283  66.118  1.00  0.00     0.000 HD 
HETATM    9  O   UNL     1      -5.126   8.382  70.680  1.00  0.00    -0.022 OA 
HETATM   10  O   UNL     1      -6.674  10.722  69.760  1.00  0.00    -0.109 OA 
HETATM   11  H   UNL     1      -5.243   8.453  71.619  1.00  0.00     0.000 HD 
HETATM   12  C   UNL     1      -7.218   9.539  70.369  1.00  0.00    -0.127 C  
HETATM   13  C   UNL     1      -7.113   7.054  70.606  1.00  0.00    -0.067 C  
HETATM   14  C   UNL     1      -6.398   8.278  70.022  1.00  0.00    -0.035 C  
BRANCH   6  15
HETATM   15  O   UNL     1      -7.992  10.413  67.828  1.00  0.00    -0.101 OA 
BRANCH  15  16
HETATM   16  C   UNL     1      -8.686  11.565  67.319  1.00  0.00    -0.151 C  
HETATM   17  H1  UNL     1     -12.889  12.493  68.486  1.00  0.00     0.000 HD 
HETATM   18  C   UNL     1      -9.745  11.241  66.240  1.00  0.00    -0.216 C  
HETATM   19  C   UNL     1      -9.353  12.259  68.538  1.00  0.00    -0.099 C  
HETATM   20  H2  UNL     1     -13.110  11.779  66.975  1.00  0.00     0.000 HD 
HETATM   21  C   UNL     1     -11.537  10.977  68.072  1.00  0.00    -0.249 C  
HETATM   22  C   UNL     1     -10.845  10.352  66.845  1.00  0.00    -0.229 C  
HETATM   23  O   UNL     1      -9.833  13.567  68.160  1.00  0.00    -0.224 OA 
HETATM   24  H   UNL     1     -10.241  13.992  68.906  1.00  0.00     0.000 HD 
HETATM   25  N   UNL     1     -12.432  12.079  67.675  1.00  0.00     0.272 NA 
HETATM   26  C   UNL     1     -10.494  11.397  69.151  1.00  0.00    -0.127 C  
BRANCH  18  27
HETATM   27  N   UNL     1     -10.272  12.457  65.619  1.00  0.00    -0.258 N  
HETATM   28  H   UNL     1     -10.086  13.353  66.071  1.00  0.00     0.000 HD 
HETATM   29  C   UNL     1     -11.007  12.450  64.455  1.00  0.00    -0.316 C  
HETATM   30  O   UNL     1     -11.266  11.437  63.814  1.00  0.00    -0.399 OA 
BRANCH  29  31
HETATM   31  C   UNL     1     -11.463  13.842  63.990  1.00  0.00    -0.216 C  
HETATM   32  H   UNL     1     -12.988  14.615  63.004  1.00  0.00     0.000 HD 
HETATM   33  O   UNL     1     -12.706  13.754  63.292  1.00  0.00    -0.783 OA 
BRANCH  31  34
HETATM   34  C   UNL     1     -11.637  14.787  65.178  1.00  0.00    -0.358 C  
BRANCH  34  35
HETATM   35  C   UNL     1     -10.574  15.886  65.191  1.00  0.00    -0.397 C  
HETATM   36  H1  UNL     1     -10.340  17.794  64.478  1.00  0.00     0.000 HD 
HETATM   37  H2  UNL     1     -11.942  17.393  64.832  1.00  0.00     0.000 HD 
HETATM   38  N   UNL     1     -11.049  17.061  64.470  1.00  0.00    -1.062 NA 
ENDBRANCH  34  35
ENDBRANCH  31  34
ENDBRANCH  29  31
ENDBRANCH  18  27
BRANCH  26  39
HETATM   39  O   UNL     1     -10.056  10.174  69.740  1.00  0.00    -0.230 OA 
BRANCH  39  40
HETATM   40  C   UNL     1     -10.921   9.037  69.671  1.00  0.00    -0.136 C  
HETATM   41  H1  UNL     1     -10.834   8.888  73.145  1.00  0.00     0.000 HD 
HETATM   42  O   UNL     1     -10.254   7.900  69.114  1.00  0.00    -0.206 OA 
HETATM   43  H2  UNL     1     -10.095   9.984  72.119  1.00  0.00     0.000 HD 
HETATM   44  N   UNL     1     -10.481   9.043  72.201  1.00  0.00    -0.260 NA 
HETATM   45  C   UNL     1     -11.463   8.798  71.121  1.00  0.00    -0.286 C  
HETATM   46  C   UNL     1     -11.000   6.734  69.165  1.00  0.00    -0.244 C  
HETATM   47  C   UNL     1     -12.163   7.438  71.258  1.00  0.00    -0.374 C  
HETATM   48  C   UNL     1     -11.897   6.495  70.134  1.00  0.00    -0.331 C  
BRANCH  46  49
HETATM   49  C   UNL     1     -10.702   5.726  68.078  1.00  0.00    -0.209 C  
BRANCH  49  50
HETATM   50  N   UNL     1     -11.271   6.090  66.777  1.00  0.00    -0.696 NA 
HETATM   51  H   UNL     1     -11.466   7.089  66.722  1.00  0.00     0.000 HD 
BRANCH  50  52
HETATM   52  C   UNL     1     -10.408   5.647  65.668  1.00  0.00     0.464 C  
BRANCH  52  53
HETATM   53  C   UNL     1     -10.042   4.168  65.818  1.00  0.00    -0.164 C  
HETATM   54  O   UNL     1     -10.256   3.471  64.594  1.00  0.00    -0.317 OA 
HETATM   55  H   UNL     1     -10.029   2.553  64.687  1.00  0.00     0.000 HD 
ENDBRANCH  52  53
ENDBRANCH  50  52
ENDBRANCH  49  50
ENDBRANCH  46  49
ENDBRANCH  39  40
ENDBRANCH  26  39
ENDBRANCH  15  16
ENDBRANCH   6  15
ENDBRANCH   2   4
TORSDOF 13
ENDMDL
MODEL       73
REMARK 921   NORMALIZED FREE ENERGY PREDICTED BY IDOCK:   -3.94 KCAL/MOL
REMARK 922        TOTAL FREE ENERGY PREDICTED BY IDOCK:  -10.40 KCAL/MOL
REMARK 923 INTER-LIGAND FREE ENERGY PREDICTED BY IDOCK:   -9.65 KCAL/MOL
REMARK 924 INTRA-LIGAND FREE ENERGY PREDICTED BY IDOCK:   -0.75 KCAL/MOL
REMARK 927      BINDING AFFINITY PREDICTED BY RF-SCORE:    0.00 PKD
ROOT
HETATM    1  C   UNL     1      -8.941  11.277  62.465  1.00  0.00    -0.233 C  
HETATM    2  N   UNL     1      -9.950  12.253  62.864  1.00  0.00    -0.427 NA 
HETATM    3  H   UNL     1     -10.788  12.143  62.293  1.00  0.00     0.000 HD 
ENDROOT
BRANCH   2   4
HETATM    4  C   UNL     1     -10.316  12.247  64.312  1.00  0.00    -0.348 C  
HETATM    5  C   UNL     1     -10.798  10.856  64.796  1.00  0.00    -0.083 C  
HETATM    6  C   UNL     1     -10.993  10.878  66.329  1.00  0.00    -0.061 C  
HETATM    7  O   UNL     1      -9.887   9.828  64.402  1.00  0.00    -0.403 OA 
HETATM    8  H   UNL     1     -10.183   8.975  64.698  1.00  0.00     0.000 HD 
HETATM    9  O   UNL     1     -12.547  13.281  64.133  1.00  0.00    -0.629 OA 
HETATM   10  O   UNL     1     -11.987  11.851  66.654  1.00  0.00    -0.601 OA 
HETATM   11  H   UNL     1     -13.139  13.957  64.442  1.00  0.00     0.000 HD 
HETATM   12  C   UNL     1     -11.564  13.187  66.333  1.00  0.00    -0.349 C  
HETATM   13  C   UNL     1     -10.730  14.767  64.586  1.00  0.00    -0.279 C  
HETATM   14  C   UNL     1     -11.290  13.360  64.823  1.00  0.00    -0.337 C  
BRANCH   6  15
HETATM   15  O   UNL     1      -9.758  11.156  66.993  1.00  0.00    -0.182 OA 
BRANCH  15  16
HETATM   16  C   UNL     1      -9.385  10.251  68.045  1.00  0.00    -0.138 C  
HETATM   17  H1  UNL     1      -5.260  10.177  69.740  1.00  0.00     0.000 HD 
HETATM   18  C   UNL     1      -8.514   9.062  67.579  1.00  0.00    -0.116 C  
HETATM   19  C   UNL     1      -8.625  11.092  69.108  1.00  0.00     0.057 C  
HETATM   20  H2  UNL     1      -5.215   8.860  68.687  1.00  0.00     0.000 HD 
HETATM   21  C   UNL     1      -6.384  10.443  68.018  1.00  0.00    -0.059 C  
HETATM   22  C   UNL     1      -7.181   9.585  67.017  1.00  0.00    -0.087 C  
HETATM   23  O   UNL     1      -8.460  10.324  70.320  1.00  0.00    -0.343 OA 
HETATM   24  H   UNL     1      -7.995  10.839  70.970  1.00  0.00     0.000 HD 
HETATM   25  N   UNL     1      -5.787   9.609  69.077  1.00  0.00    -0.036 NA 
HETATM   26  C   UNL     1      -7.256  11.607  68.579  1.00  0.00    -0.094 C  
BRANCH  18  27
HETATM   27  N   UNL     1      -8.335   8.075  68.645  1.00  0.00    -0.126 N  
HETATM   28  H   UNL     1      -7.485   8.117  69.208  1.00  0.00     0.000 HD 
HETATM   29  C   UNL     1      -9.257   7.092  68.923  1.00  0.00    -0.136 C  
HETATM   30  O   UNL     1     -10.323   6.965  68.331  1.00  0.00    -0.172 OA 
BRANCH  29  31
HETATM   31  C   UNL     1      -8.858   6.162  70.080  1.00  0.00    -0.144 C  
HETATM   32  H   UNL     1      -8.136   6.346  71.908  1.00  0.00     0.000 HD 
HETATM   33  O   UNL     1      -8.383   6.921  71.193  1.00  0.00    -0.118 OA 
BRANCH  31  34
HETATM   34  C   UNL     1     -10.046   5.316  70.539  1.00  0.00    -0.315 C  
BRANCH  34  35
HETATM   35  C   UNL     1     -10.662   5.855  71.830  1.00  0.00    -0.239 C  
HETATM   36  H1  UNL     1     -12.334   6.889  72.410  1.00  0.00     0.000 HD 
HETATM   37  H2  UNL     1     -12.571   5.928  71.041  1.00  0.00     0.000 HD 
HETATM   38  N   UNL     1     -11.923   6.530  71.549  1.00  0.00    -0.337 NA 
ENDBRANCH  34  35
ENDBRANCH  31  34
ENDBRANCH  29  31
ENDBRANCH  18  27
BRANCH  26  39
HETATM   39  O   UNL     1      -7.355  12.545  67.508  1.00  0.00    -0.127 OA 
BRANCH  39  40
HETATM   40  C   UNL     1      -7.820  13.866  67.800  1.00  0.00    -0.168 C  
HETATM   41  H1  UNL     1      -4.811  14.458  69.439  1.00  0.00     0.000 HD 
HETATM   42  O   UNL     1      -8.897  13.849  68.742  1.00  0.00    -0.117 OA 
HETATM   43  H2  UNL     1      -5.321  13.079  68.638  1.00  0.00     0.000 HD 
HETATM   44  N   UNL     1      -5.621  13.925  69.123  1.00  0.00    -0.077 NA 
HETATM   45  C   UNL     1      -6.576  14.683  68.285  1.00  0.00    -0.118 C  
HETATM   46  C   UNL     1      -9.284  15.108  69.171  1.00  0.00    -0.215 C  
HETATM   47  C   UNL     1      -6.977  16.025  68.914  1.00  0.00    -0.148 C  
HETATM   48  C   UNL     1      -8.425  16.136  69.251  1.00  0.00    -0.187 C  
BRANCH  46  49
HETATM   49  C   UNL     1     -10.732  15.234  69.588  1.00  0.00    -0.281 C  
BRANCH  49  50
HETATM   50  N   UNL     1     -11.118  14.287  70.638  1.00  0.00    -0.431 NA 
HETATM   51  H   UNL     1     -10.828  14.613  71.560  1.00  0.00     0.000 HD 
BRANCH  50  52
HETATM   52  C   UNL     1     -12.561  13.995  70.598  1.00  0.00    -0.344 C  
BRANCH  52  53
HETATM   53  C   UNL     1     -13.327  14.900  71.566  1.00  0.00    -0.395 C  
HETATM   54  O   UNL     1     -14.148  15.821  70.852  1.00  0.00    -0.707 OA 
HETATM   55  H   UNL     1     -14.623  16.383  71.453  1.00  0.00     0.000 HD 
ENDBRANCH  52  53
ENDBRANCH  50  52
ENDBRANCH  49  50
ENDBRANCH  46  49
ENDBRANCH  39  40
ENDBRANCH  26  39
ENDBRANCH  15  16
ENDBRANCH   6  15
ENDBRANCH   2   4
TORSDOF 13
ENDMDL
MODEL       74
REMARK 921   NORMALIZED FREE ENERGY PREDICTED BY IDOCK:   -3.92 KCAL/MOL
REMARK 922        TOTAL FREE ENERGY PREDICTED BY IDOCK:  -10.36 KCAL/MOL
REMARK 923 INTER-LIGAND FREE ENERGY PREDICTED BY IDOCK:   -9.15 KCAL/MOL
REMARK 924 INTRA-LIGAND FREE ENERGY PREDICTED BY IDOCK:   -1.21 KCAL/MOL
REMARK 927      BINDING AFFINITY PREDICTED BY RF-SCORE:    0.00 PKD
ROOT
HETATM    1  C   UNL     1     -12.328  15.554  64.414  1.00  0.00    -0.001 C  
HETATM    2  N   UNL     1     -12.615  14.374  65.225  1.00  0.00    -0.470 NA 
HETATM    3  H   UNL     1     -13.594  14.107  65.117  1.00  0.00     0.000 HD 
ENDROOT
BRANCH   2   4
HETATM    4  C   UNL     1     -11.734  13.193  64.980  1.00  0.00    -0.337 C  
HETATM    5  C   UNL     1     -10.229  13.538  65.117  1.00  0.00    -0.316 C  
HETATM    6  C   UNL     1      -9.389  12.244  65.024  1.00  0.00     0.278 C  
HETATM    7  O   UNL     1      -9.970  14.239  66.336  1.00  0.00    -0.272 OA 
HETATM    8  H   UNL     1      -9.047  14.450  66.420  1.00  0.00     0.000 HD 
HETATM    9  O   UNL     1     -11.804  13.185  62.515  1.00  0.00    -0.316 OA 
HETATM   10  O   UNL     1      -9.611  11.641  63.748  1.00  0.00    -0.244 OA 
HETATM   11  H   UNL     1     -11.952  12.680  61.724  1.00  0.00     0.000 HD 
HETATM   12  C   UNL     1     -10.968  11.194  63.587  1.00  0.00    -0.157 C  
HETATM   13  C   UNL     1     -13.396  11.784  63.620  1.00  0.00     0.321 C  
HETATM   14  C   UNL     1     -11.977  12.360  63.677  1.00  0.00    -0.539 C  
BRANCH   6  15
HETATM   15  O   UNL     1      -9.722  11.346  66.085  1.00  0.00    -0.205 OA 
BRANCH  15  16
HETATM   16  C   UNL     1      -9.831  11.926  67.396  1.00  0.00    -0.183 C  
HETATM   17  H1  UNL     1      -9.380   9.484  71.101  1.00  0.00     0.000 HD 
HETATM   18  C   UNL     1     -11.156  11.602  68.124  1.00  0.00    -0.242 C  
HETATM   19  C   UNL     1      -8.621  11.402  68.218  1.00  0.00    -0.156 C  
HETATM   20  H2  UNL     1     -11.057   9.609  70.982  1.00  0.00     0.000 HD 
HETATM   21  C   UNL     1     -10.082   9.497  69.150  1.00  0.00    -0.195 C  
HETATM   22  C   UNL     1     -11.263  10.084  68.353  1.00  0.00    -0.187 C  
HETATM   23  O   UNL     1      -8.499  12.148  69.449  1.00  0.00     0.017 OA 
HETATM   24  H   UNL     1      -7.759  11.827  69.951  1.00  0.00     0.000 HD 
HETATM   25  N   UNL     1     -10.161   9.873  70.574  1.00  0.00    -0.218 NA 
HETATM   26  C   UNL     1      -8.719   9.874  68.495  1.00  0.00    -0.121 C  
BRANCH  18  27
HETATM   27  N   UNL     1     -11.296  12.376  69.358  1.00  0.00    -0.401 N  
HETATM   28  H   UNL     1     -10.955  11.969  70.229  1.00  0.00     0.000 HD 
HETATM   29  C   UNL     1     -11.867  13.628  69.400  1.00  0.00    -0.339 C  
HETATM   30  O   UNL     1     -12.284  14.225  68.414  1.00  0.00    -0.299 OA 
BRANCH  29  31
HETATM   31  C   UNL     1     -11.915  14.251  70.805  1.00  0.00    -0.320 C  
HETATM   32  H   UNL     1     -10.817  15.486  71.884  1.00  0.00     0.000 HD 
HETATM   33  O   UNL     1     -10.786  15.101  71.016  1.00  0.00    -0.248 OA 
BRANCH  31  34
HETATM   34  C   UNL     1     -13.188  15.077  70.994  1.00  0.00    -0.483 C  
BRANCH  34  35
HETATM   35  C   UNL     1     -13.961  14.652  72.242  1.00  0.00    -0.489 C  
HETATM   36  H1  UNL     1     -13.968  13.098  73.580  1.00  0.00     0.000 HD 
HETATM   37  H2  UNL     1     -12.447  13.416  72.917  1.00  0.00     0.000 HD 
HETATM   38  N   UNL     1     -13.452  13.382  72.747  1.00  0.00    -0.591 NA 
ENDBRANCH  34  35
ENDBRANCH  31  34
ENDBRANCH  29  31
ENDBRANCH  18  27
BRANCH  26  39
HETATM   39  O   UNL     1      -8.630   9.058  67.329  1.00  0.00    -0.114 OA 
BRANCH  39  40
HETATM   40  C   UNL     1      -8.643   7.636  67.488  1.00  0.00    -0.119 C  
HETATM   41  H1  UNL     1      -5.290   7.603  66.565  1.00  0.00     0.000 HD 
HETATM   42  O   UNL     1      -9.436   7.000  66.481  1.00  0.00    -0.167 OA 
HETATM   43  H2  UNL     1      -6.323   8.909  66.733  1.00  0.00     0.000 HD 
HETATM   44  N   UNL     1      -6.265   7.905  66.561  1.00  0.00    -0.045 NA 
HETATM   45  C   UNL     1      -7.148   7.173  67.495  1.00  0.00    -0.088 C  
HETATM   46  C   UNL     1      -9.360   5.617  66.502  1.00  0.00    -0.150 C  
HETATM   47  C   UNL     1      -7.016   5.649  67.359  1.00  0.00    -0.065 C  
HETATM   48  C   UNL     1      -8.262   4.963  66.911  1.00  0.00    -0.107 C  
BRANCH  46  49
HETATM   49  C   UNL     1     -10.583   4.894  65.985  1.00  0.00    -0.261 C  
BRANCH  49  50
HETATM   50  N   UNL     1     -10.261   3.735  65.147  1.00  0.00    -0.410 NA 
HETATM   51  H   UNL     1     -10.601   2.868  65.563  1.00  0.00     0.000 HD 
BRANCH  50  52
HETATM   52  C   UNL     1     -10.764   3.907  63.773  1.00  0.00    -0.175 C  
BRANCH  52  53
HETATM   53  C   UNL     1     -10.681   2.593  62.993  1.00  0.00    -0.209 C  
HETATM   54  O   UNL     1     -11.762   1.732  63.342  1.00  0.00    -0.527 OA 
HETATM   55  H   UNL     1     -11.710   0.916  62.858  1.00  0.00     0.000 HD 
ENDBRANCH  52  53
ENDBRANCH  50  52
ENDBRANCH  49  50
ENDBRANCH  46  49
ENDBRANCH  39  40
ENDBRANCH  26  39
ENDBRANCH  15  16
ENDBRANCH   6  15
ENDBRANCH   2   4
TORSDOF 13
ENDMDL
MODEL       75
REMARK 921   NORMALIZED FREE ENERGY PREDICTED BY IDOCK:   -3.88 KCAL/MOL
REMARK 922        TOTAL FREE ENERGY PREDICTED BY IDOCK:  -10.29 KCAL/MOL
REMARK 923 INTER-LIGAND FREE ENERGY PREDICTED BY IDOCK:   -9.00 KCAL/MOL
REMARK 924 INTRA-LIGAND FREE ENERGY PREDICTED BY IDOCK:   -1.29 KCAL/MOL
REMARK 927      BINDING AFFINITY PREDICTED BY RF-SCORE:    0.00 PKD
ROOT
HETATM    1  C   UNL     1     -12.027  15.626  69.192  1.00  0.00    -0.310 C  
HETATM    2  N   UNL     1     -12.487  14.451  68.458  1.00  0.00    -0.545 NA 
HETATM    3  H   UNL     1     -13.377  14.652  68.001  1.00  0.00     0.000 HD 
ENDROOT
BRANCH   2   4
HETATM    4  C   UNL     1     -11.520  13.891  67.467  1.00  0.00    -0.340 C  
HETATM    5  C   UNL     1     -10.055  13.945  67.971  1.00  0.00    -0.244 C  
HETATM    6  C   UNL     1      -9.137  13.197  66.979  1.00  0.00    -0.231 C  
HETATM    7  O   UNL     1      -9.944  13.408  69.290  1.00  0.00    -0.381 OA 
HETATM    8  H   UNL     1      -9.046  13.441  69.599  1.00  0.00     0.000 HD 
HETATM    9  O   UNL     1     -11.377  15.831  65.952  1.00  0.00    -0.087 OA 
HETATM   10  O   UNL     1      -9.212  13.840  65.705  1.00  0.00     0.051 OA 
HETATM   11  H   UNL     1     -11.427  16.149  65.058  1.00  0.00     0.000 HD 
HETATM   12  C   UNL     1     -10.521  13.736  65.121  1.00  0.00    -0.384 C  
HETATM   13  C   UNL     1     -12.974  14.150  65.365  1.00  0.00    -0.300 C  
HETATM   14  C   UNL     1     -11.601  14.413  65.994  1.00  0.00    -0.363 C  
BRANCH   6  15
HETATM   15  O   UNL     1      -9.506  11.819  66.886  1.00  0.00    -0.185 OA 
BRANCH  15  16
HETATM   16  C   UNL     1      -9.763  11.146  68.130  1.00  0.00    -0.181 C  
HETATM   17  H1  UNL     1      -8.988   6.786  68.657  1.00  0.00     0.000 HD 
HETATM   18  C   UNL     1     -11.028  10.258  68.120  1.00  0.00    -0.274 C  
HETATM   19  C   UNL     1      -8.504  10.291  68.442  1.00  0.00    -0.124 C  
HETATM   20  H2  UNL     1     -10.655   6.803  68.402  1.00  0.00     0.000 HD 
HETATM   21  C   UNL     1      -9.617   8.251  67.332  1.00  0.00    -0.160 C  
HETATM   22  C   UNL     1     -10.859   9.129  67.088  1.00  0.00    -0.094 C  
HETATM   23  O   UNL     1      -8.563   9.804  69.801  1.00  0.00    -0.169 OA 
HETATM   24  H   UNL     1      -7.793   9.281  69.992  1.00  0.00     0.000 HD 
HETATM   25  N   UNL     1      -9.810   7.367  68.495  1.00  0.00    -0.155 NA 
HETATM   26  C   UNL     1      -8.327   9.120  67.434  1.00  0.00    -0.115 C  
BRANCH  18  27
HETATM   27  N   UNL     1     -11.349   9.762  69.459  1.00  0.00    -0.419 N  
HETATM   28  H   UNL     1     -11.117   8.795  69.688  1.00  0.00     0.000 HD 
HETATM   29  C   UNL     1     -11.949  10.537  70.425  1.00  0.00    -0.335 C  
HETATM   30  O   UNL     1     -12.245  11.717  70.270  1.00  0.00    -0.331 OA 
BRANCH  29  31
HETATM   31  C   UNL     1     -12.198   9.807  71.754  1.00  0.00    -0.367 C  
HETATM   32  H   UNL     1     -13.752   9.282  72.853  1.00  0.00     0.000 HD 
HETATM   33  O   UNL     1     -13.598   9.733  72.031  1.00  0.00    -0.399 OA 
BRANCH  31  34
HETATM   34  C   UNL     1     -11.634   8.387  71.714  1.00  0.00    -0.372 C  
BRANCH  34  35
HETATM   35  C   UNL     1     -10.495   8.199  72.717  1.00  0.00    -0.315 C  
HETATM   36  H1  UNL     1      -8.534   7.604  72.707  1.00  0.00     0.000 HD 
HETATM   37  H2  UNL     1      -9.025   8.345  71.271  1.00  0.00     0.000 HD 
HETATM   38  N   UNL     1      -9.293   7.730  72.039  1.00  0.00    -0.145 NA 
ENDBRANCH  34  35
ENDBRANCH  31  34
ENDBRANCH  29  31
ENDBRANCH  18  27
BRANCH  26  39
HETATM   39  O   UNL     1      -8.051   9.532  66.097  1.00  0.00    -0.109 OA 
BRANCH  39  40
HETATM   40  C   UNL     1      -7.561   8.559  65.170  1.00  0.00    -0.094 C  
HETATM   41  H1  UNL     1      -9.236  10.266  62.645  1.00  0.00     0.000 HD 
HETATM   42  O   UNL     1      -8.165   7.279  65.382  1.00  0.00    -0.131 OA 
HETATM   43  H2  UNL     1      -9.136  10.630  64.275  1.00  0.00     0.000 HD 
HETATM   44  N   UNL     1      -9.075   9.888  63.579  1.00  0.00    -0.252 NA 
HETATM   45  C   UNL     1      -7.808   9.139  63.737  1.00  0.00    -0.133 C  
HETATM   46  C   UNL     1      -7.837   6.340  64.417  1.00  0.00    -0.115 C  
HETATM   47  C   UNL     1      -7.608   8.081  62.643  1.00  0.00    -0.118 C  
HETATM   48  C   UNL     1      -7.564   6.679  63.148  1.00  0.00    -0.088 C  
BRANCH  46  49
HETATM   49  C   UNL     1      -7.854   4.901  64.881  1.00  0.00    -0.089 C  
BRANCH  49  50
HETATM   50  N   UNL     1      -7.122   4.687  66.132  1.00  0.00    -0.073 NA 
HETATM   51  H   UNL     1      -6.599   5.518  66.406  1.00  0.00     0.000 HD 
BRANCH  50  52
HETATM   52  C   UNL     1      -8.018   4.234  67.211  1.00  0.00    -0.096 C  
BRANCH  52  53
HETATM   53  C   UNL     1      -9.383   3.828  66.652  1.00  0.00    -0.190 C  
HETATM   54  O   UNL     1     -10.302   4.914  66.732  1.00  0.00    -0.237 OA 
HETATM   55  H   UNL     1     -11.150   4.662  66.385  1.00  0.00     0.000 HD 
ENDBRANCH  52  53
ENDBRANCH  50  52
ENDBRANCH  49  50
ENDBRANCH  46  49
ENDBRANCH  39  40
ENDBRANCH  26  39
ENDBRANCH  15  16
ENDBRANCH   6  15
ENDBRANCH   2   4
TORSDOF 13
ENDMDL
MODEL       76
REMARK 921   NORMALIZED FREE ENERGY PREDICTED BY IDOCK:   -3.88 KCAL/MOL
REMARK 922        TOTAL FREE ENERGY PREDICTED BY IDOCK:  -10.28 KCAL/MOL
REMARK 923 INTER-LIGAND FREE ENERGY PREDICTED BY IDOCK:   -8.29 KCAL/MOL
REMARK 924 INTRA-LIGAND FREE ENERGY PREDICTED BY IDOCK:   -1.99 KCAL/MOL
REMARK 927      BINDING AFFINITY PREDICTED BY RF-SCORE:    0.00 PKD
ROOT
HETATM    1  C   UNL     1     -10.174   4.023  62.500  1.00  0.00    -0.168 C  
HETATM    2  N   UNL     1      -8.833   4.280  63.017  1.00  0.00    -0.114 NA 
HETATM    3  H   UNL     1      -8.408   5.059  62.513  1.00  0.00     0.000 HD 
ENDROOT
BRANCH   2   4
HETATM    4  C   UNL     1      -8.744   4.516  64.489  1.00  0.00    -0.148 C  
HETATM    5  C   UNL     1      -7.934   5.790  64.838  1.00  0.00    -0.123 C  
HETATM    6  C   UNL     1      -8.028   6.067  66.355  1.00  0.00    -0.105 C  
HETATM    7  O   UNL     1      -8.384   6.912  64.075  1.00  0.00    -0.335 OA 
HETATM    8  H   UNL     1      -7.887   7.694  64.289  1.00  0.00     0.000 HD 
HETATM    9  O   UNL     1      -6.966   2.890  65.015  1.00  0.00    -0.047 OA 
HETATM   10  O   UNL     1      -7.471   4.957  67.062  1.00  0.00    -0.084 OA 
HETATM   11  H   UNL     1      -6.686   2.166  65.563  1.00  0.00     0.000 HD 
HETATM   12  C   UNL     1      -8.236   3.754  66.874  1.00  0.00    -0.096 C  
HETATM   13  C   UNL     1      -9.213   2.112  65.264  1.00  0.00    -0.073 C  
HETATM   14  C   UNL     1      -8.282   3.323  65.391  1.00  0.00    -0.094 C  
BRANCH   6  15
HETATM   15  O   UNL     1      -9.383   6.302  66.744  1.00  0.00    -0.134 OA 
BRANCH  15  16
HETATM   16  C   UNL     1      -9.588   6.734  68.100  1.00  0.00    -0.122 C  
HETATM   17  H1  UNL     1      -9.511  11.045  69.239  1.00  0.00     0.000 HD 
HETATM   18  C   UNL     1      -8.300   7.190  68.822  1.00  0.00    -0.126 C  
HETATM   19  C   UNL     1     -10.618   7.896  68.046  1.00  0.00    -0.132 C  
HETATM   20  H2  UNL     1      -7.969  10.546  69.705  1.00  0.00     0.000 HD 
HETATM   21  C   UNL     1      -8.688   9.601  68.000  1.00  0.00    -0.119 C  
HETATM   22  C   UNL     1      -7.710   8.415  68.102  1.00  0.00    -0.103 C  
HETATM   23  O   UNL     1     -11.089   8.201  69.377  1.00  0.00    -0.436 OA 
HETATM   24  H   UNL     1     -11.719   8.912  69.344  1.00  0.00     0.000 HD 
HETATM   25  N   UNL     1      -8.864  10.261  69.306  1.00  0.00    -0.175 NA 
HETATM   26  C   UNL     1     -10.037   9.162  67.353  1.00  0.00    -0.230 C  
BRANCH  18  27
HETATM   27  N   UNL     1      -8.535   7.425  70.247  1.00  0.00    -0.135 N  
HETATM   28  H   UNL     1      -9.437   7.806  70.535  1.00  0.00     0.000 HD 
HETATM   29  C   UNL     1      -7.597   7.158  71.218  1.00  0.00    -0.081 C  
HETATM   30  O   UNL     1      -6.493   6.675  70.991  1.00  0.00    -0.047 OA 
BRANCH  29  31
HETATM   31  C   UNL     1      -8.057   7.489  72.647  1.00  0.00    -0.111 C  
HETATM   32  H   UNL     1      -7.529   8.724  74.093  1.00  0.00     0.000 HD 
HETATM   33  O   UNL     1      -7.244   8.520  73.210  1.00  0.00    -0.276 OA 
BRANCH  31  34
HETATM   34  C   UNL     1      -9.513   7.955  72.660  1.00  0.00    -0.284 C  
BRANCH  34  35
HETATM   35  C   UNL     1     -10.472   6.816  73.005  1.00  0.00    -0.254 C  
HETATM   36  H1  UNL     1     -11.497   5.333  72.030  1.00  0.00     0.000 HD 
HETATM   37  H2  UNL     1     -10.046   5.761  71.279  1.00  0.00     0.000 HD 
HETATM   38  N   UNL     1     -10.858   6.093  71.799  1.00  0.00    -0.245 NA 
ENDBRANCH  34  35
ENDBRANCH  31  34
ENDBRANCH  29  31
ENDBRANCH  18  27
BRANCH  26  39
HETATM   39  O   UNL     1      -9.746   8.991  65.967  1.00  0.00    -0.265 OA 
BRANCH  39  40
HETATM   40  C   UNL     1     -10.284   9.935  65.036  1.00  0.00     0.114 C  
HETATM   41  H1  UNL     1      -7.044  10.531  63.921  1.00  0.00     0.000 HD 
HETATM   42  O   UNL     1     -10.797  11.095  65.699  1.00  0.00    -0.229 OA 
HETATM   43  H2  UNL     1      -7.573   9.468  65.100  1.00  0.00     0.000 HD 
HETATM   44  N   UNL     1      -7.786  10.326  64.590  1.00  0.00    -0.145 NA 
HETATM   45  C   UNL     1      -9.145  10.251  64.009  1.00  0.00    -0.251 C  
HETATM   46  C   UNL     1     -11.192  12.103  64.834  1.00  0.00    -0.323 C  
HETATM   47  C   UNL     1      -9.479  11.467  63.133  1.00  0.00    -0.361 C  
HETATM   48  C   UNL     1     -10.612  12.294  63.639  1.00  0.00    -0.501 C  
BRANCH  46  49
HETATM   49  C   UNL     1     -12.292  13.003  65.349  1.00  0.00    -0.486 C  
BRANCH  49  50
HETATM   50  N   UNL     1     -11.884  14.406  65.472  1.00  0.00    -0.357 NA 
HETATM   51  H   UNL     1     -12.669  15.038  65.318  1.00  0.00     0.000 HD 
BRANCH  50  52
HETATM   52  C   UNL     1     -11.229  14.665  66.767  1.00  0.00    -0.344 C  
BRANCH  52  53
HETATM   53  C   UNL     1     -10.005  15.567  66.588  1.00  0.00    -0.261 C  
HETATM   54  O   UNL     1      -8.914  14.830  66.043  1.00  0.00    -0.492 OA 
HETATM   55  H   UNL     1      -8.154  15.389  65.933  1.00  0.00     0.000 HD 
ENDBRANCH  52  53
ENDBRANCH  50  52
ENDBRANCH  49  50
ENDBRANCH  46  49
ENDBRANCH  39  40
ENDBRANCH  26  39
ENDBRANCH  15  16
ENDBRANCH   6  15
ENDBRANCH   2   4
TORSDOF 13
ENDMDL
MODEL       77
REMARK 921   NORMALIZED FREE ENERGY PREDICTED BY IDOCK:   -3.86 KCAL/MOL
REMARK 922        TOTAL FREE ENERGY PREDICTED BY IDOCK:  -10.26 KCAL/MOL
REMARK 923 INTER-LIGAND FREE ENERGY PREDICTED BY IDOCK:   -7.68 KCAL/MOL
REMARK 924 INTRA-LIGAND FREE ENERGY PREDICTED BY IDOCK:   -2.58 KCAL/MOL
REMARK 927      BINDING AFFINITY PREDICTED BY RF-SCORE:    0.00 PKD
ROOT
HETATM    1  C   UNL     1      -9.475   2.086  72.452  1.00  0.00    -0.085 C  
HETATM    2  N   UNL     1      -8.553   3.019  73.093  1.00  0.00    -0.079 NA 
HETATM    3  H   UNL     1      -7.613   2.621  73.114  1.00  0.00     0.000 HD 
ENDROOT
BRANCH   2   4
HETATM    4  C   UNL     1      -8.513   4.392  72.506  1.00  0.00    -0.109 C  
HETATM    5  C   UNL     1      -7.216   4.656  71.701  1.00  0.00    -0.067 C  
HETATM    6  C   UNL     1      -7.318   6.021  70.984  1.00  0.00    -0.080 C  
HETATM    7  O   UNL     1      -6.961   3.598  70.773  1.00  0.00    -0.032 OA 
HETATM    8  H   UNL     1      -6.165   3.760  70.280  1.00  0.00     0.000 HD 
HETATM    9  O   UNL     1      -7.855   5.638  74.530  1.00  0.00    -0.097 OA 
HETATM   10  O   UNL     1      -7.470   7.047  71.965  1.00  0.00    -0.088 OA 
HETATM   11  H   UNL     1      -8.035   6.371  75.108  1.00  0.00     0.000 HD 
HETATM   12  C   UNL     1      -8.710   6.933  72.684  1.00  0.00    -0.120 C  
HETATM   13  C   UNL     1     -10.202   5.505  74.091  1.00  0.00    -0.282 C  
HETATM   14  C   UNL     1      -8.809   5.600  73.457  1.00  0.00    -0.122 C  
BRANCH   6  15
HETATM   15  O   UNL     1      -8.406   6.026  70.056  1.00  0.00    -0.119 OA 
BRANCH  15  16
HETATM   16  C   UNL     1      -8.061   6.225  68.674  1.00  0.00    -0.109 C  
HETATM   17  H1  UNL     1     -10.092   9.295  66.156  1.00  0.00     0.000 HD 
HETATM   18  C   UNL     1      -9.097   5.661  67.675  1.00  0.00    -0.106 C  
HETATM   19  C   UNL     1      -7.895   7.756  68.474  1.00  0.00    -0.120 C  
HETATM   20  H2  UNL     1     -10.891   7.887  65.681  1.00  0.00     0.000 HD 
HETATM   21  C   UNL     1     -10.342   7.917  67.686  1.00  0.00    -0.241 C  
HETATM   22  C   UNL     1     -10.441   6.389  67.857  1.00  0.00    -0.276 C  
HETATM   23  O   UNL     1      -7.281   8.023  67.194  1.00  0.00    -0.083 OA 
HETATM   24  H   UNL     1      -7.179   8.960  67.071  1.00  0.00     0.000 HD 
HETATM   25  N   UNL     1     -10.158   8.284  66.269  1.00  0.00    -0.150 NA 
HETATM   26  C   UNL     1      -9.245   8.517  68.617  1.00  0.00    -0.142 C  
BRANCH  18  27
HETATM   27  N   UNL     1      -8.602   5.713  66.299  1.00  0.00    -0.123 N  
HETATM   28  H   UNL     1      -7.957   6.460  66.042  1.00  0.00     0.000 HD 
HETATM   29  C   UNL     1      -8.965   4.801  65.334  1.00  0.00    -0.149 C  
HETATM   30  O   UNL     1      -9.709   3.848  65.537  1.00  0.00    -0.175 OA 
BRANCH  29  31
HETATM   31  C   UNL     1      -8.329   5.053  63.958  1.00  0.00    -0.132 C  
HETATM   32  H   UNL     1      -8.909   5.069  62.071  1.00  0.00     0.000 HD 
HETATM   33  O   UNL     1      -9.303   4.914  62.922  1.00  0.00    -0.044 OA 
BRANCH  31  34
HETATM   34  C   UNL     1      -7.731   6.458  63.879  1.00  0.00    -0.104 C  
BRANCH  34  35
HETATM   35  C   UNL     1      -8.155   7.185  62.603  1.00  0.00    -0.076 C  
HETATM   36  H1  UNL     1      -8.665   9.085  62.024  1.00  0.00     0.000 HD 
HETATM   37  H2  UNL     1      -7.571   9.037  63.310  1.00  0.00     0.000 HD 
HETATM   38  N   UNL     1      -8.382   8.599  62.875  1.00  0.00    -0.184 NA 
ENDBRANCH  34  35
ENDBRANCH  31  34
ENDBRANCH  29  31
ENDBRANCH  18  27
BRANCH  26  39
HETATM   39  O   UNL     1      -9.807   8.473  69.927  1.00  0.00    -0.181 OA 
BRANCH  39  40
HETATM   40  C   UNL     1     -10.503   9.627  70.409  1.00  0.00    -0.293 C  
HETATM   41  H1  UNL     1     -12.923   7.498  71.715  1.00  0.00     0.000 HD 
HETATM   42  O   UNL     1     -11.054  10.397  69.336  1.00  0.00    -0.224 OA 
HETATM   43  H2  UNL     1     -11.519   7.115  70.889  1.00  0.00     0.000 HD 
HETATM   44  N   UNL     1     -12.224   7.834  71.052  1.00  0.00    -0.261 NA 
HETATM   45  C   UNL     1     -11.576   9.111  71.426  1.00  0.00    -0.341 C  
HETATM   46  C   UNL     1     -11.862  11.440  69.755  1.00  0.00    -0.364 C  
HETATM   47  C   UNL     1     -12.591  10.201  71.796  1.00  0.00    -0.500 C  
HETATM   48  C   UNL     1     -12.576  11.386  70.890  1.00  0.00    -0.453 C  
BRANCH  46  49
HETATM   49  C   UNL     1     -11.923  12.628  68.821  1.00  0.00    -0.237 C  
BRANCH  49  50
HETATM   50  N   UNL     1     -11.843  12.257  67.405  1.00  0.00    -0.536 NA 
HETATM   51  H   UNL     1     -12.766  12.064  67.017  1.00  0.00     0.000 HD 
BRANCH  50  52
HETATM   52  C   UNL     1     -11.131  13.280  66.619  1.00  0.00    -0.291 C  
BRANCH  52  53
HETATM   53  C   UNL     1     -10.318  12.636  65.494  1.00  0.00    -0.286 C  
HETATM   54  O   UNL     1      -9.940  11.307  65.845  1.00  0.00    -0.216 OA 
HETATM   55  H   UNL     1      -9.435  10.907  65.146  1.00  0.00     0.000 HD 
ENDBRANCH  52  53
ENDBRANCH  50  52
ENDBRANCH  49  50
ENDBRANCH  46  49
ENDBRANCH  39  40
ENDBRANCH  26  39
ENDBRANCH  15  16
ENDBRANCH   6  15
ENDBRANCH   2   4
TORSDOF 13
ENDMDL
MODEL       78
REMARK 921   NORMALIZED FREE ENERGY PREDICTED BY IDOCK:   -3.86 KCAL/MOL
REMARK 922        TOTAL FREE ENERGY PREDICTED BY IDOCK:  -10.26 KCAL/MOL
REMARK 923 INTER-LIGAND FREE ENERGY PREDICTED BY IDOCK:   -7.68 KCAL/MOL
REMARK 924 INTRA-LIGAND FREE ENERGY PREDICTED BY IDOCK:   -2.58 KCAL/MOL
REMARK 927      BINDING AFFINITY PREDICTED BY RF-SCORE:    0.00 PKD
ROOT
HETATM    1  C   UNL     1     -10.322  10.921  63.552  1.00  0.00    -0.277 C  
HETATM    2  N   UNL     1      -8.962  11.331  63.886  1.00  0.00    -0.409 NA 
HETATM    3  H   UNL     1      -8.969  12.265  64.295  1.00  0.00     0.000 HD 
ENDROOT
BRANCH   2   4
HETATM    4  C   UNL     1      -8.204  10.393  64.769  1.00  0.00    -0.141 C  
HETATM    5  C   UNL     1      -7.822  11.035  66.126  1.00  0.00    -0.117 C  
HETATM    6  C   UNL     1      -7.198   9.965  67.050  1.00  0.00    -0.090 C  
HETATM    7  O   UNL     1      -8.954  11.657  66.740  1.00  0.00    -0.176 OA 
HETATM    8  H   UNL     1      -8.719  12.050  67.572  1.00  0.00     0.000 HD 
HETATM    9  O   UNL     1      -5.985  10.605  63.713  1.00  0.00    -0.332 OA 
HETATM   10  O   UNL     1      -6.017   9.453  66.431  1.00  0.00    -0.057 OA 
HETATM   11  H   UNL     1      -5.235  10.157  63.342  1.00  0.00     0.000 HD 
HETATM   12  C   UNL     1      -6.305   8.745  65.214  1.00  0.00    -0.060 C  
HETATM   13  C   UNL     1      -7.350   8.798  62.945  1.00  0.00    -0.095 C  
HETATM   14  C   UNL     1      -6.967   9.655  64.157  1.00  0.00    -0.116 C  
BRANCH   6  15
HETATM   15  O   UNL     1      -8.136   8.920  67.320  1.00  0.00    -0.103 OA 
BRANCH  15  16
HETATM   16  C   UNL     1      -8.997   9.117  68.454  1.00  0.00    -0.133 C  
HETATM   17  H1  UNL     1     -11.260   5.752  70.310  1.00  0.00     0.000 HD 
HETATM   18  C   UNL     1     -10.505   9.088  68.118  1.00  0.00    -0.207 C  
HETATM   19  C   UNL     1      -8.649   8.000  69.477  1.00  0.00    -0.136 C  
HETATM   20  H2  UNL     1     -12.453   6.481  69.367  1.00  0.00     0.000 HD 
HETATM   21  C   UNL     1     -10.552   6.545  68.530  1.00  0.00    -0.244 C  
HETATM   22  C   UNL     1     -10.886   7.702  67.569  1.00  0.00    -0.205 C  
HETATM   23  O   UNL     1      -9.266   8.288  70.751  1.00  0.00    -0.146 OA 
HETATM   24  H   UNL     1      -9.053   7.604  71.376  1.00  0.00     0.000 HD 
HETATM   25  N   UNL     1     -11.482   6.518  69.674  1.00  0.00    -0.380 NA 
HETATM   26  C   UNL     1      -9.055   6.588  68.963  1.00  0.00    -0.132 C  
BRANCH  18  27
HETATM   27  N   UNL     1     -11.321   9.491  69.264  1.00  0.00    -0.446 N  
HETATM   28  H   UNL     1     -11.636   8.770  69.914  1.00  0.00     0.000 HD 
HETATM   29  C   UNL     1     -11.685  10.796  69.508  1.00  0.00    -0.312 C  
HETATM   30  O   UNL     1     -11.341  11.744  68.811  1.00  0.00    -0.219 OA 
BRANCH  29  31
HETATM   31  C   UNL     1     -12.549  10.985  70.765  1.00  0.00    -0.369 C  
HETATM   32  H   UNL     1     -12.621  10.261  72.599  1.00  0.00     0.000 HD 
HETATM   33  O   UNL     1     -12.087  10.143  71.822  1.00  0.00    -0.349 OA 
BRANCH  31  34
HETATM   34  C   UNL     1     -12.507  12.436  71.244  1.00  0.00    -0.274 C  
BRANCH  34  35
HETATM   35  C   UNL     1     -13.533  12.700  72.346  1.00  0.00    -0.345 C  
HETATM   36  H1  UNL     1     -14.002  14.193  73.671  1.00  0.00     0.000 HD 
HETATM   37  H2  UNL     1     -13.320  14.754  72.231  1.00  0.00     0.000 HD 
HETATM   38  N   UNL     1     -13.318  14.016  72.936  1.00  0.00    -0.648 NA 
ENDBRANCH  34  35
ENDBRANCH  31  34
ENDBRANCH  29  31
ENDBRANCH  18  27
BRANCH  26  39
HETATM   39  O   UNL     1      -8.326   6.148  67.819  1.00  0.00    -0.116 OA 
BRANCH  39  40
HETATM   40  C   UNL     1      -7.661   4.883  67.880  1.00  0.00    -0.083 C  
HETATM   41  H1  UNL     1      -9.454   3.915  65.062  1.00  0.00     0.000 HD 
HETATM   42  O   UNL     1      -8.082   4.121  69.016  1.00  0.00    -0.070 OA 
HETATM   43  H2  UNL     1      -9.479   5.377  65.875  1.00  0.00     0.000 HD 
HETATM   44  N   UNL     1      -9.280   4.380  65.954  1.00  0.00    -0.131 NA 
HETATM   45  C   UNL     1      -7.927   4.169  66.513  1.00  0.00    -0.098 C  
HETATM   46  C   UNL     1      -7.579   2.830  69.039  1.00  0.00    -0.047 C  
HETATM   47  C   UNL     1      -7.528   2.687  66.548  1.00  0.00    -0.071 C  
HETATM   48  C   UNL     1      -7.303   2.145  67.919  1.00  0.00    -0.054 C  
BRANCH  46  49
HETATM   49  C   UNL     1      -7.408   2.226  70.415  1.00  0.00    -0.033 C  
BRANCH  49  50
HETATM   50  N   UNL     1      -8.646   2.211  71.200  1.00  0.00    -0.057 NA 
HETATM   51  H   UNL     1      -8.827   1.288  71.593  1.00  0.00     0.000 HD 
BRANCH  50  52
HETATM   52  C   UNL     1      -8.633   3.249  72.246  1.00  0.00    -0.083 C  
BRANCH  52  53
HETATM   53  C   UNL     1      -9.836   4.184  72.101  1.00  0.00    -0.169 C  
HETATM   54  O   UNL     1      -9.421   5.547  72.142  1.00  0.00    -0.149 OA 
HETATM   55  H   UNL     1     -10.168   6.128  72.053  1.00  0.00     0.000 HD 
ENDBRANCH  52  53
ENDBRANCH  50  52
ENDBRANCH  49  50
ENDBRANCH  46  49
ENDBRANCH  39  40
ENDBRANCH  26  39
ENDBRANCH  15  16
ENDBRANCH   6  15
ENDBRANCH   2   4
TORSDOF 13
ENDMDL
MODEL       79
REMARK 921   NORMALIZED FREE ENERGY PREDICTED BY IDOCK:   -3.85 KCAL/MOL
REMARK 922        TOTAL FREE ENERGY PREDICTED BY IDOCK:  -10.24 KCAL/MOL
REMARK 923 INTER-LIGAND FREE ENERGY PREDICTED BY IDOCK:   -8.51 KCAL/MOL
REMARK 924 INTRA-LIGAND FREE ENERGY PREDICTED BY IDOCK:   -1.73 KCAL/MOL
REMARK 927      BINDING AFFINITY PREDICTED BY RF-SCORE:    0.00 PKD
ROOT
HETATM    1  C   UNL     1     -10.108  12.006  65.237  1.00  0.00    -0.260 C  
HETATM    2  N   UNL     1      -8.791  12.170  65.843  1.00  0.00    -0.410 NA 
HETATM    3  H   UNL     1      -8.821  12.903  66.551  1.00  0.00     0.000 HD 
ENDROOT
BRANCH   2   4
HETATM    4  C   UNL     1      -8.187  10.930  66.417  1.00  0.00    -0.163 C  
HETATM    5  C   UNL     1      -7.564  11.166  67.816  1.00  0.00    -0.100 C  
HETATM    6  C   UNL     1      -7.116   9.817  68.421  1.00  0.00    -0.073 C  
HETATM    7  O   UNL     1      -8.479  11.845  68.680  1.00  0.00    -0.269 OA 
HETATM    8  H   UNL     1      -8.097  11.990  69.537  1.00  0.00     0.000 HD 
HETATM    9  O   UNL     1      -6.069  10.933  65.154  1.00  0.00    -0.360 OA 
HETATM   10  O   UNL     1      -6.129   9.234  67.568  1.00  0.00    -0.052 OA 
HETATM   11  H   UNL     1      -5.467  10.441  64.608  1.00  0.00     0.000 HD 
HETATM   12  C   UNL     1      -6.663   8.885  66.279  1.00  0.00    -0.074 C  
HETATM   13  C   UNL     1      -7.853   9.645  64.218  1.00  0.00    -0.130 C  
HETATM   14  C   UNL     1      -7.194  10.119  65.518  1.00  0.00    -0.142 C  
BRANCH   6  15
HETATM   15  O   UNL     1      -8.234   8.942  68.592  1.00  0.00    -0.113 OA 
BRANCH  15  16
HETATM   16  C   UNL     1      -9.252   9.384  69.506  1.00  0.00    -0.176 C  
HETATM   17  H1  UNL     1     -11.992   6.520  71.551  1.00  0.00     0.000 HD 
HETATM   18  C   UNL     1     -10.685   9.336  68.931  1.00  0.00    -0.156 C  
HETATM   19  C   UNL     1      -9.144   8.479  70.764  1.00  0.00    -0.165 C  
HETATM   20  H2  UNL     1     -12.970   7.087  70.298  1.00  0.00     0.000 HD 
HETATM   21  C   UNL     1     -10.958   6.927  69.800  1.00  0.00    -0.270 C  
HETATM   22  C   UNL     1     -11.060   7.882  68.595  1.00  0.00     0.278 C  
HETATM   23  O   UNL     1      -9.938   9.030  71.838  1.00  0.00    -0.332 OA 
HETATM   24  H   UNL     1      -9.872   8.476  72.608  1.00  0.00     0.000 HD 
HETATM   25  N   UNL     1     -12.059   7.153  70.754  1.00  0.00    -0.317 NA 
HETATM   26  C   UNL     1      -9.550   7.007  70.464  1.00  0.00    -0.169 C  
BRANCH  18  27
HETATM   27  N   UNL     1     -11.648   9.981  69.825  1.00  0.00    -0.411 N  
HETATM   28  H   UNL     1     -12.146   9.402  70.501  1.00  0.00     0.000 HD 
HETATM   29  C   UNL     1     -11.913  11.331  69.797  1.00  0.00    -0.360 C  
HETATM   30  O   UNL     1     -11.355  12.124  69.047  1.00  0.00    -0.239 OA 
BRANCH  29  31
HETATM   31  C   UNL     1     -12.964  11.788  70.821  1.00  0.00     0.048 C  
HETATM   32  H   UNL     1     -13.638  11.188  72.577  1.00  0.00     0.000 HD 
HETATM   33  O   UNL     1     -12.988  10.905  71.944  1.00  0.00    -0.458 OA 
BRANCH  31  34
HETATM   34  C   UNL     1     -12.664  13.202  71.320  1.00  0.00    -0.396 C  
BRANCH  34  35
HETATM   35  C   UNL     1     -13.758  13.719  72.255  1.00  0.00    -0.575 C  
HETATM   36  H1  UNL     1     -13.916  14.936  73.897  1.00  0.00     0.000 HD 
HETATM   37  H2  UNL     1     -12.647  15.352  72.863  1.00  0.00     0.000 HD 
HETATM   38  N   UNL     1     -13.186  14.591  73.274  1.00  0.00    -0.596 NA 
ENDBRANCH  34  35
ENDBRANCH  31  34
ENDBRANCH  29  31
ENDBRANCH  18  27
BRANCH  26  39
HETATM   39  O   UNL     1      -8.677   6.329  69.564  1.00  0.00    -0.130 OA 
BRANCH  39  40
HETATM   40  C   UNL     1      -8.494   4.919  69.724  1.00  0.00    -0.083 C  
HETATM   41  H1  UNL     1      -9.563   4.510  66.440  1.00  0.00     0.000 HD 
HETATM   42  O   UNL     1      -9.456   4.362  70.626  1.00  0.00    -0.141 OA 
HETATM   43  H2  UNL     1      -9.370   5.922  67.316  1.00  0.00     0.000 HD 
HETATM   44  N   UNL     1      -9.529   4.916  67.375  1.00  0.00    -0.132 NA 
HETATM   45  C   UNL     1      -8.546   4.295  68.289  1.00  0.00    -0.095 C  
HETATM   46  C   UNL     1      -9.417   2.979  70.699  1.00  0.00    -0.153 C  
HETATM   47  C   UNL     1      -8.664   2.764  68.330  1.00  0.00    -0.136 C  
HETATM   48  C   UNL     1      -9.047   2.214  69.662  1.00  0.00    -0.171 C  
BRANCH  46  49
HETATM   49  C   UNL     1      -9.868   2.388  72.016  1.00  0.00    -0.153 C  
BRANCH  49  50
HETATM   50  N   UNL     1      -9.065   2.834  73.158  1.00  0.00    -0.088 NA 
HETATM   51  H   UNL     1      -8.179   3.238  72.856  1.00  0.00     0.000 HD 
BRANCH  50  52
HETATM   52  C   UNL     1      -9.818   3.767  74.015  1.00  0.00    -0.115 C  
BRANCH  52  53
HETATM   53  C   UNL     1     -11.251   3.940  73.506  1.00  0.00    -0.218 C  
HETATM   54  O   UNL     1     -11.529   5.313  73.244  1.00  0.00    -0.460 OA 
HETATM   55  H   UNL     1     -12.419   5.420  72.929  1.00  0.00     0.000 HD 
ENDBRANCH  52  53
ENDBRANCH  50  52
ENDBRANCH  49  50
ENDBRANCH  46  49
ENDBRANCH  39  40
ENDBRANCH  26  39
ENDBRANCH  15  16
ENDBRANCH   6  15
ENDBRANCH   2   4
TORSDOF 13
ENDMDL
MODEL       80
REMARK 921   NORMALIZED FREE ENERGY PREDICTED BY IDOCK:   -3.85 KCAL/MOL
REMARK 922        TOTAL FREE ENERGY PREDICTED BY IDOCK:  -10.24 KCAL/MOL
REMARK 923 INTER-LIGAND FREE ENERGY PREDICTED BY IDOCK:   -8.46 KCAL/MOL
REMARK 924 INTRA-LIGAND FREE ENERGY PREDICTED BY IDOCK:   -1.77 KCAL/MOL
REMARK 927      BINDING AFFINITY PREDICTED BY RF-SCORE:    0.00 PKD
ROOT
HETATM    1  C   UNL     1      -9.834   4.094  72.102  1.00  0.00    -0.169 C  
HETATM    2  N   UNL     1      -9.143   5.219  72.725  1.00  0.00    -0.133 NA 
HETATM    3  H   UNL     1      -8.163   4.983  72.882  1.00  0.00     0.000 HD 
ENDROOT
BRANCH   2   4
HETATM    4  C   UNL     1      -9.244   6.520  71.998  1.00  0.00    -0.147 C  
HETATM    5  C   UNL     1      -7.913   6.923  71.313  1.00  0.00    -0.108 C  
HETATM    6  C   UNL     1      -8.136   8.180  70.443  1.00  0.00    -0.108 C  
HETATM    7  O   UNL     1      -7.384   5.842  70.541  1.00  0.00    -0.079 OA 
HETATM    8  H   UNL     1      -6.567   6.089  70.122  1.00  0.00     0.000 HD 
HETATM    9  O   UNL     1      -9.045   8.039  73.931  1.00  0.00    -0.316 OA 
HETATM   10  O   UNL     1      -8.566   9.252  71.282  1.00  0.00    -0.310 OA 
HETATM   11  H   UNL     1      -9.406   8.781  74.401  1.00  0.00     0.000 HD 
HETATM   12  C   UNL     1      -9.853   8.998  71.871  1.00  0.00    -0.213 C  
HETATM   13  C   UNL     1     -11.269   7.475  73.257  1.00  0.00    -0.201 C  
HETATM   14  C   UNL     1      -9.840   7.743  72.772  1.00  0.00    -0.246 C  
BRANCH   6  15
HETATM   15  O   UNL     1      -9.087   7.918  69.408  1.00  0.00    -0.145 OA 
BRANCH  15  16
HETATM   16  C   UNL     1      -8.547   7.587  68.117  1.00  0.00    -0.123 C  
HETATM   17  H1  UNL     1      -9.102  10.242  64.577  1.00  0.00     0.000 HD 
HETATM   18  C   UNL     1      -9.598   7.095  67.097  1.00  0.00    -0.151 C  
HETATM   19  C   UNL     1      -7.840   8.866  67.590  1.00  0.00    -0.101 C  
HETATM   20  H2  UNL     1     -10.282   9.068  64.306  1.00  0.00     0.000 HD 
HETATM   21  C   UNL     1      -9.978   9.519  66.312  1.00  0.00    -0.274 C  
HETATM   22  C   UNL     1     -10.618   8.214  66.824  1.00  0.00    -0.223 C  
HETATM   23  O   UNL     1      -7.036   8.545  66.434  1.00  0.00    -0.075 OA 
HETATM   24  H   UNL     1      -6.603   9.327  66.111  1.00  0.00     0.000 HD 
HETATM   25  N   UNL     1      -9.526   9.379  64.916  1.00  0.00    -0.172 NA 
HETATM   26  C   UNL     1      -8.850  10.006  67.272  1.00  0.00    -0.135 C  
BRANCH  18  27
HETATM   27  N   UNL     1      -8.969   6.586  65.877  1.00  0.00    -0.285 N  
HETATM   28  H   UNL     1      -8.875   7.216  65.080  1.00  0.00     0.000 HD 
HETATM   29  C   UNL     1      -8.498   5.299  65.754  1.00  0.00    -0.128 C  
HETATM   30  O   UNL     1      -8.532   4.467  66.654  1.00  0.00    -0.106 OA 
BRANCH  29  31
HETATM   31  C   UNL     1      -7.882   4.982  64.382  1.00  0.00    -0.090 C  
HETATM   32  H   UNL     1      -6.759   3.567  63.586  1.00  0.00     0.000 HD 
HETATM   33  O   UNL     1      -7.139   3.763  64.435  1.00  0.00    -0.052 OA 
BRANCH  31  34
HETATM   34  C   UNL     1      -8.966   4.846  63.313  1.00  0.00    -0.032 C  
BRANCH  34  35
HETATM   35  C   UNL     1      -9.411   3.394  63.136  1.00  0.00    -0.098 C  
HETATM   36  H1  UNL     1     -11.078   2.253  63.486  1.00  0.00     0.000 HD 
HETATM   37  H2  UNL     1     -11.422   3.872  63.151  1.00  0.00     0.000 HD 
HETATM   38  N   UNL     1     -10.781   3.221  63.604  1.00  0.00    -0.260 NA 
ENDBRANCH  34  35
ENDBRANCH  31  34
ENDBRANCH  29  31
ENDBRANCH  18  27
BRANCH  26  39
HETATM   39  O   UNL     1      -9.532  10.522  68.413  1.00  0.00    -0.147 OA 
BRANCH  39  40
HETATM   40  C   UNL     1     -10.070  11.846  68.344  1.00  0.00    -0.206 C  
HETATM   41  H1  UNL     1     -12.804  10.722  70.175  1.00  0.00     0.000 HD 
HETATM   42  O   UNL     1     -10.475  12.182  67.013  1.00  0.00    -0.217 OA 
HETATM   43  H2  UNL     1     -11.446   9.876  69.685  1.00  0.00     0.000 HD 
HETATM   44  N   UNL     1     -12.046  10.679  69.495  1.00  0.00    -0.257 NA 
HETATM   45  C   UNL     1     -11.234  11.912  69.389  1.00  0.00    -0.211 C  
HETATM   46  C   UNL     1     -11.139  13.395  66.921  1.00  0.00    -0.292 C  
HETATM   47  C   UNL     1     -12.094  13.171  69.216  1.00  0.00    -0.270 C  
HETATM   48  C   UNL     1     -11.885  13.884  67.923  1.00  0.00    -0.413 C  
BRANCH  46  49
HETATM   49  C   UNL     1     -11.003  14.107  65.595  1.00  0.00    -0.308 C  
BRANCH  49  50
HETATM   50  N   UNL     1     -12.287  14.336  64.926  1.00  0.00    -0.492 NA 
HETATM   51  H   UNL     1     -12.517  15.329  64.889  1.00  0.00     0.000 HD 
BRANCH  50  52
HETATM   52  C   UNL     1     -12.312  13.728  63.584  1.00  0.00    -0.198 C  
BRANCH  52  53
HETATM   53  C   UNL     1     -11.813  12.281  63.632  1.00  0.00    -0.522 C  
HETATM   54  O   UNL     1     -10.697  12.106  62.763  1.00  0.00    -0.451 OA 
HETATM   55  H   UNL     1     -10.388  11.208  62.792  1.00  0.00     0.000 HD 
ENDBRANCH  52  53
ENDBRANCH  50  52
ENDBRANCH  49  50
ENDBRANCH  46  49
ENDBRANCH  39  40
ENDBRANCH  26  39
ENDBRANCH  15  16
ENDBRANCH   6  15
ENDBRANCH   2   4
TORSDOF 13
ENDMDL
MODEL       81
REMARK 921   NORMALIZED FREE ENERGY PREDICTED BY IDOCK:   -3.84 KCAL/MOL
REMARK 922        TOTAL FREE ENERGY PREDICTED BY IDOCK:  -10.21 KCAL/MOL
REMARK 923 INTER-LIGAND FREE ENERGY PREDICTED BY IDOCK:   -8.71 KCAL/MOL
REMARK 924 INTRA-LIGAND FREE ENERGY PREDICTED BY IDOCK:   -1.50 KCAL/MOL
REMARK 927      BINDING AFFINITY PREDICTED BY RF-SCORE:    0.00 PKD
ROOT
HETATM    1  C   UNL     1     -11.363  15.326  67.076  1.00  0.00    -0.230 C  
HETATM    2  N   UNL     1     -12.061  14.051  67.207  1.00  0.00    -0.488 NA 
HETATM    3  H   UNL     1     -12.963  14.096  66.734  1.00  0.00     0.000 HD 
ENDROOT
BRANCH   2   4
HETATM    4  C   UNL     1     -11.301  12.850  66.744  1.00  0.00    -0.322 C  
HETATM    5  C   UNL     1      -9.913  12.729  67.421  1.00  0.00    -0.212 C  
HETATM    6  C   UNL     1      -9.260  11.385  67.030  1.00  0.00    -0.169 C  
HETATM    7  O   UNL     1     -10.017  12.864  68.840  1.00  0.00    -0.420 OA 
HETATM    8  H   UNL     1      -9.165  12.791  69.254  1.00  0.00     0.000 HD 
HETATM    9  O   UNL     1     -10.497  13.733  64.587  1.00  0.00    -0.416 OA 
HETATM   10  O   UNL     1      -9.088  11.350  65.612  1.00  0.00    -0.209 OA 
HETATM   11  H   UNL     1     -10.416  13.595  63.650  1.00  0.00     0.000 HD 
HETATM   12  C   UNL     1     -10.344  11.349  64.913  1.00  0.00    -0.292 C  
HETATM   13  C   UNL     1     -12.535  12.485  64.521  1.00  0.00    -0.539 C  
HETATM   14  C   UNL     1     -11.169  12.622  65.201  1.00  0.00    -0.301 C  
BRANCH   6  15
HETATM   15  O   UNL     1     -10.053  10.285  67.483  1.00  0.00    -0.181 OA 
BRANCH  15  16
HETATM   16  C   UNL     1      -9.810   9.839  68.828  1.00  0.00    -0.169 C  
HETATM   17  H1  UNL     1      -7.668   6.025  69.697  1.00  0.00     0.000 HD 
HETATM   18  C   UNL     1     -10.719   8.675  69.284  1.00  0.00    -0.136 C  
HETATM   19  C   UNL     1      -8.317   9.416  68.894  1.00  0.00    -0.120 C  
HETATM   20  H2  UNL     1      -9.277   5.564  69.910  1.00  0.00     0.000 HD 
HETATM   21  C   UNL     1      -8.989   6.977  68.413  1.00  0.00    -0.122 C  
HETATM   22  C   UNL     1     -10.458   7.440  68.404  1.00  0.00    -0.220 C  
HETATM   23  O   UNL     1      -7.920   9.220  70.269  1.00  0.00    -0.109 OA 
HETATM   24  H   UNL     1      -7.006   8.961  70.310  1.00  0.00     0.000 HD 
HETATM   25  N   UNL     1      -8.641   6.331  69.692  1.00  0.00    -0.131 NA 
HETATM   26  C   UNL     1      -8.029   8.147  68.041  1.00  0.00    -0.127 C  
BRANCH  18  27
HETATM   27  N   UNL     1     -10.568   8.399  70.713  1.00  0.00    -0.203 N  
HETATM   28  H   UNL     1      -9.765   8.797  71.202  1.00  0.00     0.000 HD 
HETATM   29  C   UNL     1     -11.455   7.630  71.429  1.00  0.00    -0.264 C  
HETATM   30  O   UNL     1     -12.467   7.127  70.952  1.00  0.00    -0.337 OA 
BRANCH  29  31
HETATM   31  C   UNL     1     -11.094   7.468  72.915  1.00  0.00    -0.375 C  
HETATM   32  H   UNL     1     -10.902   5.991  74.210  1.00  0.00     0.000 HD 
HETATM   33  O   UNL     1     -11.125   6.091  73.291  1.00  0.00    -0.244 OA 
BRANCH  31  34
HETATM   34  C   UNL     1      -9.698   8.020  73.202  1.00  0.00    -0.341 C  
BRANCH  34  35
HETATM   35  C   UNL     1      -8.919   7.125  74.166  1.00  0.00    -0.219 C  
HETATM   36  H1  UNL     1      -7.048   7.038  74.997  1.00  0.00     0.000 HD 
HETATM   37  H2  UNL     1      -7.567   8.609  74.657  1.00  0.00     0.000 HD 
HETATM   38  N   UNL     1      -7.567   7.635  74.355  1.00  0.00    -0.140 NA 
ENDBRANCH  34  35
ENDBRANCH  31  34
ENDBRANCH  29  31
ENDBRANCH  18  27
BRANCH  26  39
HETATM   39  O   UNL     1      -8.197   8.333  66.637  1.00  0.00    -0.103 OA 
BRANCH  39  40
HETATM   40  C   UNL     1      -7.544   7.425  65.746  1.00  0.00    -0.090 C  
HETATM   41  H1  UNL     1      -5.466  10.037  64.768  1.00  0.00     0.000 HD 
HETATM   42  O   UNL     1      -8.397   7.044  64.662  1.00  0.00    -0.068 OA 
HETATM   43  H2  UNL     1      -6.696  10.038  65.903  1.00  0.00     0.000 HD 
HETATM   44  N   UNL     1      -6.329   9.582  65.067  1.00  0.00    -0.079 NA 
HETATM   45  C   UNL     1      -6.220   8.122  65.286  1.00  0.00    -0.045 C  
HETATM   46  C   UNL     1      -7.763   6.285  63.692  1.00  0.00    -0.109 C  
HETATM   47  C   UNL     1      -5.566   7.396  64.102  1.00  0.00    -0.033 C  
HETATM   48  C   UNL     1      -6.456   6.416  63.417  1.00  0.00    -0.033 C  
BRANCH  46  49
HETATM   49  C   UNL     1      -8.655   5.331  62.930  1.00  0.00    -0.075 C  
BRANCH  49  50
HETATM   50  N   UNL     1      -8.116   3.970  62.851  1.00  0.00    -0.075 NA 
HETATM   51  H   UNL     1      -7.188   3.912  63.269  1.00  0.00     0.000 HD 
BRANCH  50  52
HETATM   52  C   UNL     1      -9.039   2.989  63.449  1.00  0.00    -0.095 C  
BRANCH  52  53
HETATM   53  C   UNL     1     -10.439   3.587  63.614  1.00  0.00    -0.258 C  
HETATM   54  O   UNL     1     -11.411   2.556  63.766  1.00  0.00    -0.612 OA 
HETATM   55  H   UNL     1     -12.280   2.927  63.868  1.00  0.00     0.000 HD 
ENDBRANCH  52  53
ENDBRANCH  50  52
ENDBRANCH  49  50
ENDBRANCH  46  49
ENDBRANCH  39  40
ENDBRANCH  26  39
ENDBRANCH  15  16
ENDBRANCH   6  15
ENDBRANCH   2   4
TORSDOF 13
ENDMDL
MODEL       82
REMARK 921   NORMALIZED FREE ENERGY PREDICTED BY IDOCK:   -3.82 KCAL/MOL
REMARK 922        TOTAL FREE ENERGY PREDICTED BY IDOCK:  -10.18 KCAL/MOL
REMARK 923 INTER-LIGAND FREE ENERGY PREDICTED BY IDOCK:   -6.72 KCAL/MOL
REMARK 924 INTRA-LIGAND FREE ENERGY PREDICTED BY IDOCK:   -3.46 KCAL/MOL
REMARK 927      BINDING AFFINITY PREDICTED BY RF-SCORE:    0.00 PKD
ROOT
HETATM    1  C   UNL     1      -6.906   3.081  69.064  1.00  0.00    -0.041 C  
HETATM    2  N   UNL     1      -7.929   3.082  68.023  1.00  0.00    -0.066 NA 
HETATM    3  H   UNL     1      -8.852   2.963  68.442  1.00  0.00     0.000 HD 
ENDROOT
BRANCH   2   4
HETATM    4  C   UNL     1      -7.928   4.271  67.119  1.00  0.00    -0.097 C  
HETATM    5  C   UNL     1      -9.271   5.042  67.151  1.00  0.00    -0.120 C  
HETATM    6  C   UNL     1      -9.141   6.347  66.333  1.00  0.00    -0.154 C  
HETATM    7  O   UNL     1      -9.681   5.309  68.495  1.00  0.00    -0.128 OA 
HETATM    8  H   UNL     1     -10.505   5.782  68.514  1.00  0.00     0.000 HD 
HETATM    9  O   UNL     1      -8.314   3.107  64.980  1.00  0.00    -0.093 OA 
HETATM   10  O   UNL     1      -8.832   6.013  64.979  1.00  0.00    -0.043 OA 
HETATM   11  H   UNL     1      -8.033   2.978  64.081  1.00  0.00     0.000 HD 
HETATM   12  C   UNL     1      -7.543   5.388  64.854  1.00  0.00    -0.084 C  
HETATM   13  C   UNL     1      -6.031   3.526  65.555  1.00  0.00    -0.023 C  
HETATM   14  C   UNL     1      -7.466   4.060  65.639  1.00  0.00    -0.081 C  
BRANCH   6  15
HETATM   15  O   UNL     1      -8.144   7.201  66.897  1.00  0.00    -0.113 OA 
BRANCH  15  16
HETATM   16  C   UNL     1      -8.403   8.614  66.825  1.00  0.00    -0.108 C  
HETATM   17  H1  UNL     1      -9.533  10.990  70.426  1.00  0.00     0.000 HD 
HETATM   18  C   UNL     1      -9.901   8.988  66.911  1.00  0.00    -0.224 C  
HETATM   19  C   UNL     1      -7.614   9.271  67.991  1.00  0.00    -0.084 C  
HETATM   20  H2  UNL     1     -11.034  10.748  69.698  1.00  0.00     0.000 HD 
HETATM   21  C   UNL     1      -9.716   9.157  69.475  1.00  0.00    -0.173 C  
HETATM   22  C   UNL     1     -10.466   8.551  68.273  1.00  0.00    -0.222 C  
HETATM   23  O   UNL     1      -7.595  10.706  67.826  1.00  0.00    -0.094 OA 
HETATM   24  H   UNL     1      -7.112  11.109  68.539  1.00  0.00     0.000 HD 
HETATM   25  N   UNL     1     -10.029  10.589  69.631  1.00  0.00    -0.167 NA 
HETATM   26  C   UNL     1      -8.186   8.874  69.383  1.00  0.00    -0.107 C  
BRANCH  18  27
HETATM   27  N   UNL     1     -10.118  10.408  66.633  1.00  0.00    -0.216 N  
HETATM   28  H   UNL     1     -10.168  11.055  67.420  1.00  0.00     0.000 HD 
HETATM   29  C   UNL     1     -10.259  10.913  65.360  1.00  0.00    -0.277 C  
HETATM   30  O   UNL     1     -10.189  10.233  64.342  1.00  0.00    -0.298 OA 
BRANCH  29  31
HETATM   31  C   UNL     1     -10.486  12.432  65.306  1.00  0.00    -0.286 C  
HETATM   32  H   UNL     1     -10.219  13.894  64.007  1.00  0.00     0.000 HD 
HETATM   33  O   UNL     1     -10.079  12.955  64.040  1.00  0.00    -0.349 OA 
BRANCH  31  34
HETATM   34  C   UNL     1     -11.960  12.774  65.522  1.00  0.00    -0.497 C  
BRANCH  34  35
HETATM   35  C   UNL     1     -12.155  13.731  66.699  1.00  0.00    -0.429 C  
HETATM   36  H1  UNL     1     -11.426  13.985  68.598  1.00  0.00     0.000 HD 
HETATM   37  H2  UNL     1     -10.317  13.283  67.534  1.00  0.00     0.000 HD 
HETATM   38  N   UNL     1     -11.296  13.348  67.813  1.00  0.00    -0.278 NA 
ENDBRANCH  34  35
ENDBRANCH  31  34
ENDBRANCH  29  31
ENDBRANCH  18  27
BRANCH  26  39
HETATM   39  O   UNL     1      -8.044   7.492  69.703  1.00  0.00    -0.122 OA 
BRANCH  39  40
HETATM   40  C   UNL     1      -7.812   7.129  71.067  1.00  0.00    -0.095 C  
HETATM   41  H1  UNL     1      -4.548   6.311  70.189  1.00  0.00     0.000 HD 
HETATM   42  O   UNL     1      -8.534   5.947  71.429  1.00  0.00    -0.126 OA 
HETATM   43  H2  UNL     1      -5.775   6.921  69.229  1.00  0.00     0.000 HD 
HETATM   44  N   UNL     1      -5.558   6.400  70.079  1.00  0.00    -0.014 NA 
HETATM   45  C   UNL     1      -6.261   6.993  71.237  1.00  0.00    -0.037 C  
HETATM   46  C   UNL     1      -8.226   5.470  72.692  1.00  0.00    -0.113 C  
HETATM   47  C   UNL     1      -5.883   6.320  72.564  1.00  0.00    -0.038 C  
HETATM   48  C   UNL     1      -7.017   5.635  73.249  1.00  0.00    -0.085 C  
BRANCH  46  49
HETATM   49  C   UNL     1      -9.334   4.708  73.383  1.00  0.00    -0.119 C  
BRANCH  49  50
HETATM   50  N   UNL     1     -10.435   5.565  73.835  1.00  0.00    -0.263 NA 
HETATM   51  H   UNL     1     -10.147   6.542  73.892  1.00  0.00     0.000 HD 
BRANCH  50  52
HETATM   52  C   UNL     1     -11.628   5.403  72.985  1.00  0.00    -0.200 C  
BRANCH  52  53
HETATM   53  C   UNL     1     -11.758   6.568  72.000  1.00  0.00    -0.323 C  
HETATM   54  O   UNL     1     -11.457   6.140  70.674  1.00  0.00    -0.338 OA 
HETATM   55  H   UNL     1     -11.537   6.863  70.063  1.00  0.00     0.000 HD 
ENDBRANCH  52  53
ENDBRANCH  50  52
ENDBRANCH  49  50
ENDBRANCH  46  49
ENDBRANCH  39  40
ENDBRANCH  26  39
ENDBRANCH  15  16
ENDBRANCH   6  15
ENDBRANCH   2   4
TORSDOF 13
ENDMDL
MODEL       83
REMARK 921   NORMALIZED FREE ENERGY PREDICTED BY IDOCK:   -3.81 KCAL/MOL
REMARK 922        TOTAL FREE ENERGY PREDICTED BY IDOCK:  -10.17 KCAL/MOL
REMARK 923 INTER-LIGAND FREE ENERGY PREDICTED BY IDOCK:   -7.92 KCAL/MOL
REMARK 924 INTRA-LIGAND FREE ENERGY PREDICTED BY IDOCK:   -2.25 KCAL/MOL
REMARK 927      BINDING AFFINITY PREDICTED BY RF-SCORE:    0.00 PKD
ROOT
HETATM    1  C   UNL     1      -9.783   2.056  71.329  1.00  0.00    -0.129 C  
HETATM    2  N   UNL     1      -8.863   2.939  72.038  1.00  0.00    -0.080 NA 
HETATM    3  H   UNL     1      -7.900   2.649  71.868  1.00  0.00     0.000 HD 
ENDROOT
BRANCH   2   4
HETATM    4  C   UNL     1      -9.015   4.396  71.748  1.00  0.00    -0.124 C  
HETATM    5  C   UNL     1      -7.707   5.035  71.215  1.00  0.00    -0.092 C  
HETATM    6  C   UNL     1      -7.982   6.491  70.775  1.00  0.00    -0.115 C  
HETATM    7  O   UNL     1      -7.155   4.263  70.146  1.00  0.00    -0.040 OA 
HETATM    8  H   UNL     1      -6.353   4.655  69.820  1.00  0.00     0.000 HD 
HETATM    9  O   UNL     1      -8.836   5.252  74.054  1.00  0.00    -0.117 OA 
HETATM   10  O   UNL     1      -8.433   7.237  71.906  1.00  0.00    -0.107 OA 
HETATM   11  H   UNL     1      -9.214   5.800  74.731  1.00  0.00     0.000 HD 
HETATM   12  C   UNL     1      -9.703   6.770  72.393  1.00  0.00    -0.154 C  
HETATM   13  C   UNL     1     -11.051   4.847  73.248  1.00  0.00    -0.410 C  
HETATM   14  C   UNL     1      -9.638   5.301  72.863  1.00  0.00    -0.144 C  
BRANCH   6  15
HETATM   15  O   UNL     1      -8.939   6.528  69.714  1.00  0.00    -0.141 OA 
BRANCH  15  16
HETATM   16  C   UNL     1      -8.441   6.921  68.424  1.00  0.00    -0.123 C  
HETATM   17  H1  UNL     1     -10.256  10.281  66.120  1.00  0.00     0.000 HD 
HETATM   18  C   UNL     1      -9.335   6.487  67.240  1.00  0.00    -0.121 C  
HETATM   19  C   UNL     1      -8.299   8.468  68.454  1.00  0.00    -0.124 C  
HETATM   20  H2  UNL     1     -10.950   8.942  65.366  1.00  0.00     0.000 HD 
HETATM   21  C   UNL     1     -10.640   8.701  67.407  1.00  0.00    -0.228 C  
HETATM   22  C   UNL     1     -10.712   7.163  67.356  1.00  0.00    -0.368 C  
HETATM   23  O   UNL     1      -7.548   8.917  67.305  1.00  0.00    -0.088 OA 
HETATM   24  H   UNL     1      -7.461   9.864  67.324  1.00  0.00     0.000 HD 
HETATM   25  N   UNL     1     -10.304   9.264  66.086  1.00  0.00    -0.164 NA 
HETATM   26  C   UNL     1      -9.679   9.182  68.536  1.00  0.00    -0.155 C  
BRANCH  18  27
HETATM   27  N   UNL     1      -8.684   6.735  65.953  1.00  0.00    -0.190 N  
HETATM   28  H   UNL     1      -8.955   7.564  65.424  1.00  0.00     0.000 HD 
HETATM   29  C   UNL     1      -7.724   5.904  65.422  1.00  0.00    -0.093 C  
HETATM   30  O   UNL     1      -7.303   4.898  65.983  1.00  0.00    -0.075 OA 
BRANCH  29  31
HETATM   31  C   UNL     1      -7.183   6.357  64.057  1.00  0.00    -0.062 C  
HETATM   32  H   UNL     1      -7.648   6.105  62.155  1.00  0.00     0.000 HD 
HETATM   33  O   UNL     1      -7.983   5.825  62.999  1.00  0.00    -0.094 OA 
BRANCH  31  34
HETATM   34  C   UNL     1      -7.181   7.881  63.947  1.00  0.00    -0.088 C  
BRANCH  34  35
HETATM   35  C   UNL     1      -8.030   8.368  62.772  1.00  0.00    -0.159 C  
HETATM   36  H1  UNL     1      -8.928  10.103  62.151  1.00  0.00     0.000 HD 
HETATM   37  H2  UNL     1      -7.528  10.352  63.063  1.00  0.00     0.000 HD 
HETATM   38  N   UNL     1      -8.361   9.779  62.934  1.00  0.00    -0.149 NA 
ENDBRANCH  34  35
ENDBRANCH  31  34
ENDBRANCH  29  31
ENDBRANCH  18  27
BRANCH  26  39
HETATM   39  O   UNL     1     -10.389   8.950  69.751  1.00  0.00    -0.196 OA 
BRANCH  39  40
HETATM   40  C   UNL     1     -10.906  10.077  70.465  1.00  0.00    -0.314 C  
HETATM   41  H1  UNL     1     -13.507   8.054  71.577  1.00  0.00     0.000 HD 
HETATM   42  O   UNL     1     -11.409  11.078  69.575  1.00  0.00    -0.239 OA 
HETATM   43  H2  UNL     1     -12.208   7.657  70.599  1.00  0.00     0.000 HD 
HETATM   44  N   UNL     1     -12.806   8.414  70.929  1.00  0.00     0.052 NA 
HETATM   45  C   UNL     1     -11.981   9.523  71.459  1.00  0.00    -0.399 C  
HETATM   46  C   UNL     1     -12.055  12.122  70.218  1.00  0.00    -0.302 C  
HETATM   47  C   UNL     1     -12.829  10.645  72.076  1.00  0.00    -0.389 C  
HETATM   48  C   UNL     1     -12.709  11.958  71.377  1.00  0.00    -0.395 C  
BRANCH  46  49
HETATM   49  C   UNL     1     -12.012  13.451  69.498  1.00  0.00    -0.319 C  
BRANCH  49  50
HETATM   50  N   UNL     1     -10.679  14.060  69.482  1.00  0.00    -0.444 NA 
HETATM   51  H   UNL     1     -10.316  14.139  68.532  1.00  0.00     0.000 HD 
BRANCH  50  52
HETATM   52  C   UNL     1     -10.672  15.362  70.172  1.00  0.00    -0.308 C  
BRANCH  52  53
HETATM   53  C   UNL     1     -12.070  15.715  70.684  1.00  0.00    -0.405 C  
HETATM   54  O   UNL     1     -12.163  15.493  72.088  1.00  0.00    -0.330 OA 
HETATM   55  H   UNL     1     -13.031  15.712  72.406  1.00  0.00     0.000 HD 
ENDBRANCH  52  53
ENDBRANCH  50  52
ENDBRANCH  49  50
ENDBRANCH  46  49
ENDBRANCH  39  40
ENDBRANCH  26  39
ENDBRANCH  15  16
ENDBRANCH   6  15
ENDBRANCH   2   4
TORSDOF 13
ENDMDL
MODEL       84
REMARK 921   NORMALIZED FREE ENERGY PREDICTED BY IDOCK:   -3.81 KCAL/MOL
REMARK 922        TOTAL FREE ENERGY PREDICTED BY IDOCK:  -10.17 KCAL/MOL
REMARK 923 INTER-LIGAND FREE ENERGY PREDICTED BY IDOCK:   -8.20 KCAL/MOL
REMARK 924 INTRA-LIGAND FREE ENERGY PREDICTED BY IDOCK:   -1.96 KCAL/MOL
REMARK 927      BINDING AFFINITY PREDICTED BY RF-SCORE:    0.00 PKD
ROOT
HETATM    1  C   UNL     1      -7.477   6.601  62.341  1.00  0.00    -0.071 C  
HETATM    2  N   UNL     1      -8.158   6.592  63.633  1.00  0.00    -0.271 NA 
HETATM    3  H   UNL     1      -8.034   5.686  64.086  1.00  0.00     0.000 HD 
ENDROOT
BRANCH   2   4
HETATM    4  C   UNL     1      -7.775   7.689  64.571  1.00  0.00    -0.126 C  
HETATM    5  C   UNL     1      -7.901   9.092  63.927  1.00  0.00    -0.129 C  
HETATM    6  C   UNL     1      -7.659  10.180  64.998  1.00  0.00    -0.141 C  
HETATM    7  O   UNL     1      -9.173   9.257  63.296  1.00  0.00    -0.429 OA 
HETATM    8  H   UNL     1      -9.250  10.118  62.900  1.00  0.00     0.000 HD 
HETATM    9  O   UNL     1      -5.324   7.501  64.378  1.00  0.00    -0.029 OA 
HETATM   10  O   UNL     1      -6.338  10.027  65.519  1.00  0.00    -0.079 OA 
HETATM   11  H   UNL     1      -4.493   7.424  64.832  1.00  0.00     0.000 HD 
HETATM   12  C   UNL     1      -6.174   8.789  66.230  1.00  0.00    -0.060 C  
HETATM   13  C   UNL     1      -6.335   6.295  66.179  1.00  0.00    -0.039 C  
HETATM   14  C   UNL     1      -6.406   7.563  65.320  1.00  0.00    -0.038 C  
BRANCH   6  15
HETATM   15  O   UNL     1      -8.639  10.096  66.035  1.00  0.00    -0.135 OA 
BRANCH  15  16
HETATM   16  C   UNL     1      -8.747  11.240  66.899  1.00  0.00    -0.157 C  
HETATM   17  H1  UNL     1     -11.497  11.292  70.410  1.00  0.00     0.000 HD 
HETATM   18  C   UNL     1     -10.039  12.065  66.698  1.00  0.00    -0.198 C  
HETATM   19  C   UNL     1      -8.668  10.708  68.356  1.00  0.00    -0.141 C  
HETATM   20  H2  UNL     1     -12.390  12.156  69.270  1.00  0.00     0.000 HD 
HETATM   21  C   UNL     1     -11.239  10.624  68.464  1.00  0.00    -0.282 C  
HETATM   22  C   UNL     1     -11.265  11.198  67.035  1.00  0.00    -0.291 C  
HETATM   23  O   UNL     1      -8.489  11.808  69.275  1.00  0.00    -0.332 OA 
HETATM   24  H   UNL     1      -8.441  11.482  70.167  1.00  0.00     0.000 HD 
HETATM   25  N   UNL     1     -11.514  11.672  69.464  1.00  0.00    -0.291 NA 
HETATM   26  C   UNL     1      -9.912   9.854  68.737  1.00  0.00    -0.173 C  
BRANCH  18  27
HETATM   27  N   UNL     1     -10.002  13.318  67.455  1.00  0.00    -0.230 N  
HETATM   28  H   UNL     1      -9.394  13.374  68.272  1.00  0.00     0.000 HD 
HETATM   29  C   UNL     1     -10.749  14.423  67.117  1.00  0.00    -0.283 C  
HETATM   30  O   UNL     1     -11.490  14.478  66.142  1.00  0.00    -0.347 OA 
BRANCH  29  31
HETATM   31  C   UNL     1     -10.557  15.625  68.056  1.00  0.00    -0.271 C  
HETATM   32  H   UNL     1     -11.350  16.297  69.734  1.00  0.00     0.000 HD 
HETATM   33  O   UNL     1     -11.468  15.554  69.154  1.00  0.00    -0.300 OA 
BRANCH  31  34
HETATM   34  C   UNL     1      -9.132  15.666  68.608  1.00  0.00    -0.205 C  
BRANCH  34  35
HETATM   35  C   UNL     1      -8.751  17.065  69.095  1.00  0.00    -0.032 C  
HETATM   36  H1  UNL     1      -7.093  18.269  69.136  1.00  0.00     0.000 HD 
HETATM   37  H2  UNL     1      -7.126  17.205  67.825  1.00  0.00     0.000 HD 
HETATM   38  N   UNL     1      -7.347  17.337  68.812  1.00  0.00    -0.242 NA 
ENDBRANCH  34  35
ENDBRANCH  31  34
ENDBRANCH  29  31
ENDBRANCH  18  27
BRANCH  26  39
HETATM   39  O   UNL     1     -10.034   8.635  68.007  1.00  0.00    -0.167 OA 
BRANCH  39  40
HETATM   40  C   UNL     1      -9.776   7.404  68.689  1.00  0.00    -0.152 C  
HETATM   41  H1  UNL     1     -10.952   5.719  65.883  1.00  0.00     0.000 HD 
HETATM   42  O   UNL     1     -10.672   7.212  69.788  1.00  0.00    -0.228 OA 
HETATM   43  H2  UNL     1     -10.794   7.366  66.134  1.00  0.00     0.000 HD 
HETATM   44  N   UNL     1     -10.901   6.458  66.585  1.00  0.00    -0.259 NA 
HETATM   45  C   UNL     1      -9.853   6.270  67.612  1.00  0.00    -0.121 C  
HETATM   46  C   UNL     1     -10.562   5.968  70.388  1.00  0.00    -0.268 C  
HETATM   47  C   UNL     1      -9.894   4.873  68.247  1.00  0.00    -0.198 C  
HETATM   48  C   UNL     1     -10.195   4.872  69.707  1.00  0.00    -0.284 C  
BRANCH  46  49
HETATM   49  C   UNL     1     -10.930   5.921  71.854  1.00  0.00    -0.266 C  
BRANCH  49  50
HETATM   50  N   UNL     1     -10.868   7.230  72.510  1.00  0.00    -0.253 NA 
HETATM   51  H   UNL     1     -11.731   7.436  73.014  1.00  0.00     0.000 HD 
BRANCH  50  52
HETATM   52  C   UNL     1      -9.691   7.337  73.390  1.00  0.00    -0.251 C  
BRANCH  52  53
HETATM   53  C   UNL     1      -8.411   7.514  72.569  1.00  0.00    -0.116 C  
HETATM   54  O   UNL     1      -7.593   8.538  73.129  1.00  0.00    -0.316 OA 
HETATM   55  H   UNL     1      -6.799   8.649  72.619  1.00  0.00     0.000 HD 
ENDBRANCH  52  53
ENDBRANCH  50  52
ENDBRANCH  49  50
ENDBRANCH  46  49
ENDBRANCH  39  40
ENDBRANCH  26  39
ENDBRANCH  15  16
ENDBRANCH   6  15
ENDBRANCH   2   4
TORSDOF 13
ENDMDL
MODEL       85
REMARK 921   NORMALIZED FREE ENERGY PREDICTED BY IDOCK:   -3.80 KCAL/MOL
REMARK 922        TOTAL FREE ENERGY PREDICTED BY IDOCK:  -10.15 KCAL/MOL
REMARK 923 INTER-LIGAND FREE ENERGY PREDICTED BY IDOCK:   -8.77 KCAL/MOL
REMARK 924 INTRA-LIGAND FREE ENERGY PREDICTED BY IDOCK:   -1.38 KCAL/MOL
REMARK 927      BINDING AFFINITY PREDICTED BY RF-SCORE:    0.00 PKD
ROOT
HETATM    1  C   UNL     1      -8.106   3.873  64.509  1.00  0.00    -0.086 C  
HETATM    2  N   UNL     1      -7.446   4.510  65.644  1.00  0.00    -0.080 NA 
HETATM    3  H   UNL     1      -6.440   4.559  65.480  1.00  0.00     0.000 HD 
ENDROOT
BRANCH   2   4
HETATM    4  C   UNL     1      -7.968   5.857  66.022  1.00  0.00    -0.108 C  
HETATM    5  C   UNL     1      -9.483   5.837  66.346  1.00  0.00    -0.156 C  
HETATM    6  C   UNL     1      -9.916   7.216  66.892  1.00  0.00    -0.224 C  
HETATM    7  O   UNL     1      -9.799   4.790  67.267  1.00  0.00    -0.169 OA 
HETATM    8  H   UNL     1     -10.728   4.778  67.465  1.00  0.00     0.000 HD 
HETATM    9  O   UNL     1      -8.169   6.821  63.761  1.00  0.00    -0.298 OA 
HETATM   10  O   UNL     1      -9.671   8.206  65.892  1.00  0.00    -0.072 OA 
HETATM   11  H   UNL     1      -7.969   7.549  63.185  1.00  0.00     0.000 HD 
HETATM   12  C   UNL     1      -8.269   8.361  65.613  1.00  0.00    -0.132 C  
HETATM   13  C   UNL     1      -6.128   7.273  64.921  1.00  0.00    -0.038 C  
HETATM   14  C   UNL     1      -7.638   7.058  65.074  1.00  0.00    -0.104 C  
BRANCH   6  15
HETATM   15  O   UNL     1      -9.223   7.522  68.104  1.00  0.00    -0.138 OA 
BRANCH  15  16
HETATM   16  C   UNL     1      -9.682   6.844  69.286  1.00  0.00    -0.156 C  
HETATM   17  H1  UNL     1     -11.268   9.064  72.814  1.00  0.00     0.000 HD 
HETATM   18  C   UNL     1      -8.711   6.933  70.485  1.00  0.00    -0.150 C  
HETATM   19  C   UNL     1     -11.055   7.471  69.654  1.00  0.00    -0.085 C  
HETATM   20  H2  UNL     1      -9.694   8.719  73.312  1.00  0.00     0.000 HD 
HETATM   21  C   UNL     1      -9.878   9.089  71.275  1.00  0.00    -0.306 C  
HETATM   22  C   UNL     1      -8.548   8.402  70.911  1.00  0.00    -0.167 C  
HETATM   23  O   UNL     1     -11.713   6.666  70.657  1.00  0.00    -0.361 OA 
HETATM   24  H   UNL     1     -12.552   7.050  70.883  1.00  0.00     0.000 HD 
HETATM   25  N   UNL     1     -10.388   8.609  72.573  1.00  0.00    -0.247 NA 
HETATM   26  C   UNL     1     -10.918   8.949  70.123  1.00  0.00    -0.227 C  
BRANCH  18  27
HETATM   27  N   UNL     1      -9.132   6.064  71.585  1.00  0.00    -0.143 N  
HETATM   28  H   UNL     1     -10.085   6.153  71.938  1.00  0.00     0.000 HD 
HETATM   29  C   UNL     1      -8.303   5.132  72.167  1.00  0.00    -0.125 C  
HETATM   30  O   UNL     1      -7.151   4.919  71.806  1.00  0.00    -0.057 OA 
BRANCH  29  31
HETATM   31  C   UNL     1      -8.954   4.335  73.309  1.00  0.00    -0.104 C  
HETATM   32  H   UNL     1      -9.263   4.563  75.245  1.00  0.00     0.000 HD 
HETATM   33  O   UNL     1      -8.861   5.056  74.539  1.00  0.00    -0.111 OA 
BRANCH  31  34
HETATM   34  C   UNL     1     -10.429   4.062  73.016  1.00  0.00    -0.250 C  
BRANCH  34  35
HETATM   35  C   UNL     1     -10.723   2.565  72.923  1.00  0.00    -0.106 C  
HETATM   36  H1  UNL     1     -12.194   1.257  73.498  1.00  0.00     0.000 HD 
HETATM   37  H2  UNL     1     -12.759   2.817  73.176  1.00  0.00     0.000 HD 
HETATM   38  N   UNL     1     -11.998   2.256  73.559  1.00  0.00    -0.080 NA 
ENDBRANCH  34  35
ENDBRANCH  31  34
ENDBRANCH  29  31
ENDBRANCH  18  27
BRANCH  26  39
HETATM   39  O   UNL     1     -10.471   9.847  69.109  1.00  0.00    -0.195 OA 
BRANCH  39  40
HETATM   40  C   UNL     1     -11.306  10.956  68.765  1.00  0.00    -0.292 C  
HETATM   41  H1  UNL     1      -9.192  11.586  66.077  1.00  0.00     0.000 HD 
HETATM   42  O   UNL     1     -11.204  12.011  69.727  1.00  0.00    -0.166 OA 
HETATM   43  H2  UNL     1      -9.109  10.365  67.218  1.00  0.00     0.000 HD 
HETATM   44  N   UNL     1      -9.455  11.304  67.021  1.00  0.00    -0.170 NA 
HETATM   45  C   UNL     1     -10.902  11.389  67.316  1.00  0.00    -0.263 C  
HETATM   46  C   UNL     1     -11.877  13.166  69.363  1.00  0.00    -0.326 C  
HETATM   47  C   UNL     1     -11.503  12.748  66.930  1.00  0.00    -0.396 C  
HETATM   48  C   UNL     1     -12.042  13.528  68.082  1.00  0.00    -0.290 C  
BRANCH  46  49
HETATM   49  C   UNL     1     -12.373  14.015  70.511  1.00  0.00    -0.367 C  
BRANCH  49  50
HETATM   50  N   UNL     1     -11.694  15.310  70.610  1.00  0.00    -0.302 NA 
HETATM   51  H   UNL     1     -12.098  15.994  69.970  1.00  0.00     0.000 HD 
BRANCH  50  52
HETATM   52  C   UNL     1     -11.686  15.810  71.996  1.00  0.00    -0.479 C  
BRANCH  52  53
HETATM   53  C   UNL     1     -12.874  15.253  72.784  1.00  0.00    -0.413 C  
HETATM   54  O   UNL     1     -13.273  16.165  73.804  1.00  0.00    -0.833 OA 
HETATM   55  H   UNL     1     -14.010  15.819  74.293  1.00  0.00     0.000 HD 
ENDBRANCH  52  53
ENDBRANCH  50  52
ENDBRANCH  49  50
ENDBRANCH  46  49
ENDBRANCH  39  40
ENDBRANCH  26  39
ENDBRANCH  15  16
ENDBRANCH   6  15
ENDBRANCH   2   4
TORSDOF 13
ENDMDL
MODEL       86
REMARK 921   NORMALIZED FREE ENERGY PREDICTED BY IDOCK:   -3.79 KCAL/MOL
REMARK 922        TOTAL FREE ENERGY PREDICTED BY IDOCK:  -10.14 KCAL/MOL
REMARK 923 INTER-LIGAND FREE ENERGY PREDICTED BY IDOCK:   -7.79 KCAL/MOL
REMARK 924 INTRA-LIGAND FREE ENERGY PREDICTED BY IDOCK:   -2.35 KCAL/MOL
REMARK 927      BINDING AFFINITY PREDICTED BY RF-SCORE:    0.00 PKD
ROOT
HETATM    1  C   UNL     1     -11.545  13.374  68.647  1.00  0.00    -0.327 C  
HETATM    2  N   UNL     1     -10.423  13.227  67.725  1.00  0.00    -0.235 NA 
HETATM    3  H   UNL     1      -9.574  13.608  68.145  1.00  0.00     0.000 HD 
ENDROOT
BRANCH   2   4
HETATM    4  C   UNL     1     -10.170  11.840  67.233  1.00  0.00    -0.203 C  
HETATM    5  C   UNL     1      -8.815  11.272  67.727  1.00  0.00    -0.141 C  
HETATM    6  C   UNL     1      -8.698   9.784  67.328  1.00  0.00    -0.132 C  
HETATM    7  O   UNL     1      -8.667  11.446  69.138  1.00  0.00    -0.374 OA 
HETATM    8  H   UNL     1      -7.836  11.098  69.441  1.00  0.00     0.000 HD 
HETATM    9  O   UNL     1      -9.436  12.389  64.944  1.00  0.00    -0.456 OA 
HETATM   10  O   UNL     1      -8.750   9.683  65.904  1.00  0.00    -0.136 OA 
HETATM   11  H   UNL     1      -9.538  12.225  64.014  1.00  0.00     0.000 HD 
HETATM   12  C   UNL     1     -10.023  10.091  65.377  1.00  0.00    -0.294 C  
HETATM   13  C   UNL     1     -11.757  11.883  65.214  1.00  0.00    -0.232 C  
HETATM   14  C   UNL     1     -10.338  11.568  65.701  1.00  0.00    -0.261 C  
BRANCH   6  15
HETATM   15  O   UNL     1      -9.733   9.012  67.940  1.00  0.00    -0.147 OA 
BRANCH  15  16
HETATM   16  C   UNL     1      -9.388   8.346  69.167  1.00  0.00    -0.151 C  
HETATM   17  H1  UNL     1      -9.526   3.905  69.558  1.00  0.00     0.000 HD 
HETATM   18  C   UNL     1     -10.600   7.803  69.956  1.00  0.00    -0.238 C  
HETATM   19  C   UNL     1      -8.426   7.186  68.787  1.00  0.00    -0.126 C  
HETATM   20  H2  UNL     1     -10.976   4.353  70.292  1.00  0.00     0.000 HD 
HETATM   21  C   UNL     1     -10.424   5.563  68.695  1.00  0.00    -0.169 C  
HETATM   22  C   UNL     1     -11.328   6.737  69.119  1.00  0.00    -0.188 C  
HETATM   23  O   UNL     1      -7.814   6.643  69.978  1.00  0.00    -0.106 OA 
HETATM   24  H   UNL     1      -7.226   5.933  69.745  1.00  0.00     0.000 HD 
HETATM   25  N   UNL     1     -10.124   4.682  69.838  1.00  0.00    -0.235 NA 
HETATM   26  C   UNL     1      -9.144   6.074  67.968  1.00  0.00    -0.117 C  
BRANCH  18  27
HETATM   27  N   UNL     1     -10.208   7.317  71.280  1.00  0.00    -0.190 N  
HETATM   28  H   UNL     1      -9.239   7.033  71.426  1.00  0.00     0.000 HD 
HETATM   29  C   UNL     1     -11.084   7.225  72.338  1.00  0.00    -0.275 C  
HETATM   30  O   UNL     1     -12.261   7.564  72.284  1.00  0.00    -0.274 OA 
BRANCH  29  31
HETATM   31  C   UNL     1     -10.455   6.682  73.631  1.00  0.00    -0.330 C  
HETATM   32  H   UNL     1     -10.491   5.005  74.670  1.00  0.00     0.000 HD 
HETATM   33  O   UNL     1     -10.880   5.340  73.870  1.00  0.00    -0.287 OA 
BRANCH  31  34
HETATM   34  C   UNL     1      -8.929   6.703  73.549  1.00  0.00    -0.143 C  
BRANCH  34  35
HETATM   35  C   UNL     1      -8.363   8.096  73.828  1.00  0.00    -0.248 C  
HETATM   36  H1  UNL     1      -7.577   9.665  72.769  1.00  0.00     0.000 HD 
HETATM   37  H2  UNL     1      -8.713   8.764  71.903  1.00  0.00     0.000 HD 
HETATM   38  N   UNL     1      -7.954   8.736  72.584  1.00  0.00    -0.384 NA 
ENDBRANCH  34  35
ENDBRANCH  31  34
ENDBRANCH  29  31
ENDBRANCH  18  27
BRANCH  26  39
HETATM   39  O   UNL     1      -9.590   6.491  66.679  1.00  0.00    -0.158 OA 
BRANCH  39  40
HETATM   40  C   UNL     1      -8.698   6.350  65.570  1.00  0.00    -0.066 C  
HETATM   41  H1  UNL     1      -9.403   2.945  65.561  1.00  0.00     0.000 HD 
HETATM   42  O   UNL     1      -7.338   6.569  65.957  1.00  0.00    -0.076 OA 
HETATM   43  H2  UNL     1     -10.013   4.144  66.556  1.00  0.00     0.000 HD 
HETATM   44  N   UNL     1      -9.235   3.870  65.956  1.00  0.00    -0.148 NA 
HETATM   45  C   UNL     1      -8.956   4.931  64.963  1.00  0.00    -0.147 C  
HETATM   46  C   UNL     1      -6.421   6.299  64.954  1.00  0.00    -0.038 C  
HETATM   47  C   UNL     1      -7.869   4.526  63.958  1.00  0.00    -0.086 C  
HETATM   48  C   UNL     1      -6.640   5.370  64.011  1.00  0.00    -0.041 C  
BRANCH  46  49
HETATM   49  C   UNL     1      -5.134   7.089  65.023  1.00  0.00    -0.027 C  
BRANCH  49  50
HETATM   50  N   UNL     1      -5.292   8.492  64.629  1.00  0.00    -0.039 NA 
HETATM   51  H   UNL     1      -4.415   9.005  64.716  1.00  0.00     0.000 HD 
BRANCH  50  52
HETATM   52  C   UNL     1      -5.854   8.611  63.272  1.00  0.00    -0.077 C  
BRANCH  52  53
HETATM   53  C   UNL     1      -6.277  10.053  62.981  1.00  0.00    -0.130 C  
HETATM   54  O   UNL     1      -6.694  10.705  64.177  1.00  0.00    -0.352 OA 
HETATM   55  H   UNL     1      -6.957  11.600  63.997  1.00  0.00     0.000 HD 
ENDBRANCH  52  53
ENDBRANCH  50  52
ENDBRANCH  49  50
ENDBRANCH  46  49
ENDBRANCH  39  40
ENDBRANCH  26  39
ENDBRANCH  15  16
ENDBRANCH   6  15
ENDBRANCH   2   4
TORSDOF 13
ENDMDL
MODEL       87
REMARK 921   NORMALIZED FREE ENERGY PREDICTED BY IDOCK:   -3.70 KCAL/MOL
REMARK 922        TOTAL FREE ENERGY PREDICTED BY IDOCK:   -9.97 KCAL/MOL
REMARK 923 INTER-LIGAND FREE ENERGY PREDICTED BY IDOCK:   -8.61 KCAL/MOL
REMARK 924 INTRA-LIGAND FREE ENERGY PREDICTED BY IDOCK:   -1.36 KCAL/MOL
REMARK 927      BINDING AFFINITY PREDICTED BY RF-SCORE:    0.00 PKD
ROOT
HETATM    1  C   UNL     1     -12.842  13.847  71.603  1.00  0.00    -0.349 C  
HETATM    2  N   UNL     1     -13.022  12.403  71.483  1.00  0.00    -0.349 NA 
HETATM    3  H   UNL     1     -13.981  12.193  71.207  1.00  0.00     0.000 HD 
ENDROOT
BRANCH   2   4
HETATM    4  C   UNL     1     -12.064  11.707  70.572  1.00  0.00    -0.366 C  
HETATM    5  C   UNL     1     -12.124  12.250  69.122  1.00  0.00    -0.161 C  
HETATM    6  C   UNL     1     -10.996  11.611  68.281  1.00  0.00    -0.226 C  
HETATM    7  O   UNL     1     -12.045  13.677  69.101  1.00  0.00    -0.345 OA 
HETATM    8  H   UNL     1     -12.082  14.009  68.212  1.00  0.00     0.000 HD 
HETATM    9  O   UNL     1     -13.367   9.653  70.167  1.00  0.00    -0.181 OA 
HETATM   10  O   UNL     1     -11.186  10.196  68.254  1.00  0.00    -0.255 OA 
HETATM   11  H   UNL     1     -13.375   8.704  70.161  1.00  0.00     0.000 HD 
HETATM   12  C   UNL     1     -11.036   9.602  69.555  1.00  0.00    -0.208 C  
HETATM   13  C   UNL     1     -11.769   9.555  71.943  1.00  0.00    -0.311 C  
HETATM   14  C   UNL     1     -12.076  10.142  70.561  1.00  0.00    -0.291 C  
BRANCH   6  15
HETATM   15  O   UNL     1      -9.713  11.952  68.812  1.00  0.00    -0.153 OA 
BRANCH  15  16
HETATM   16  C   UNL     1      -9.161  13.208  68.382  1.00  0.00    -0.141 C  
HETATM   17  H1  UNL     1      -5.186  13.475  66.379  1.00  0.00     0.000 HD 
HETATM   18  C   UNL     1      -8.019  13.738  69.278  1.00  0.00     0.367 C  
HETATM   19  C   UNL     1      -8.655  12.998  66.928  1.00  0.00    -0.119 C  
HETATM   20  H2  UNL     1      -4.799  13.926  67.957  1.00  0.00     0.000 HD 
HETATM   21  C   UNL     1      -6.295  12.489  67.827  1.00  0.00    -0.121 C  
HETATM   22  C   UNL     1      -6.836  12.755  69.245  1.00  0.00    -0.012 C  
HETATM   23  O   UNL     1      -8.342  14.272  66.325  1.00  0.00    -0.196 OA 
HETATM   24  H   UNL     1      -8.032  14.144  65.436  1.00  0.00     0.000 HD 
HETATM   25  N   UNL     1      -5.544  13.651  67.317  1.00  0.00    -0.280 NA 
HETATM   26  C   UNL     1      -7.435  12.033  66.867  1.00  0.00    -0.051 C  
BRANCH  18  27
HETATM   27  N   UNL     1      -7.636  15.103  68.913  1.00  0.00    -0.136 N  
HETATM   28  H   UNL     1      -8.057  15.519  68.082  1.00  0.00     0.000 HD 
HETATM   29  C   UNL     1      -6.736  15.851  69.636  1.00  0.00    -0.173 C  
HETATM   30  O   UNL     1      -6.192  15.463  70.665  1.00  0.00    -0.011 OA 
BRANCH  29  31
HETATM   31  C   UNL     1      -6.479  17.255  69.065  1.00  0.00    -0.221 C  
HETATM   32  H   UNL     1      -5.052  18.615  69.142  1.00  0.00     0.000 HD 
HETATM   33  O   UNL     1      -5.210  17.747  69.496  1.00  0.00    -0.170 OA 
BRANCH  31  34
HETATM   34  C   UNL     1      -6.502  17.236  67.536  1.00  0.00    -0.161 C  
BRANCH  34  35
HETATM   35  C   UNL     1      -7.577  18.164  66.972  1.00  0.00    -0.214 C  
HETATM   36  H1  UNL     1      -9.019  18.124  65.515  1.00  0.00     0.000 HD 
HETATM   37  H2  UNL     1      -8.690  16.609  66.186  1.00  0.00     0.000 HD 
HETATM   38  N   UNL     1      -8.302  17.505  65.892  1.00  0.00    -0.549 NA 
ENDBRANCH  34  35
ENDBRANCH  31  34
ENDBRANCH  29  31
ENDBRANCH  18  27
BRANCH  26  39
HETATM   39  O   UNL     1      -7.728  10.691  67.250  1.00  0.00    -0.104 OA 
BRANCH  39  40
HETATM   40  C   UNL     1      -8.179   9.778  66.245  1.00  0.00    -0.116 C  
HETATM   41  H1  UNL     1      -5.277   7.933  66.762  1.00  0.00     0.000 HD 
HETATM   42  O   UNL     1      -8.158  10.373  64.944  1.00  0.00    -0.157 OA 
HETATM   43  H2  UNL     1      -5.788   9.328  67.531  1.00  0.00     0.000 HD 
HETATM   44  N   UNL     1      -5.861   8.765  66.683  1.00  0.00    -0.051 NA 
HETATM   45  C   UNL     1      -7.282   8.500  66.365  1.00  0.00    -0.079 C  
HETATM   46  C   UNL     1      -8.442   9.485  63.920  1.00  0.00    -0.190 C  
HETATM   47  C   UNL     1      -7.452   7.561  65.163  1.00  0.00    -0.085 C  
HETATM   48  C   UNL     1      -8.139   8.180  63.994  1.00  0.00    -0.122 C  
BRANCH  46  49
HETATM   49  C   UNL     1      -9.075  10.097  62.690  1.00  0.00    -0.290 C  
BRANCH  49  50
HETATM   50  N   UNL     1      -9.632  11.432  62.927  1.00  0.00    -0.512 NA 
HETATM   51  H   UNL     1      -9.723  11.958  62.058  1.00  0.00     0.000 HD 
BRANCH  50  52
HETATM   52  C   UNL     1     -10.913  11.361  63.652  1.00  0.00    -0.363 C  
BRANCH  52  53
HETATM   53  C   UNL     1     -11.485  12.762  63.886  1.00  0.00    -0.444 C  
HETATM   54  O   UNL     1     -12.826  12.683  64.361  1.00  0.00    -0.712 OA 
HETATM   55  H   UNL     1     -13.182  13.553  64.506  1.00  0.00     0.000 HD 
ENDBRANCH  52  53
ENDBRANCH  50  52
ENDBRANCH  49  50
ENDBRANCH  46  49
ENDBRANCH  39  40
ENDBRANCH  26  39
ENDBRANCH  15  16
ENDBRANCH   6  15
ENDBRANCH   2   4
TORSDOF 13
ENDMDL
MODEL       88
REMARK 921   NORMALIZED FREE ENERGY PREDICTED BY IDOCK:   -3.69 KCAL/MOL
REMARK 922        TOTAL FREE ENERGY PREDICTED BY IDOCK:   -9.96 KCAL/MOL
REMARK 923 INTER-LIGAND FREE ENERGY PREDICTED BY IDOCK:   -9.89 KCAL/MOL
REMARK 924 INTRA-LIGAND FREE ENERGY PREDICTED BY IDOCK:   -0.07 KCAL/MOL
REMARK 927      BINDING AFFINITY PREDICTED BY RF-SCORE:    0.00 PKD
ROOT
HETATM    1  C   UNL     1     -10.616   6.993  66.919  1.00  0.00    -0.301 C  
HETATM    2  N   UNL     1      -9.601   7.417  65.959  1.00  0.00    -0.413 NA 
HETATM    3  H   UNL     1     -10.011   7.490  65.027  1.00  0.00     0.000 HD 
ENDROOT
BRANCH   2   4
HETATM    4  C   UNL     1      -8.878   8.679  66.299  1.00  0.00    -0.157 C  
HETATM    5  C   UNL     1      -9.230   9.842  65.337  1.00  0.00    -0.227 C  
HETATM    6  C   UNL     1      -8.586  11.150  65.847  1.00  0.00    -0.135 C  
HETATM    7  O   UNL     1     -10.645   9.980  65.192  1.00  0.00    -0.035 OA 
HETATM    8  H   UNL     1     -10.861  10.693  64.602  1.00  0.00     0.000 HD 
HETATM    9  O   UNL     1      -6.690   8.130  65.302  1.00  0.00    -0.051 OA 
HETATM   10  O   UNL     1      -7.167  10.987  65.875  1.00  0.00    -0.082 OA 
HETATM   11  H   UNL     1      -5.750   8.082  65.424  1.00  0.00     0.000 HD 
HETATM   12  C   UNL     1      -6.754   9.994  66.830  1.00  0.00    -0.076 C  
HETATM   13  C   UNL     1      -6.943   7.634  67.627  1.00  0.00    -0.081 C  
HETATM   14  C   UNL     1      -7.328   8.599  66.500  1.00  0.00    -0.081 C  
BRANCH   6  15
HETATM   15  O   UNL     1      -9.093  11.495  67.139  1.00  0.00    -0.161 OA 
BRANCH  15  16
HETATM   16  C   UNL     1      -8.987  12.879  67.514  1.00  0.00    -0.193 C  
HETATM   17  H1  UNL     1     -12.522  15.230  68.879  1.00  0.00     0.000 HD 
HETATM   18  C   UNL     1      -9.553  13.865  66.466  1.00  0.00    -0.287 C  
HETATM   19  C   UNL     1      -9.740  13.034  68.864  1.00  0.00     0.192 C  
HETATM   20  H2  UNL     1     -12.387  15.728  67.273  1.00  0.00     0.000 HD 
HETATM   21  C   UNL     1     -11.866  13.741  67.594  1.00  0.00    -0.378 C  
HETATM   22  C   UNL     1     -11.061  13.619  66.286  1.00  0.00    -0.304 C  
HETATM   23  O   UNL     1      -9.448  14.322  69.448  1.00  0.00    -0.395 OA 
HETATM   24  H   UNL     1      -9.909  14.417  70.273  1.00  0.00     0.000 HD 
HETATM   25  N   UNL     1     -11.990  15.149  68.014  1.00  0.00    -0.196 NA 
HETATM   26  C   UNL     1     -11.274  12.824  68.706  1.00  0.00    -0.283 C  
BRANCH  18  27
HETATM   27  N   UNL     1      -9.239  15.253  66.807  1.00  0.00    -0.232 N  
HETATM   28  H   UNL     1      -8.700  15.435  67.654  1.00  0.00     0.000 HD 
HETATM   29  C   UNL     1      -9.637  16.324  66.040  1.00  0.00    -0.337 C  
HETATM   30  O   UNL     1     -10.263  16.222  64.991  1.00  0.00    -0.553 OA 
BRANCH  29  31
HETATM   31  C   UNL     1      -9.201  17.691  66.593  1.00  0.00    -0.271 C  
HETATM   32  H   UNL     1      -7.647  18.896  66.425  1.00  0.00     0.000 HD 
HETATM   33  O   UNL     1      -7.916  18.051  66.084  1.00  0.00    -0.405 OA 
BRANCH  31  34
HETATM   34  C   UNL     1     -10.200  18.782  66.207  1.00  0.00    -0.466 C  
BRANCH  34  35
HETATM   35  C   UNL     1     -10.996  19.277  67.415  1.00  0.00    -0.337 C  
HETATM   36  H1  UNL     1     -10.630  20.170  69.224  1.00  0.00     0.000 HD 
HETATM   37  H2  UNL     1      -9.506  20.572  68.029  1.00  0.00     0.000 HD 
HETATM   38  N   UNL     1     -10.100  19.840  68.418  1.00  0.00    -0.442 NA 
ENDBRANCH  34  35
ENDBRANCH  31  34
ENDBRANCH  29  31
ENDBRANCH  18  27
BRANCH  26  39
HETATM   39  O   UNL     1     -11.651  11.500  68.334  1.00  0.00    -0.268 OA 
BRANCH  39  40
HETATM   40  C   UNL     1     -11.881  10.540  69.370  1.00  0.00    -0.199 C  
HETATM   41  H1  UNL     1     -13.073  13.127  71.365  1.00  0.00     0.000 HD 
HETATM   42  O   UNL     1     -10.653  10.035  69.903  1.00  0.00    -0.244 OA 
HETATM   43  H2  UNL     1     -12.513  13.185  69.789  1.00  0.00     0.000 HD 
HETATM   44  N   UNL     1     -12.483  12.670  70.669  1.00  0.00    -0.288 NA 
HETATM   45  C   UNL     1     -12.787  11.241  70.437  1.00  0.00    -0.037 C  
HETATM   46  C   UNL     1     -10.819   9.216  71.008  1.00  0.00    -0.291 C  
HETATM   47  C   UNL     1     -12.868  10.436  71.743  1.00  0.00    -0.561 C  
HETATM   48  C   UNL     1     -11.836   9.368  71.870  1.00  0.00    -0.402 C  
BRANCH  46  49
HETATM   49  C   UNL     1      -9.747   8.168  71.204  1.00  0.00    -0.163 C  
BRANCH  49  50
HETATM   50  N   UNL     1      -9.383   7.472  69.966  1.00  0.00    -0.154 NA 
HETATM   51  H   UNL     1      -8.534   7.860  69.556  1.00  0.00     0.000 HD 
BRANCH  50  52
HETATM   52  C   UNL     1      -9.262   6.019  70.180  1.00  0.00    -0.154 C  
BRANCH  52  53
HETATM   53  C   UNL     1     -10.558   5.444  70.758  1.00  0.00    -0.223 C  
HETATM   54  O   UNL     1     -11.692   5.984  70.085  1.00  0.00    -0.217 OA 
HETATM   55  H   UNL     1     -12.496   5.627  70.444  1.00  0.00     0.000 HD 
ENDBRANCH  52  53
ENDBRANCH  50  52
ENDBRANCH  49  50
ENDBRANCH  46  49
ENDBRANCH  39  40
ENDBRANCH  26  39
ENDBRANCH  15  16
ENDBRANCH   6  15
ENDBRANCH   2   4
TORSDOF 13
ENDMDL
MODEL       89
REMARK 921   NORMALIZED FREE ENERGY PREDICTED BY IDOCK:   -3.68 KCAL/MOL
REMARK 922        TOTAL FREE ENERGY PREDICTED BY IDOCK:   -9.95 KCAL/MOL
REMARK 923 INTER-LIGAND FREE ENERGY PREDICTED BY IDOCK:   -7.99 KCAL/MOL
REMARK 924 INTRA-LIGAND FREE ENERGY PREDICTED BY IDOCK:   -1.95 KCAL/MOL
REMARK 927      BINDING AFFINITY PREDICTED BY RF-SCORE:    0.00 PKD
ROOT
HETATM    1  C   UNL     1     -12.266  15.236  68.509  1.00  0.00     0.059 C  
HETATM    2  N   UNL     1     -11.599  14.902  69.764  1.00  0.00    -0.285 NA 
HETATM    3  H   UNL     1     -11.867  15.567  70.490  1.00  0.00     0.000 HD 
ENDROOT
BRANCH   2   4
HETATM    4  C   UNL     1     -11.805  13.505  70.252  1.00  0.00    -0.257 C  
HETATM    5  C   UNL     1     -11.980  12.491  69.093  1.00  0.00    -0.236 C  
HETATM    6  C   UNL     1     -12.015  11.055  69.660  1.00  0.00    -0.353 C  
HETATM    7  O   UNL     1     -10.947  12.641  68.117  1.00  0.00    -0.216 OA 
HETATM    8  H   UNL     1     -11.054  12.019  67.406  1.00  0.00     0.000 HD 
HETATM    9  O   UNL     1     -14.192  13.673  70.852  1.00  0.00     0.539 OA 
HETATM   10  O   UNL     1     -13.126  10.936  70.550  1.00  0.00    -0.210 OA 
HETATM   11  H   UNL     1     -14.858  13.530  71.514  1.00  0.00     0.000 HD 
HETATM   12  C   UNL     1     -12.984  11.771  71.712  1.00  0.00    -0.361 C  
HETATM   13  C   UNL     1     -12.630  14.073  72.618  1.00  0.00    -0.221 C  
HETATM   14  C   UNL     1     -12.904  13.269  71.342  1.00  0.00    -0.322 C  
BRANCH   6  15
HETATM   15  O   UNL     1     -10.787  10.741  70.321  1.00  0.00    -0.199 OA 
BRANCH  15  16
HETATM   16  C   UNL     1     -10.282   9.409  70.124  1.00  0.00    -0.231 C  
HETATM   17  H1  UNL     1      -6.703   8.595  67.591  1.00  0.00     0.000 HD 
HETATM   18  C   UNL     1     -10.595   8.812  68.733  1.00  0.00    -0.145 C  
HETATM   19  C   UNL     1      -8.746   9.477  70.350  1.00  0.00    -0.223 C  
HETATM   20  H2  UNL     1      -7.959   8.200  66.537  1.00  0.00     0.000 HD 
HETATM   21  C   UNL     1      -8.390   9.779  67.817  1.00  0.00    -0.114 C  
HETATM   22  C   UNL     1      -9.916   9.658  67.642  1.00  0.00    -0.218 C  
HETATM   23  O   UNL     1      -8.202   8.143  70.445  1.00  0.00    -0.109 OA 
HETATM   24  H   UNL     1      -7.262   8.184  70.583  1.00  0.00     0.000 HD 
HETATM   25  N   UNL     1      -7.712   8.515  67.475  1.00  0.00    -0.098 NA 
HETATM   26  C   UNL     1      -8.027  10.299  69.241  1.00  0.00    -0.149 C  
BRANCH  18  27
HETATM   27  N   UNL     1     -10.237   7.395  68.661  1.00  0.00    -0.187 N  
HETATM   28  H   UNL     1      -9.595   7.020  69.360  1.00  0.00     0.000 HD 
HETATM   29  C   UNL     1     -10.723   6.544  67.696  1.00  0.00    -0.307 C  
HETATM   30  O   UNL     1     -11.520   6.878  66.826  1.00  0.00    -0.007 OA 
BRANCH  29  31
HETATM   31  C   UNL     1     -10.207   5.100  67.809  1.00  0.00    -0.132 C  
HETATM   32  H   UNL     1      -9.963   3.548  66.616  1.00  0.00     0.000 HD 
HETATM   33  O   UNL     1     -10.282   4.440  66.545  1.00  0.00    -0.232 OA 
BRANCH  31  34
HETATM   34  C   UNL     1      -8.755   5.074  68.287  1.00  0.00    -0.106 C  
BRANCH  34  35
HETATM   35  C   UNL     1      -7.826   4.449  67.247  1.00  0.00    -0.096 C  
HETATM   36  H1  UNL     1      -6.618   2.802  67.071  1.00  0.00     0.000 HD 
HETATM   37  H2  UNL     1      -7.950   2.561  68.081  1.00  0.00     0.000 HD 
HETATM   38  N   UNL     1      -7.238   3.219  67.764  1.00  0.00    -0.054 NA 
ENDBRANCH  34  35
ENDBRANCH  31  34
ENDBRANCH  29  31
ENDBRANCH  18  27
BRANCH  26  39
HETATM   39  O   UNL     1      -8.362  11.685  69.226  1.00  0.00     0.169 OA 
BRANCH  39  40
HETATM   40  C   UNL     1      -7.579  12.567  68.416  1.00  0.00    -0.129 C  
HETATM   41  H1  UNL     1      -5.138  12.513  70.892  1.00  0.00     0.000 HD 
HETATM   42  O   UNL     1      -8.168  13.869  68.335  1.00  0.00    -0.146 OA 
HETATM   43  H2  UNL     1      -6.604  11.708  70.842  1.00  0.00     0.000 HD 
HETATM   44  N   UNL     1      -6.079  12.513  70.498  1.00  0.00    -0.174 NA 
HETATM   45  C   UNL     1      -6.135  12.568  69.021  1.00  0.00    -0.081 C  
HETATM   46  C   UNL     1      -7.373  14.801  67.686  1.00  0.00    -0.186 C  
HETATM   47  C   UNL     1      -5.267  13.693  68.440  1.00  0.00    -0.098 C  
HETATM   48  C   UNL     1      -6.033  14.742  67.707  1.00  0.00    -0.124 C  
BRANCH  46  49
HETATM   49  C   UNL     1      -8.121  15.918  66.993  1.00  0.00    -0.230 C  
BRANCH  49  50
HETATM   50  N   UNL     1      -9.538  15.617  66.771  1.00  0.00    -0.231 NA 
HETATM   51  H   UNL     1     -10.081  15.725  67.628  1.00  0.00     0.000 HD 
BRANCH  50  52
HETATM   52  C   UNL     1     -10.096  16.428  65.675  1.00  0.00    -0.286 C  
BRANCH  52  53
HETATM   53  C   UNL     1     -11.155  15.642  64.899  1.00  0.00    -0.402 C  
HETATM   54  O   UNL     1     -11.542  16.345  63.722  1.00  0.00    -1.605 OA 
HETATM   55  H   UNL     1     -12.200  15.857  63.241  1.00  0.00     0.000 HD 
ENDBRANCH  52  53
ENDBRANCH  50  52
ENDBRANCH  49  50
ENDBRANCH  46  49
ENDBRANCH  39  40
ENDBRANCH  26  39
ENDBRANCH  15  16
ENDBRANCH   6  15
ENDBRANCH   2   4
TORSDOF 13
ENDMDL
MODEL       90
REMARK 921   NORMALIZED FREE ENERGY PREDICTED BY IDOCK:   -3.67 KCAL/MOL
REMARK 922        TOTAL FREE ENERGY PREDICTED BY IDOCK:   -9.91 KCAL/MOL
REMARK 923 INTER-LIGAND FREE ENERGY PREDICTED BY IDOCK:   -8.05 KCAL/MOL
REMARK 924 INTRA-LIGAND FREE ENERGY PREDICTED BY IDOCK:   -1.86 KCAL/MOL
REMARK 927      BINDING AFFINITY PREDICTED BY RF-SCORE:    0.00 PKD
ROOT
HETATM    1  C   UNL     1      -8.004   6.626  63.591  1.00  0.00    -0.070 C  
HETATM    2  N   UNL     1      -8.761   6.941  64.798  1.00  0.00    -0.340 NA 
HETATM    3  H   UNL     1      -8.734   6.151  65.443  1.00  0.00     0.000 HD 
ENDROOT
BRANCH   2   4
HETATM    4  C   UNL     1      -8.355   8.192  65.506  1.00  0.00    -0.153 C  
HETATM    5  C   UNL     1      -8.090   9.366  64.530  1.00  0.00    -0.136 C  
HETATM    6  C   UNL     1      -7.846  10.664  65.332  1.00  0.00    -0.070 C  
HETATM    7  O   UNL     1      -9.169   9.522  63.605  1.00  0.00    -0.413 OA 
HETATM    8  H   UNL     1      -9.006  10.242  63.007  1.00  0.00     0.000 HD 
HETATM    9  O   UNL     1      -5.992   7.627  65.926  1.00  0.00    -0.037 OA 
HETATM   10  O   UNL     1      -6.697  10.484  66.162  1.00  0.00    -0.111 OA 
HETATM   11  H   UNL     1      -5.289   7.567  66.562  1.00  0.00     0.000 HD 
HETATM   12  C   UNL     1      -6.906   9.480  67.169  1.00  0.00    -0.084 C  
HETATM   13  C   UNL     1      -7.528   7.115  67.686  1.00  0.00    -0.101 C  
HETATM   14  C   UNL     1      -7.196   8.094  66.553  1.00  0.00    -0.080 C  
BRANCH   6  15
HETATM   15  O   UNL     1      -8.997  11.004  66.109  1.00  0.00    -0.179 OA 
BRANCH  15  16
HETATM   16  C   UNL     1      -9.024  12.335  66.654  1.00  0.00    -0.189 C  
HETATM   17  H1  UNL     1     -11.714  13.443  70.034  1.00  0.00     0.000 HD 
HETATM   18  C   UNL     1     -10.267  13.160  66.249  1.00  0.00    -0.293 C  
HETATM   19  C   UNL     1      -8.955  12.184  68.199  1.00  0.00    -0.195 C  
HETATM   20  H2  UNL     1     -12.571  14.043  68.711  1.00  0.00     0.000 HD 
HETATM   21  C   UNL     1     -11.525  12.289  68.322  1.00  0.00    -0.315 C  
HETATM   22  C   UNL     1     -11.537  12.484  66.793  1.00  0.00    -0.446 C  
HETATM   23  O   UNL     1      -8.698  13.468  68.809  1.00  0.00    -0.355 OA 
HETATM   24  H   UNL     1      -8.656  13.376  69.754  1.00  0.00     0.000 HD 
HETATM   25  N   UNL     1     -11.722  13.571  69.023  1.00  0.00    -0.305 NA 
HETATM   26  C   UNL     1     -10.243  11.533  68.782  1.00  0.00    -0.192 C  
BRANCH  18  27
HETATM   27  N   UNL     1     -10.144  14.558  66.663  1.00  0.00    -0.266 N  
HETATM   28  H   UNL     1      -9.767  14.759  67.590  1.00  0.00     0.000 HD 
HETATM   29  C   UNL     1     -10.511  15.615  65.862  1.00  0.00    -0.344 C  
HETATM   30  O   UNL     1     -10.948  15.493  64.723  1.00  0.00    -0.428 OA 
BRANCH  29  31
HETATM   31  C   UNL     1     -10.300  16.996  66.505  1.00  0.00    -0.298 C  
HETATM   32  H   UNL     1     -10.643  17.853  68.250  1.00  0.00     0.000 HD 
HETATM   33  O   UNL     1     -10.773  16.999  67.853  1.00  0.00    -0.356 OA 
BRANCH  31  34
HETATM   34  C   UNL     1      -8.821  17.379  66.506  1.00  0.00    -0.290 C  
BRANCH  34  35
HETATM   35  C   UNL     1      -8.577  18.704  67.230  1.00  0.00    -0.266 C  
HETATM   36  H1  UNL     1      -8.693  20.710  66.825  1.00  0.00     0.000 HD 
HETATM   37  H2  UNL     1      -9.795  19.776  65.949  1.00  0.00     0.000 HD 
HETATM   38  N   UNL     1      -8.855  19.827  66.343  1.00  0.00    -0.366 NA 
ENDBRANCH  34  35
ENDBRANCH  31  34
ENDBRANCH  29  31
ENDBRANCH  18  27
BRANCH  26  39
HETATM   39  O   UNL     1     -10.448  10.179  68.385  1.00  0.00    -0.187 OA 
BRANCH  39  40
HETATM   40  C   UNL     1      -9.973   9.138  69.244  1.00  0.00    -0.187 C  
HETATM   41  H1  UNL     1     -13.088   9.128  70.789  1.00  0.00     0.000 HD 
HETATM   42  O   UNL     1      -8.976   9.617  70.152  1.00  0.00    -0.218 OA 
HETATM   43  H2  UNL     1     -12.552  10.061  69.508  1.00  0.00     0.000 HD 
HETATM   44  N   UNL     1     -12.269   9.521  70.326  1.00  0.00     0.048 NA 
HETATM   45  C   UNL     1     -11.230   8.534  69.955  1.00  0.00    -0.032 C  
HETATM   46  C   UNL     1      -8.593   8.685  71.102  1.00  0.00    -0.181 C  
HETATM   47  C   UNL     1     -10.847   7.614  71.123  1.00  0.00    -0.251 C  
HETATM   48  C   UNL     1      -9.428   7.742  71.563  1.00  0.00    -0.174 C  
BRANCH  46  49
HETATM   49  C   UNL     1      -7.180   8.833  71.621  1.00  0.00    -0.071 C  
BRANCH  49  50
HETATM   50  N   UNL     1      -6.223   7.939  70.962  1.00  0.00    -0.034 NA 
HETATM   51  H   UNL     1      -5.821   8.371  70.130  1.00  0.00     0.000 HD 
BRANCH  50  52
HETATM   52  C   UNL     1      -5.175   7.488  71.895  1.00  0.00    -0.035 C  
BRANCH  52  53
HETATM   53  C   UNL     1      -5.183   5.963  72.028  1.00  0.00    -0.021 C  
HETATM   54  O   UNL     1      -6.294   5.404  71.333  1.00  0.00    -0.032 OA 
HETATM   55  H   UNL     1      -6.299   4.457  71.416  1.00  0.00     0.000 HD 
ENDBRANCH  52  53
ENDBRANCH  50  52
ENDBRANCH  49  50
ENDBRANCH  46  49
ENDBRANCH  39  40
ENDBRANCH  26  39
ENDBRANCH  15  16
ENDBRANCH   6  15
ENDBRANCH   2   4
TORSDOF 13
ENDMDL
MODEL       91
REMARK 921   NORMALIZED FREE ENERGY PREDICTED BY IDOCK:   -3.63 KCAL/MOL
REMARK 922        TOTAL FREE ENERGY PREDICTED BY IDOCK:   -9.86 KCAL/MOL
REMARK 923 INTER-LIGAND FREE ENERGY PREDICTED BY IDOCK:   -7.89 KCAL/MOL
REMARK 924 INTRA-LIGAND FREE ENERGY PREDICTED BY IDOCK:   -1.97 KCAL/MOL
REMARK 927      BINDING AFFINITY PREDICTED BY RF-SCORE:    0.00 PKD
ROOT
HETATM    1  C   UNL     1     -10.827  11.600  64.844  1.00  0.00    -0.301 C  
HETATM    2  N   UNL     1      -9.386  11.834  64.846  1.00  0.00    -0.429 NA 
HETATM    3  H   UNL     1      -9.185  12.773  65.189  1.00  0.00     0.000 HD 
ENDROOT
BRANCH   2   4
HETATM    4  C   UNL     1      -8.571  10.831  65.596  1.00  0.00    -0.180 C  
HETATM    5  C   UNL     1      -7.915  11.431  66.865  1.00  0.00    -0.158 C  
HETATM    6  C   UNL     1      -7.236  10.306  67.679  1.00  0.00    -0.087 C  
HETATM    7  O   UNL     1      -8.872  12.140  67.655  1.00  0.00    -0.158 OA 
HETATM    8  H   UNL     1      -8.469  12.507  68.433  1.00  0.00     0.000 HD 
HETATM    9  O   UNL     1      -6.552  10.865  64.182  1.00  0.00    -0.328 OA 
HETATM   10  O   UNL     1      -6.221   9.703  66.875  1.00  0.00    -0.063 OA 
HETATM   11  H   UNL     1      -5.913  10.360  63.693  1.00  0.00     0.000 HD 
HETATM   12  C   UNL     1      -6.767   9.028  65.728  1.00  0.00    -0.072 C  
HETATM   13  C   UNL     1      -8.171   9.183  63.667  1.00  0.00    -0.174 C  
HETATM   14  C   UNL     1      -7.520   9.997  64.790  1.00  0.00    -0.143 C  
BRANCH   6  15
HETATM   15  O   UNL     1      -8.198   9.341  68.110  1.00  0.00    -0.117 OA 
BRANCH  15  16
HETATM   16  C   UNL     1      -9.150   9.788  69.091  1.00  0.00    -0.165 C  
HETATM   17  H1  UNL     1     -11.199   6.949  71.854  1.00  0.00     0.000 HD 
HETATM   18  C   UNL     1     -10.622   9.482  68.731  1.00  0.00    -0.214 C  
HETATM   19  C   UNL     1      -8.767   9.099  70.430  1.00  0.00    -0.215 C  
HETATM   20  H2  UNL     1     -12.389   7.201  70.686  1.00  0.00     0.000 HD 
HETATM   21  C   UNL     1     -10.450   7.213  69.938  1.00  0.00    -0.223 C  
HETATM   22  C   UNL     1     -10.828   7.960  68.645  1.00  0.00     0.025 C  
HETATM   23  O   UNL     1      -9.494   9.703  71.522  1.00  0.00    -0.242 OA 
HETATM   24  H   UNL     1      -9.260   9.281  72.341  1.00  0.00     0.000 HD 
HETATM   25  N   UNL     1     -11.449   7.443  70.998  1.00  0.00    -0.275 NA 
HETATM   26  C   UNL     1      -8.997   7.561  70.384  1.00  0.00    -0.152 C  
BRANCH  18  27
HETATM   27  N   UNL     1     -11.549  10.132  69.658  1.00  0.00    -0.414 N  
HETATM   28  H   UNL     1     -11.907   9.591  70.446  1.00  0.00     0.000 HD 
HETATM   29  C   UNL     1     -11.963  11.437  69.518  1.00  0.00    -0.341 C  
HETATM   30  O   UNL     1     -11.578  12.186  68.627  1.00  0.00    -0.273 OA 
BRANCH  29  31
HETATM   31  C   UNL     1     -12.944  11.907  70.603  1.00  0.00     0.158 C  
HETATM   32  H   UNL     1     -13.545  11.295  72.381  1.00  0.00     0.000 HD 
HETATM   33  O   UNL     1     -12.938  11.004  71.710  1.00  0.00    -0.455 OA 
BRANCH  31  34
HETATM   34  C   UNL     1     -12.574  13.301  71.110  1.00  0.00    -0.412 C  
BRANCH  34  35
HETATM   35  C   UNL     1     -13.743  13.974  71.829  1.00  0.00    -0.395 C  
HETATM   36  H1  UNL     1     -14.661  15.807  71.868  1.00  0.00     0.000 HD 
HETATM   37  H2  UNL     1     -13.968  15.427  70.375  1.00  0.00     0.000 HD 
HETATM   38  N   UNL     1     -13.882  15.357  71.389  1.00  0.00    -0.510 NA 
ENDBRANCH  34  35
ENDBRANCH  31  34
ENDBRANCH  29  31
ENDBRANCH  18  27
BRANCH  26  39
HETATM   39  O   UNL     1      -8.152   6.867  69.469  1.00  0.00    -0.125 OA 
BRANCH  39  40
HETATM   40  C   UNL     1      -7.944   5.464  69.662  1.00  0.00    -0.095 C  
HETATM   41  H1  UNL     1      -5.010   6.238  71.362  1.00  0.00     0.000 HD 
HETATM   42  O   UNL     1      -7.638   4.802  68.431  1.00  0.00    -0.075 OA 
HETATM   43  H2  UNL     1      -6.132   7.271  70.675  1.00  0.00     0.000 HD 
HETATM   44  N   UNL     1      -5.740   6.329  70.656  1.00  0.00    -0.018 NA 
HETATM   45  C   UNL     1      -6.822   5.324  70.745  1.00  0.00    -0.047 C  
HETATM   46  C   UNL     1      -7.281   3.473  68.586  1.00  0.00    -0.050 C  
HETATM   47  C   UNL     1      -6.286   3.888  70.837  1.00  0.00    -0.018 C  
HETATM   48  C   UNL     1      -6.666   3.017  69.688  1.00  0.00    -0.034 C  
BRANCH  46  49
HETATM   49  C   UNL     1      -7.589   2.578  67.407  1.00  0.00    -0.061 C  
BRANCH  49  50
HETATM   50  N   UNL     1      -7.683   3.303  66.137  1.00  0.00    -0.077 NA 
HETATM   51  H   UNL     1      -6.901   3.080  65.521  1.00  0.00     0.000 HD 
BRANCH  50  52
HETATM   52  C   UNL     1      -8.976   3.064  65.473  1.00  0.00    -0.145 C  
BRANCH  52  53
HETATM   53  C   UNL     1      -9.520   4.356  64.857  1.00  0.00    -0.162 C  
HETATM   54  O   UNL     1     -10.931   4.445  65.040  1.00  0.00    -0.670 OA 
HETATM   55  H   UNL     1     -11.268   5.246  64.657  1.00  0.00     0.000 HD 
ENDBRANCH  52  53
ENDBRANCH  50  52
ENDBRANCH  49  50
ENDBRANCH  46  49
ENDBRANCH  39  40
ENDBRANCH  26  39
ENDBRANCH  15  16
ENDBRANCH   6  15
ENDBRANCH   2   4
TORSDOF 13
ENDMDL
MODEL       92
REMARK 921   NORMALIZED FREE ENERGY PREDICTED BY IDOCK:   -3.61 KCAL/MOL
REMARK 922        TOTAL FREE ENERGY PREDICTED BY IDOCK:   -9.81 KCAL/MOL
REMARK 923 INTER-LIGAND FREE ENERGY PREDICTED BY IDOCK:   -8.40 KCAL/MOL
REMARK 924 INTRA-LIGAND FREE ENERGY PREDICTED BY IDOCK:   -1.41 KCAL/MOL
REMARK 927      BINDING AFFINITY PREDICTED BY RF-SCORE:    0.00 PKD
ROOT
HETATM    1  C   UNL     1      -8.300   5.862  74.053  1.00  0.00    -0.113 C  
HETATM    2  N   UNL     1      -7.909   6.124  72.672  1.00  0.00    -0.103 NA 
HETATM    3  H   UNL     1      -7.504   5.283  72.258  1.00  0.00     0.000 HD 
ENDROOT
BRANCH   2   4
HETATM    4  C   UNL     1      -8.987   6.659  71.787  1.00  0.00    -0.140 C  
HETATM    5  C   UNL     1      -9.651   7.934  72.365  1.00  0.00    -0.210 C  
HETATM    6  C   UNL     1     -10.628   8.528  71.326  1.00  0.00    -0.234 C  
HETATM    7  O   UNL     1      -8.667   8.893  72.762  1.00  0.00    -0.347 OA 
HETATM    8  H   UNL     1      -9.075   9.674  73.117  1.00  0.00     0.000 HD 
HETATM    9  O   UNL     1     -10.785   5.090  72.407  1.00  0.00    -0.215 OA 
HETATM   10  O   UNL     1     -11.644   7.564  71.045  1.00  0.00    -0.274 OA 
HETATM   11  H   UNL     1     -11.452   4.483  72.106  1.00  0.00     0.000 HD 
HETATM   12  C   UNL     1     -11.118   6.390  70.404  1.00  0.00    -0.339 C  
HETATM   13  C   UNL     1      -9.486   4.499  70.488  1.00  0.00    -0.246 C  
HETATM   14  C   UNL     1     -10.085   5.660  71.290  1.00  0.00    -0.206 C  
BRANCH   6  15
HETATM   15  O   UNL     1      -9.933   8.910  70.136  1.00  0.00    -0.174 OA 
BRANCH  15  16
HETATM   16  C   UNL     1     -10.303  10.175  69.563  1.00  0.00    -0.240 C  
HETATM   17  H1  UNL     1      -9.874  11.005  65.202  1.00  0.00     0.000 HD 
HETATM   18  C   UNL     1      -9.105  11.077  69.190  1.00  0.00     0.010 C  
HETATM   19  C   UNL     1     -11.155   9.860  68.303  1.00  0.00    -0.150 C  
HETATM   20  H2  UNL     1      -8.505  11.768  65.827  1.00  0.00     0.000 HD 
HETATM   21  C   UNL     1      -9.045  10.033  66.836  1.00  0.00    -0.139 C  
HETATM   22  C   UNL     1      -8.254  10.387  68.110  1.00  0.00    -0.116 C  
HETATM   23  O   UNL     1     -11.798  11.064  67.828  1.00  0.00    -0.605 OA 
HETATM   24  H   UNL     1     -12.319  10.872  67.057  1.00  0.00     0.000 HD 
HETATM   25  N   UNL     1      -9.350  11.239  66.045  1.00  0.00    -0.208 NA 
HETATM   26  C   UNL     1     -10.313   9.193  67.178  1.00  0.00    -0.267 C  
BRANCH  18  27
HETATM   27  N   UNL     1      -9.541  12.419  68.802  1.00  0.00    -0.410 N  
HETATM   28  H   UNL     1     -10.541  12.597  68.705  1.00  0.00     0.000 HD 
HETATM   29  C   UNL     1      -8.666  13.454  68.562  1.00  0.00    -0.071 C  
HETATM   30  O   UNL     1      -7.448  13.363  68.676  1.00  0.00    -0.114 OA 
BRANCH  29  31
HETATM   31  C   UNL     1      -9.345  14.774  68.161  1.00  0.00    -0.197 C  
HETATM   32  H   UNL     1     -10.404  16.187  69.042  1.00  0.00     0.000 HD 
HETATM   33  O   UNL     1      -9.984  15.372  69.290  1.00  0.00    -0.225 OA 
BRANCH  31  34
HETATM   34  C   UNL     1      -8.327  15.764  67.597  1.00  0.00    -0.170 C  
BRANCH  34  35
HETATM   35  C   UNL     1      -7.997  16.872  68.597  1.00  0.00    -0.256 C  
HETATM   36  H1  UNL     1      -6.359  17.947  69.201  1.00  0.00     0.000 HD 
HETATM   37  H2  UNL     1      -6.289  17.452  67.587  1.00  0.00     0.000 HD 
HETATM   38  N   UNL     1      -6.579  17.209  68.534  1.00  0.00    -0.161 NA 
ENDBRANCH  34  35
ENDBRANCH  31  34
ENDBRANCH  29  31
ENDBRANCH  18  27
BRANCH  26  39
HETATM   39  O   UNL     1      -9.820   7.895  67.504  1.00  0.00    -0.150 OA 
BRANCH  39  40
HETATM   40  C   UNL     1      -9.291   7.082  66.453  1.00  0.00    -0.138 C  
HETATM   41  H1  UNL     1      -6.920   5.892  68.701  1.00  0.00     0.000 HD 
HETATM   42  O   UNL     1      -8.658   7.873  65.443  1.00  0.00    -0.151 OA 
HETATM   43  H2  UNL     1      -8.159   6.986  68.959  1.00  0.00     0.000 HD 
HETATM   44  N   UNL     1      -7.543   6.570  68.261  1.00  0.00    -0.101 NA 
HETATM   45  C   UNL     1      -8.335   6.042  67.128  1.00  0.00    -0.105 C  
HETATM   46  C   UNL     1      -8.000   7.126  64.480  1.00  0.00    -0.104 C  
HETATM   47  C   UNL     1      -7.469   5.301  66.098  1.00  0.00    -0.083 C  
HETATM   48  C   UNL     1      -7.450   5.931  64.747  1.00  0.00    -0.078 C  
BRANCH  46  49
HETATM   49  C   UNL     1      -7.901   7.771  63.115  1.00  0.00    -0.135 C  
BRANCH  49  50
HETATM   50  N   UNL     1      -9.063   8.599  62.780  1.00  0.00    -0.391 NA 
HETATM   51  H   UNL     1      -9.820   8.468  63.450  1.00  0.00     0.000 HD 
BRANCH  50  52
HETATM   52  C   UNL     1      -8.694  10.020  62.655  1.00  0.00    -0.210 C  
BRANCH  52  53
HETATM   53  C   UNL     1      -9.919  10.920  62.834  1.00  0.00    -0.210 C  
HETATM   54  O   UNL     1      -9.543  12.176  63.393  1.00  0.00    -0.628 OA 
HETATM   55  H   UNL     1     -10.304  12.734  63.505  1.00  0.00     0.000 HD 
ENDBRANCH  52  53
ENDBRANCH  50  52
ENDBRANCH  49  50
ENDBRANCH  46  49
ENDBRANCH  39  40
ENDBRANCH  26  39
ENDBRANCH  15  16
ENDBRANCH   6  15
ENDBRANCH   2   4
TORSDOF 13
ENDMDL
MODEL       93
REMARK 921   NORMALIZED FREE ENERGY PREDICTED BY IDOCK:   -3.56 KCAL/MOL
REMARK 922        TOTAL FREE ENERGY PREDICTED BY IDOCK:   -9.72 KCAL/MOL
REMARK 923 INTER-LIGAND FREE ENERGY PREDICTED BY IDOCK:   -7.66 KCAL/MOL
REMARK 924 INTRA-LIGAND FREE ENERGY PREDICTED BY IDOCK:   -2.06 KCAL/MOL
REMARK 927      BINDING AFFINITY PREDICTED BY RF-SCORE:    0.00 PKD
ROOT
HETATM    1  C   UNL     1      -9.978   4.266  71.438  1.00  0.00    -0.168 C  
HETATM    2  N   UNL     1      -9.268   5.335  72.135  1.00  0.00    -0.139 NA 
HETATM    3  H   UNL     1      -8.299   5.061  72.300  1.00  0.00     0.000 HD 
ENDROOT
BRANCH   2   4
HETATM    4  C   UNL     1      -9.315   6.675  71.478  1.00  0.00    -0.153 C  
HETATM    5  C   UNL     1      -7.917   7.160  71.018  1.00  0.00    -0.103 C  
HETATM    6  C   UNL     1      -8.061   8.462  70.199  1.00  0.00    -0.108 C  
HETATM    7  O   UNL     1      -7.240   6.147  70.270  1.00  0.00    -0.078 OA 
HETATM    8  H   UNL     1      -6.383   6.444  69.989  1.00  0.00     0.000 HD 
HETATM    9  O   UNL     1      -9.454   8.074  73.504  1.00  0.00    -0.273 OA 
HETATM   10  O   UNL     1      -8.649   9.466  71.028  1.00  0.00    -0.274 OA 
HETATM   11  H   UNL     1      -9.908   8.774  73.959  1.00  0.00     0.000 HD 
HETATM   12  C   UNL     1      -9.996   9.136  71.409  1.00  0.00    -0.303 C  
HETATM   13  C   UNL     1     -11.535   7.487  72.483  1.00  0.00    -0.376 C  
HETATM   14  C   UNL     1     -10.063   7.828  72.227  1.00  0.00    -0.220 C  
BRANCH   6  15
HETATM   15  O   UNL     1      -8.844   8.238  69.024  1.00  0.00    -0.142 OA 
BRANCH  15  16
HETATM   16  C   UNL     1      -8.112   8.019  67.806  1.00  0.00    -0.128 C  
HETATM   17  H1  UNL     1      -8.842  10.461  64.146  1.00  0.00     0.000 HD 
HETATM   18  C   UNL     1      -8.920   7.303  66.700  1.00  0.00    -0.150 C  
HETATM   19  C   UNL     1      -7.641   9.416  67.313  1.00  0.00    -0.091 C  
HETATM   20  H2  UNL     1      -9.709   9.057  63.794  1.00  0.00     0.000 HD 
HETATM   21  C   UNL     1      -9.722   9.581  65.805  1.00  0.00    -0.287 C  
HETATM   22  C   UNL     1     -10.120   8.174  66.290  1.00  0.00    -0.074 C  
HETATM   23  O   UNL     1      -6.670   9.264  66.255  1.00  0.00    -0.072 OA 
HETATM   24  H   UNL     1      -6.382  10.119  65.954  1.00  0.00     0.000 HD 
HETATM   25  N   UNL     1      -9.105   9.530  64.467  1.00  0.00    -0.223 NA 
HETATM   26  C   UNL     1      -8.832  10.308  66.858  1.00  0.00    -0.132 C  
BRANCH  18  27
HETATM   27  N   UNL     1      -8.071   6.931  65.568  1.00  0.00    -0.126 N  
HETATM   28  H   UNL     1      -7.608   7.673  65.043  1.00  0.00     0.000 HD 
HETATM   29  C   UNL     1      -7.868   5.627  65.176  1.00  0.00    -0.099 C  
HETATM   30  O   UNL     1      -8.351   4.656  65.748  1.00  0.00    -0.113 OA 
BRANCH  29  31
HETATM   31  C   UNL     1      -6.945   5.472  63.956  1.00  0.00    -0.047 C  
HETATM   32  H   UNL     1      -5.222   4.604  63.542  1.00  0.00     0.000 HD 
HETATM   33  O   UNL     1      -5.793   4.700  64.296  1.00  0.00    -0.017 OA 
BRANCH  31  34
HETATM   34  C   UNL     1      -7.672   4.781  62.803  1.00  0.00    -0.063 C  
BRANCH  34  35
HETATM   35  C   UNL     1      -7.132   3.374  62.552  1.00  0.00    -0.036 C  
HETATM   36  H1  UNL     1      -7.722   1.434  62.856  1.00  0.00     0.000 HD 
HETATM   37  H2  UNL     1      -9.006   2.504  62.612  1.00  0.00     0.000 HD 
HETATM   38  N   UNL     1      -8.082   2.373  63.023  1.00  0.00    -0.068 NA 
ENDBRANCH  34  35
ENDBRANCH  31  34
ENDBRANCH  29  31
ENDBRANCH  18  27
BRANCH  26  39
HETATM   39  O   UNL     1      -9.725  10.676  67.907  1.00  0.00    -0.158 OA 
BRANCH  39  40
HETATM   40  C   UNL     1      -9.801  12.054  68.286  1.00  0.00    -0.204 C  
HETATM   41  H1  UNL     1     -13.069  11.483  69.330  1.00  0.00     0.000 HD 
HETATM   42  O   UNL     1      -9.794  12.915  67.144  1.00  0.00    -0.217 OA 
HETATM   43  H2  UNL     1     -11.967  10.403  68.681  1.00  0.00     0.000 HD 
HETATM   44  N   UNL     1     -12.236  11.385  68.750  1.00  0.00    -0.494 NA 
HETATM   45  C   UNL     1     -11.079  12.204  69.177  1.00  0.00    -0.205 C  
HETATM   46  C   UNL     1     -10.016  14.248  67.449  1.00  0.00    -0.242 C  
HETATM   47  C   UNL     1     -11.453  13.675  69.408  1.00  0.00    -0.343 C  
HETATM   48  C   UNL     1     -10.767  14.632  68.492  1.00  0.00    -0.248 C  
BRANCH  46  49
HETATM   49  C   UNL     1      -9.393  15.243  66.496  1.00  0.00    -0.281 C  
BRANCH  49  50
HETATM   50  N   UNL     1     -10.373  16.121  65.851  1.00  0.00    -0.350 NA 
HETATM   51  H   UNL     1     -11.306  15.710  65.860  1.00  0.00     0.000 HD 
BRANCH  50  52
HETATM   52  C   UNL     1     -10.371  17.466  66.453  1.00  0.00    -0.317 C  
BRANCH  52  53
HETATM   53  C   UNL     1      -8.954  17.881  66.856  1.00  0.00    -0.257 C  
HETATM   54  O   UNL     1      -8.899  19.279  67.132  1.00  0.00    -0.283 OA 
HETATM   55  H   UNL     1      -8.019  19.536  67.381  1.00  0.00     0.000 HD 
ENDBRANCH  52  53
ENDBRANCH  50  52
ENDBRANCH  49  50
ENDBRANCH  46  49
ENDBRANCH  39  40
ENDBRANCH  26  39
ENDBRANCH  15  16
ENDBRANCH   6  15
ENDBRANCH   2   4
TORSDOF 13
ENDMDL
MODEL       94
REMARK 921   NORMALIZED FREE ENERGY PREDICTED BY IDOCK:   -3.55 KCAL/MOL
REMARK 922        TOTAL FREE ENERGY PREDICTED BY IDOCK:   -9.72 KCAL/MOL
REMARK 923 INTER-LIGAND FREE ENERGY PREDICTED BY IDOCK:   -8.43 KCAL/MOL
REMARK 924 INTRA-LIGAND FREE ENERGY PREDICTED BY IDOCK:   -1.28 KCAL/MOL
REMARK 927      BINDING AFFINITY PREDICTED BY RF-SCORE:    0.00 PKD
ROOT
HETATM    1  C   UNL     1      -5.315  10.743  65.839  1.00  0.00    -0.130 C  
HETATM    2  N   UNL     1      -6.631  10.893  65.224  1.00  0.00    -0.365 NA 
HETATM    3  H   UNL     1      -6.690  10.319  64.383  1.00  0.00     0.000 HD 
ENDROOT
BRANCH   2   4
HETATM    4  C   UNL     1      -7.795  10.613  66.117  1.00  0.00    -0.152 C  
HETATM    5  C   UNL     1      -8.593   9.360  65.675  1.00  0.00    -0.142 C  
HETATM    6  C   UNL     1      -9.671   9.031  66.733  1.00  0.00    -0.216 C  
HETATM    7  O   UNL     1      -7.724   8.247  65.453  1.00  0.00    -0.093 OA 
HETATM    8  H   UNL     1      -8.214   7.479  65.182  1.00  0.00     0.000 HD 
HETATM    9  O   UNL     1      -9.363  12.288  65.213  1.00  0.00    -0.436 OA 
HETATM   10  O   UNL     1     -10.568  10.137  66.838  1.00  0.00    -0.238 OA 
HETATM   11  H   UNL     1      -9.958  13.004  65.401  1.00  0.00     0.000 HD 
HETATM   12  C   UNL     1      -9.920  11.315  67.348  1.00  0.00    -0.182 C  
HETATM   13  C   UNL     1      -8.064  12.970  67.102  1.00  0.00    -0.114 C  
HETATM   14  C   UNL     1      -8.776  11.792  66.427  1.00  0.00    -0.147 C  
BRANCH   6  15
HETATM   15  O   UNL     1      -9.068   8.731  67.994  1.00  0.00    -0.139 OA 
BRANCH  15  16
HETATM   16  C   UNL     1      -9.797   9.148  69.161  1.00  0.00    -0.171 C  
HETATM   17  H1  UNL     1     -10.127   6.565  72.782  1.00  0.00     0.000 HD 
HETATM   18  C   UNL     1     -11.165   8.449  69.336  1.00  0.00     0.227 C  
HETATM   19  C   UNL     1      -8.883   8.860  70.384  1.00  0.00    -0.181 C  
HETATM   20  H2  UNL     1     -11.615   6.291  72.036  1.00  0.00     0.000 HD 
HETATM   21  C   UNL     1     -10.041   6.583  70.711  1.00  0.00    -0.185 C  
HETATM   22  C   UNL     1     -10.954   6.936  69.521  1.00  0.00    -0.289 C  
HETATM   23  O   UNL     1      -9.419   9.500  71.563  1.00  0.00    -0.279 OA 
HETATM   24  H   UNL     1      -8.860   9.324  72.311  1.00  0.00     0.000 HD 
HETATM   25  N   UNL     1     -10.731   6.799  71.995  1.00  0.00    -0.214 NA 
HETATM   26  C   UNL     1      -8.679   7.335  70.617  1.00  0.00    -0.147 C  
BRANCH  18  27
HETATM   27  N   UNL     1     -11.944   9.052  70.419  1.00  0.00    -0.474 N  
HETATM   28  H   UNL     1     -11.971   8.577  71.321  1.00  0.00     0.000 HD 
HETATM   29  C   UNL     1     -12.642  10.229  70.277  1.00  0.00    -0.144 C  
HETATM   30  O   UNL     1     -12.659  10.898  69.249  1.00  0.00    -0.356 OA 
BRANCH  29  31
HETATM   31  C   UNL     1     -13.394  10.672  71.543  1.00  0.00    -0.262 C  
HETATM   32  H   UNL     1     -13.727   9.966  73.356  1.00  0.00     0.000 HD 
HETATM   33  O   UNL     1     -13.261   9.692  72.573  1.00  0.00    -0.378 OA 
BRANCH  31  34
HETATM   34  C   UNL     1     -12.854  12.004  72.064  1.00  0.00    -0.251 C  
BRANCH  34  35
HETATM   35  C   UNL     1     -13.960  13.049  72.207  1.00  0.00    -0.325 C  
HETATM   36  H1  UNL     1     -14.195  14.925  72.999  1.00  0.00     0.000 HD 
HETATM   37  H2  UNL     1     -12.629  14.612  72.450  1.00  0.00     0.000 HD 
HETATM   38  N   UNL     1     -13.458  14.228  72.903  1.00  0.00    -0.647 NA 
ENDBRANCH  34  35
ENDBRANCH  31  34
ENDBRANCH  29  31
ENDBRANCH  18  27
BRANCH  26  39
HETATM   39  O   UNL     1      -7.960   6.673  69.578  1.00  0.00    -0.113 OA 
BRANCH  39  40
HETATM   40  C   UNL     1      -7.973   5.243  69.544  1.00  0.00    -0.088 C  
HETATM   41  H1  UNL     1      -4.514   5.304  69.903  1.00  0.00     0.000 HD 
HETATM   42  O   UNL     1      -8.324   4.749  68.248  1.00  0.00    -0.091 OA 
HETATM   43  H2  UNL     1      -5.590   6.585  69.846  1.00  0.00     0.000 HD 
HETATM   44  N   UNL     1      -5.433   5.611  69.583  1.00  0.00    -0.004 NA 
HETATM   45  C   UNL     1      -6.564   4.771  70.035  1.00  0.00    -0.036 C  
HETATM   46  C   UNL     1      -8.204   3.374  68.123  1.00  0.00    -0.078 C  
HETATM   47  C   UNL     1      -6.330   3.277  69.769  1.00  0.00    -0.029 C  
HETATM   48  C   UNL     1      -7.303   2.665  68.818  1.00  0.00    -0.048 C  
BRANCH  46  49
HETATM   49  C   UNL     1      -9.129   2.734  67.113  1.00  0.00    -0.165 C  
BRANCH  49  50
HETATM   50  N   UNL     1      -8.556   2.660  65.766  1.00  0.00    -0.105 NA 
HETATM   51  H   UNL     1      -8.191   1.729  65.567  1.00  0.00     0.000 HD 
BRANCH  50  52
HETATM   52  C   UNL     1      -9.526   3.089  64.743  1.00  0.00    -0.143 C  
BRANCH  52  53
HETATM   53  C   UNL     1     -10.305   4.320  65.213  1.00  0.00    -0.201 C  
HETATM   54  O   UNL     1     -11.617   4.327  64.655  1.00  0.00    -0.901 OA 
HETATM   55  H   UNL     1     -12.100   5.092  64.946  1.00  0.00     0.000 HD 
ENDBRANCH  52  53
ENDBRANCH  50  52
ENDBRANCH  49  50
ENDBRANCH  46  49
ENDBRANCH  39  40
ENDBRANCH  26  39
ENDBRANCH  15  16
ENDBRANCH   6  15
ENDBRANCH   2   4
TORSDOF 13
ENDMDL
MODEL       95
REMARK 921   NORMALIZED FREE ENERGY PREDICTED BY IDOCK:   -3.55 KCAL/MOL
REMARK 922        TOTAL FREE ENERGY PREDICTED BY IDOCK:   -9.71 KCAL/MOL
REMARK 923 INTER-LIGAND FREE ENERGY PREDICTED BY IDOCK:   -7.50 KCAL/MOL
REMARK 924 INTRA-LIGAND FREE ENERGY PREDICTED BY IDOCK:   -2.21 KCAL/MOL
REMARK 927      BINDING AFFINITY PREDICTED BY RF-SCORE:    0.00 PKD
ROOT
HETATM    1  C   UNL     1      -8.268   3.660  71.913  1.00  0.00    -0.071 C  
HETATM    2  N   UNL     1      -7.480   4.785  72.406  1.00  0.00    -0.083 NA 
HETATM    3  H   UNL     1      -6.488   4.615  72.241  1.00  0.00     0.000 HD 
ENDROOT
BRANCH   2   4
HETATM    4  C   UNL     1      -7.865   6.126  71.872  1.00  0.00    -0.102 C  
HETATM    5  C   UNL     1      -6.788   6.719  70.928  1.00  0.00    -0.059 C  
HETATM    6  C   UNL     1      -7.323   8.016  70.281  1.00  0.00    -0.060 C  
HETATM    7  O   UNL     1      -6.390   5.769  69.938  1.00  0.00    -0.028 OA 
HETATM    8  H   UNL     1      -5.729   6.133  69.360  1.00  0.00     0.000 HD 
HETATM    9  O   UNL     1      -7.299   7.487  73.849  1.00  0.00    -0.093 OA 
HETATM   10  O   UNL     1      -7.608   8.964  71.311  1.00  0.00    -0.113 OA 
HETATM   11  H   UNL     1      -7.586   8.145  74.471  1.00  0.00     0.000 HD 
HETATM   12  C   UNL     1      -8.678   8.529  72.168  1.00  0.00    -0.197 C  
HETATM   13  C   UNL     1      -9.570   6.757  73.686  1.00  0.00    -0.224 C  
HETATM   14  C   UNL     1      -8.338   7.211  72.896  1.00  0.00    -0.106 C  
BRANCH   6  15
HETATM   15  O   UNL     1      -8.483   7.747  69.490  1.00  0.00    -0.128 OA 
BRANCH  15  16
HETATM   16  C   UNL     1      -8.245   7.356  68.127  1.00  0.00    -0.124 C  
HETATM   17  H1  UNL     1      -9.206  10.043  64.700  1.00  0.00     0.000 HD 
HETATM   18  C   UNL     1      -9.523   6.976  67.344  1.00  0.00    -0.133 C  
HETATM   19  C   UNL     1      -7.526   8.549  67.440  1.00  0.00    -0.093 C  
HETATM   20  H2  UNL     1     -10.533   9.002  64.694  1.00  0.00     0.000 HD 
HETATM   21  C   UNL     1      -9.794   9.424  66.590  1.00  0.00    -0.245 C  
HETATM   22  C   UNL     1     -10.453   8.197  67.249  1.00  0.00    -0.379 C  
HETATM   23  O   UNL     1      -7.004   8.139  66.157  1.00  0.00    -0.057 OA 
HETATM   24  H   UNL     1      -6.564   8.869  65.737  1.00  0.00     0.000 HD 
HETATM   25  N   UNL     1      -9.643   9.232  65.136  1.00  0.00    -0.141 NA 
HETATM   26  C   UNL     1      -8.454   9.790  67.298  1.00  0.00    -0.125 C  
BRANCH  18  27
HETATM   27  N   UNL     1      -9.203   6.399  66.038  1.00  0.00    -0.311 N  
HETATM   28  H   UNL     1      -8.667   6.960  65.376  1.00  0.00     0.000 HD 
HETATM   29  C   UNL     1      -9.592   5.134  65.659  1.00  0.00    -0.087 C  
HETATM   30  O   UNL     1     -10.214   4.362  66.381  1.00  0.00    -0.240 OA 
BRANCH  29  31
HETATM   31  C   UNL     1      -9.152   4.738  64.240  1.00  0.00    -0.069 C  
HETATM   32  H   UNL     1      -7.533   4.904  63.123  1.00  0.00     0.000 HD 
HETATM   33  O   UNL     1      -7.805   5.148  64.000  1.00  0.00    -0.082 OA 
BRANCH  31  34
HETATM   34  C   UNL     1      -9.243   3.225  64.040  1.00  0.00    -0.123 C  
BRANCH  34  35
HETATM   35  C   UNL     1      -8.236   2.727  63.004  1.00  0.00    -0.074 C  
HETATM   36  H1  UNL     1      -6.765   1.306  62.864  1.00  0.00     0.000 HD 
HETATM   37  H2  UNL     1      -8.020   0.882  63.912  1.00  0.00     0.000 HD 
HETATM   38  N   UNL     1      -7.437   1.638  63.554  1.00  0.00    -0.051 NA 
ENDBRANCH  34  35
ENDBRANCH  31  34
ENDBRANCH  29  31
ENDBRANCH  18  27
BRANCH  26  39
HETATM   39  O   UNL     1      -8.839  10.381  68.537  1.00  0.00    -0.130 OA 
BRANCH  39  40
HETATM   40  C   UNL     1     -10.137  10.976  68.635  1.00  0.00    -0.197 C  
HETATM   41  H1  UNL     1      -8.631  14.084  68.223  1.00  0.00     0.000 HD 
HETATM   42  O   UNL     1     -10.671  10.861  69.957  1.00  0.00    -0.175 OA 
HETATM   43  H2  UNL     1      -7.926  12.566  68.239  1.00  0.00     0.000 HD 
HETATM   44  N   UNL     1      -8.727  13.120  68.542  1.00  0.00    -0.106 NA 
HETATM   45  C   UNL     1      -9.989  12.455  68.145  1.00  0.00    -0.215 C  
HETATM   46  C   UNL     1     -11.858  11.551  70.141  1.00  0.00    -0.356 C  
HETATM   47  C   UNL     1     -11.228  13.299  68.475  1.00  0.00    -0.304 C  
HETATM   48  C   UNL     1     -12.150  12.673  69.466  1.00  0.00    -0.253 C  
BRANCH  46  49
HETATM   49  C   UNL     1     -12.783  10.980  71.192  1.00  0.00    -0.419 C  
BRANCH  49  50
HETATM   50  N   UNL     1     -13.341   9.675  70.827  1.00  0.00    -0.603 NA 
HETATM   51  H   UNL     1     -12.905   9.306  69.982  1.00  0.00     0.000 HD 
BRANCH  50  52
HETATM   52  C   UNL     1     -13.250   8.718  71.943  1.00  0.00    -0.381 C  
BRANCH  52  53
HETATM   53  C   UNL     1     -12.307   7.563  71.595  1.00  0.00    -0.333 C  
HETATM   54  O   UNL     1     -11.565   7.858  70.414  1.00  0.00    -0.431 OA 
HETATM   55  H   UNL     1     -10.981   7.141  70.198  1.00  0.00     0.000 HD 
ENDBRANCH  52  53
ENDBRANCH  50  52
ENDBRANCH  49  50
ENDBRANCH  46  49
ENDBRANCH  39  40
ENDBRANCH  26  39
ENDBRANCH  15  16
ENDBRANCH   6  15
ENDBRANCH   2   4
TORSDOF 13
ENDMDL
MODEL       96
REMARK 921   NORMALIZED FREE ENERGY PREDICTED BY IDOCK:   -3.55 KCAL/MOL
REMARK 922        TOTAL FREE ENERGY PREDICTED BY IDOCK:   -9.71 KCAL/MOL
REMARK 923 INTER-LIGAND FREE ENERGY PREDICTED BY IDOCK:  -10.13 KCAL/MOL
REMARK 924 INTRA-LIGAND FREE ENERGY PREDICTED BY IDOCK:    0.42 KCAL/MOL
REMARK 927      BINDING AFFINITY PREDICTED BY RF-SCORE:    0.00 PKD
ROOT
HETATM    1  C   UNL     1      -6.998   7.717  68.462  1.00  0.00    -0.071 C  
HETATM    2  N   UNL     1      -7.724   7.668  67.197  1.00  0.00    -0.110 NA 
HETATM    3  H   UNL     1      -8.481   6.987  67.256  1.00  0.00     0.000 HD 
ENDROOT
BRANCH   2   4
HETATM    4  C   UNL     1      -8.251   8.976  66.705  1.00  0.00    -0.118 C  
HETATM    5  C   UNL     1      -9.498   8.811  65.801  1.00  0.00    -0.169 C  
HETATM    6  C   UNL     1     -10.089  10.200  65.471  1.00  0.00    -0.268 C  
HETATM    7  O   UNL     1     -10.472   7.964  66.415  1.00  0.00    -0.464 OA 
HETATM    8  H   UNL     1     -11.237   7.863  65.861  1.00  0.00     0.000 HD 
HETATM    9  O   UNL     1      -6.628   9.367  64.890  1.00  0.00    -0.077 OA 
HETATM   10  O   UNL     1      -9.107  10.965  64.770  1.00  0.00    -0.200 OA 
HETATM   11  H   UNL     1      -6.012   9.969  64.488  1.00  0.00     0.000 HD 
HETATM   12  C   UNL     1      -7.959  11.254  65.585  1.00  0.00     0.223 C  
HETATM   13  C   UNL     1      -6.106  10.359  67.002  1.00  0.00    -0.052 C  
HETATM   14  C   UNL     1      -7.236   9.968  66.043  1.00  0.00    -0.112 C  
BRANCH   6  15
HETATM   15  O   UNL     1     -10.510  10.868  66.664  1.00  0.00    -0.237 OA 
BRANCH  15  16
HETATM   16  C   UNL     1      -9.853  12.112  66.960  1.00  0.00    -0.203 C  
HETATM   17  H1  UNL     1     -11.599  15.084  69.790  1.00  0.00     0.000 HD 
HETATM   18  C   UNL     1     -10.498  13.345  66.288  1.00  0.00    -0.289 C  
HETATM   19  C   UNL     1      -9.872  12.268  68.506  1.00  0.00    -0.153 C  
HETATM   20  H2  UNL     1     -12.028  15.746  68.300  1.00  0.00     0.000 HD 
HETATM   21  C   UNL     1     -12.027  13.668  68.337  1.00  0.00    -0.356 C  
HETATM   22  C   UNL     1     -11.936  13.524  66.806  1.00  0.00    -0.453 C  
HETATM   23  O   UNL     1      -8.994  13.343  68.905  1.00  0.00    -0.384 OA 
HETATM   24  H   UNL     1      -9.006  13.439  69.850  1.00  0.00     0.000 HD 
HETATM   25  N   UNL     1     -11.540  14.988  68.777  1.00  0.00    -0.319 NA 
HETATM   26  C   UNL     1     -11.311  12.484  69.056  1.00  0.00    -0.290 C  
BRANCH  18  27
HETATM   27  N   UNL     1      -9.678  14.544  66.461  1.00  0.00    -0.273 N  
HETATM   28  H   UNL     1      -8.997  14.562  67.220  1.00  0.00     0.000 HD 
HETATM   29  C   UNL     1      -9.780  15.650  65.647  1.00  0.00    -0.313 C  
HETATM   30  O   UNL     1     -10.541  15.727  64.689  1.00  0.00    -0.479 OA 
BRANCH  29  31
HETATM   31  C   UNL     1      -8.824  16.795  66.017  1.00  0.00    -0.183 C  
HETATM   32  H   UNL     1      -8.929  18.525  66.961  1.00  0.00     0.000 HD 
HETATM   33  O   UNL     1      -9.520  17.817  66.732  1.00  0.00    -0.267 OA 
BRANCH  31  34
HETATM   34  C   UNL     1      -7.673  16.289  66.886  1.00  0.00    -0.278 C  
BRANCH  34  35
HETATM   35  C   UNL     1      -7.656  16.966  68.257  1.00  0.00    -0.202 C  
HETATM   36  H1  UNL     1      -8.044  16.474  70.209  1.00  0.00     0.000 HD 
HETATM   37  H2  UNL     1      -7.484  15.178  69.281  1.00  0.00     0.000 HD 
HETATM   38  N   UNL     1      -8.055  16.023  69.294  1.00  0.00    -0.236 NA 
ENDBRANCH  34  35
ENDBRANCH  31  34
ENDBRANCH  29  31
ENDBRANCH  18  27
BRANCH  26  39
HETATM   39  O   UNL     1     -12.180  11.367  68.884  1.00  0.00    -0.458 OA 
BRANCH  39  40
HETATM   40  C   UNL     1     -12.113  10.299  69.834  1.00  0.00    -0.108 C  
HETATM   41  H1  UNL     1     -13.704  12.372  72.128  1.00  0.00     0.000 HD 
HETATM   42  O   UNL     1     -10.767  10.047  70.250  1.00  0.00    -0.276 OA 
HETATM   43  H2  UNL     1     -13.289  12.685  70.538  1.00  0.00     0.000 HD 
HETATM   44  N   UNL     1     -13.080  12.121  71.362  1.00  0.00    -0.282 NA 
HETATM   45  C   UNL     1     -13.072  10.684  71.010  1.00  0.00    -0.286 C  
HETATM   46  C   UNL     1     -10.664   9.125  71.278  1.00  0.00    -0.331 C  
HETATM   47  C   UNL     1     -12.875   9.779  72.235  1.00  0.00    -0.379 C  
HETATM   48  C   UNL     1     -11.623   8.969  72.203  1.00  0.00    -0.348 C  
BRANCH  46  49
HETATM   49  C   UNL     1      -9.374   8.338  71.315  1.00  0.00    -0.173 C  
BRANCH  49  50
HETATM   50  N   UNL     1      -9.561   6.905  71.074  1.00  0.00    -0.171 NA 
HETATM   51  H   UNL     1     -10.382   6.548  71.562  1.00  0.00     0.000 HD 
BRANCH  50  52
HETATM   52  C   UNL     1      -9.619   6.604  69.632  1.00  0.00    -0.151 C  
BRANCH  52  53
HETATM   53  C   UNL     1     -10.894   5.830  69.288  1.00  0.00    -0.303 C  
HETATM   54  O   UNL     1     -12.025   6.411  69.931  1.00  0.00    -0.535 OA 
HETATM   55  H   UNL     1     -12.816   5.930  69.717  1.00  0.00     0.000 HD 
ENDBRANCH  52  53
ENDBRANCH  50  52
ENDBRANCH  49  50
ENDBRANCH  46  49
ENDBRANCH  39  40
ENDBRANCH  26  39
ENDBRANCH  15  16
ENDBRANCH   6  15
ENDBRANCH   2   4
TORSDOF 13
ENDMDL
MODEL       97
REMARK 921   NORMALIZED FREE ENERGY PREDICTED BY IDOCK:   -3.54 KCAL/MOL
REMARK 922        TOTAL FREE ENERGY PREDICTED BY IDOCK:   -9.70 KCAL/MOL
REMARK 923 INTER-LIGAND FREE ENERGY PREDICTED BY IDOCK:   -7.59 KCAL/MOL
REMARK 924 INTRA-LIGAND FREE ENERGY PREDICTED BY IDOCK:   -2.10 KCAL/MOL
REMARK 927      BINDING AFFINITY PREDICTED BY RF-SCORE:    0.00 PKD
ROOT
HETATM    1  C   UNL     1      -5.312  15.113  70.506  1.00  0.00    -0.133 C  
HETATM    2  N   UNL     1      -6.652  14.575  70.293  1.00  0.00    -0.325 NA 
HETATM    3  H   UNL     1      -7.266  15.303  69.926  1.00  0.00     0.000 HD 
ENDROOT
BRANCH   2   4
HETATM    4  C   UNL     1      -6.729  13.360  69.428  1.00  0.00    -0.037 C  
HETATM    5  C   UNL     1      -5.800  12.221  69.921  1.00  0.00    -0.140 C  
HETATM    6  C   UNL     1      -6.057  10.944  69.090  1.00  0.00    -0.044 C  
HETATM    7  O   UNL     1      -5.979  11.978  71.318  1.00  0.00    -0.466 OA 
HETATM    8  H   UNL     1      -5.409  11.280  71.620  1.00  0.00     0.000 HD 
HETATM    9  O   UNL     1      -5.288  14.129  67.581  1.00  0.00    -0.307 OA 
HETATM   10  O   UNL     1      -5.765  11.219  67.719  1.00  0.00    -0.043 OA 
HETATM   11  H   UNL     1      -5.191  14.247  66.643  1.00  0.00     0.000 HD 
HETATM   12  C   UNL     1      -6.661  12.193  67.157  1.00  0.00    -0.127 C  
HETATM   13  C   UNL     1      -7.636  14.489  67.306  1.00  0.00    -0.150 C  
HETATM   14  C   UNL     1      -6.568  13.553  67.883  1.00  0.00    -0.152 C  
BRANCH   6  15
HETATM   15  O   UNL     1      -7.405  10.497  69.252  1.00  0.00    -0.088 OA 
BRANCH  15  16
HETATM   16  C   UNL     1      -7.607   9.073  69.243  1.00  0.00    -0.079 C  
HETATM   17  H1  UNL     1     -11.672   7.269  68.917  1.00  0.00     0.000 HD 
HETATM   18  C   UNL     1      -8.171   8.505  70.565  1.00  0.00    -0.115 C  
HETATM   19  C   UNL     1      -8.575   8.768  68.067  1.00  0.00    -0.134 C  
HETATM   20  H2  UNL     1     -11.381   7.147  70.574  1.00  0.00     0.000 HD 
HETATM   21  C   UNL     1     -10.571   8.846  69.692  1.00  0.00    -0.226 C  
HETATM   22  C   UNL     1      -9.565   9.100  70.831  1.00  0.00    -0.347 C  
HETATM   23  O   UNL     1      -8.611   7.347  67.813  1.00  0.00    -0.120 OA 
HETATM   24  H   UNL     1      -9.203   7.160  67.093  1.00  0.00     0.000 HD 
HETATM   25  N   UNL     1     -11.007   7.437  69.671  1.00  0.00    -0.213 NA 
HETATM   26  C   UNL     1     -10.004   9.329  68.323  1.00  0.00    -0.173 C  
BRANCH  18  27
HETATM   27  N   UNL     1      -8.166   7.041  70.568  1.00  0.00    -0.121 N  
HETATM   28  H   UNL     1      -8.433   6.552  69.713  1.00  0.00     0.000 HD 
HETATM   29  C   UNL     1      -7.818   6.292  71.669  1.00  0.00    -0.102 C  
HETATM   30  O   UNL     1      -7.455   6.772  72.737  1.00  0.00    -0.089 OA 
BRANCH  29  31
HETATM   31  C   UNL     1      -7.891   4.773  71.447  1.00  0.00    -0.096 C  
HETATM   32  H   UNL     1      -7.250   3.141  72.352  1.00  0.00     0.000 HD 
HETATM   33  O   UNL     1      -7.205   4.080  72.490  1.00  0.00    -0.054 OA 
BRANCH  31  34
HETATM   34  C   UNL     1      -9.342   4.293  71.415  1.00  0.00    -0.210 C  
BRANCH  34  35
HETATM   35  C   UNL     1      -9.732   3.577  72.709  1.00  0.00    -0.136 C  
HETATM   36  H1  UNL     1     -11.317   3.525  74.008  1.00  0.00     0.000 HD 
HETATM   37  H2  UNL     1     -11.757   3.875  72.415  1.00  0.00     0.000 HD 
HETATM   38  N   UNL     1     -11.056   4.002  73.146  1.00  0.00    -0.176 NA 
ENDBRANCH  34  35
ENDBRANCH  31  34
ENDBRANCH  29  31
ENDBRANCH  18  27
BRANCH  26  39
HETATM   39  O   UNL     1     -10.076  10.752  68.373  1.00  0.00    -0.158 OA 
BRANCH  39  40
HETATM   40  C   UNL     1      -9.978  11.483  67.148  1.00  0.00    -0.199 C  
HETATM   41  H1  UNL     1     -12.928  13.115  68.000  1.00  0.00     0.000 HD 
HETATM   42  O   UNL     1     -10.193  10.640  66.012  1.00  0.00    -0.242 OA 
HETATM   43  H2  UNL     1     -12.079  11.956  68.859  1.00  0.00     0.000 HD 
HETATM   44  N   UNL     1     -12.265  12.342  67.933  1.00  0.00    -0.318 NA 
HETATM   45  C   UNL     1     -10.994  12.669  67.250  1.00  0.00    -0.256 C  
HETATM   46  C   UNL     1     -10.257  11.327  64.811  1.00  0.00    -0.292 C  
HETATM   47  C   UNL     1     -11.214  13.360  65.897  1.00  0.00    -0.314 C  
HETATM   48  C   UNL     1     -10.712  12.586  64.725  1.00  0.00    -0.333 C  
BRANCH  46  49
HETATM   49  C   UNL     1      -9.822  10.543  63.593  1.00  0.00    -0.293 C  
BRANCH  49  50
HETATM   50  N   UNL     1      -8.678  11.139  62.897  1.00  0.00    -0.456 NA 
HETATM   51  H   UNL     1      -8.301  11.934  63.412  1.00  0.00     0.000 HD 
BRANCH  50  52
HETATM   52  C   UNL     1      -7.636  10.136  62.615  1.00  0.00    -0.138 C  
BRANCH  52  53
HETATM   53  C   UNL     1      -6.596  10.099  63.739  1.00  0.00    -0.119 C  
HETATM   54  O   UNL     1      -6.045   8.791  63.870  1.00  0.00    -0.071 OA 
HETATM   55  H   UNL     1      -5.400   8.769  64.568  1.00  0.00     0.000 HD 
ENDBRANCH  52  53
ENDBRANCH  50  52
ENDBRANCH  49  50
ENDBRANCH  46  49
ENDBRANCH  39  40
ENDBRANCH  26  39
ENDBRANCH  15  16
ENDBRANCH   6  15
ENDBRANCH   2   4
TORSDOF 13
ENDMDL
MODEL       98
REMARK 921   NORMALIZED FREE ENERGY PREDICTED BY IDOCK:   -3.52 KCAL/MOL
REMARK 922        TOTAL FREE ENERGY PREDICTED BY IDOCK:   -9.65 KCAL/MOL
REMARK 923 INTER-LIGAND FREE ENERGY PREDICTED BY IDOCK:   -8.04 KCAL/MOL
REMARK 924 INTRA-LIGAND FREE ENERGY PREDICTED BY IDOCK:   -1.61 KCAL/MOL
REMARK 927      BINDING AFFINITY PREDICTED BY RF-SCORE:    0.00 PKD
ROOT
HETATM    1  C   UNL     1      -6.584  10.749  66.001  1.00  0.00    -0.113 C  
HETATM    2  N   UNL     1      -7.329  10.613  67.249  1.00  0.00    -0.089 NA 
HETATM    3  H   UNL     1      -7.852  11.469  67.438  1.00  0.00     0.000 HD 
ENDROOT
BRANCH   2   4
HETATM    4  C   UNL     1      -8.238   9.431  67.332  1.00  0.00    -0.121 C  
HETATM    5  C   UNL     1      -7.471   8.087  67.259  1.00  0.00    -0.093 C  
HETATM    6  C   UNL     1      -8.445   6.917  67.523  1.00  0.00    -0.122 C  
HETATM    7  O   UNL     1      -6.375   8.068  68.178  1.00  0.00    -0.051 OA 
HETATM    8  H   UNL     1      -5.905   7.244  68.133  1.00  0.00     0.000 HD 
HETATM    9  O   UNL     1      -9.049   9.426  65.003  1.00  0.00    -0.215 OA 
HETATM   10  O   UNL     1      -9.459   6.925  66.517  1.00  0.00    -0.168 OA 
HETATM   11  H   UNL     1      -9.800   9.404  64.421  1.00  0.00     0.000 HD 
HETATM   12  C   UNL     1     -10.287   8.098  66.590  1.00  0.00    -0.213 C  
HETATM   13  C   UNL     1     -10.405  10.594  66.589  1.00  0.00    -0.297 C  
HETATM   14  C   UNL     1      -9.476   9.394  66.374  1.00  0.00    -0.201 C  
BRANCH   6  15
HETATM   15  O   UNL     1      -9.013   7.015  68.831  1.00  0.00    -0.130 OA 
BRANCH  15  16
HETATM   16  C   UNL     1      -8.797   5.893  69.704  1.00  0.00    -0.131 C  
HETATM   17  H1  UNL     1     -10.939   5.481  73.593  1.00  0.00     0.000 HD 
HETATM   18  C   UNL     1      -7.942   6.215  70.951  1.00  0.00    -0.116 C  
HETATM   19  C   UNL     1     -10.201   5.382  70.128  1.00  0.00    -0.272 C  
HETATM   20  H2  UNL     1      -9.440   6.070  74.095  1.00  0.00     0.000 HD 
HETATM   21  C   UNL     1     -10.076   6.817  72.262  1.00  0.00    -0.173 C  
HETATM   22  C   UNL     1      -8.668   7.257  71.820  1.00  0.00    -0.123 C  
HETATM   23  O   UNL     1     -10.083   4.095  70.774  1.00  0.00    -0.164 OA 
HETATM   24  H   UNL     1     -10.942   3.782  71.034  1.00  0.00     0.000 HD 
HETATM   25  N   UNL     1     -10.007   5.772  73.301  1.00  0.00    -0.173 NA 
HETATM   26  C   UNL     1     -10.946   6.401  71.037  1.00  0.00    -0.274 C  
BRANCH  18  27
HETATM   27  N   UNL     1      -7.589   5.002  71.690  1.00  0.00    -0.100 N  
HETATM   28  H   UNL     1      -8.139   4.158  71.530  1.00  0.00     0.000 HD 
HETATM   29  C   UNL     1      -6.551   4.946  72.592  1.00  0.00    -0.052 C  
HETATM   30  O   UNL     1      -5.808   5.889  72.841  1.00  0.00    -0.035 OA 
BRANCH  29  31
HETATM   31  C   UNL     1      -6.366   3.572  73.256  1.00  0.00    -0.024 C  
HETATM   32  H   UNL     1      -5.089   2.719  74.496  1.00  0.00     0.000 HD 
HETATM   33  O   UNL     1      -5.203   3.569  74.085  1.00  0.00     0.000 OA 
BRANCH  31  34
HETATM   34  C   UNL     1      -7.578   3.212  74.114  1.00  0.00    -0.063 C  
BRANCH  34  35
HETATM   35  C   UNL     1      -8.363   2.038  73.526  1.00  0.00    -0.058 C  
HETATM   36  H1  UNL     1      -8.721   1.209  71.686  1.00  0.00     0.000 HD 
HETATM   37  H2  UNL     1      -7.215   1.964  71.809  1.00  0.00     0.000 HD 
HETATM   38  N   UNL     1      -8.198   1.991  72.079  1.00  0.00    -0.052 NA 
ENDBRANCH  34  35
ENDBRANCH  31  34
ENDBRANCH  29  31
ENDBRANCH  18  27
BRANCH  26  39
HETATM   39  O   UNL     1     -11.286   7.626  70.391  1.00  0.00    -0.266 OA 
BRANCH  39  40
HETATM   40  C   UNL     1     -11.820   8.690  71.185  1.00  0.00    -0.287 C  
HETATM   41  H1  UNL     1     -14.699   6.788  71.617  1.00  0.00     0.000 HD 
HETATM   42  O   UNL     1     -12.109   9.845  70.391  1.00  0.00    -0.238 OA 
HETATM   43  H2  UNL     1     -13.301   6.407  70.780  1.00  0.00     0.000 HD 
HETATM   44  N   UNL     1     -13.885   7.166  71.132  1.00  0.00    -0.198 NA 
HETATM   45  C   UNL     1     -13.070   8.111  71.928  1.00  0.00    -0.327 C  
HETATM   46  C   UNL     1     -12.766  10.849  71.084  1.00  0.00    -0.429 C  
HETATM   47  C   UNL     1     -13.916   9.214  72.580  1.00  0.00    -0.453 C  
HETATM   48  C   UNL     1     -13.598  10.591  72.105  1.00  0.00    -0.167 C  
BRANCH  46  49
HETATM   49  C   UNL     1     -12.519  12.253  70.581  1.00  0.00    -0.236 C  
BRANCH  49  50
HETATM   50  N   UNL     1     -12.670  13.277  71.618  1.00  0.00    -0.275 NA 
HETATM   51  H   UNL     1     -12.360  12.935  72.528  1.00  0.00     0.000 HD 
BRANCH  50  52
HETATM   52  C   UNL     1     -11.980  14.525  71.248  1.00  0.00    -0.333 C  
BRANCH  52  53
HETATM   53  C   UNL     1     -12.935  15.719  71.325  1.00  0.00    -0.393 C  
HETATM   54  O   UNL     1     -14.146  15.439  70.628  1.00  0.00    -0.818 OA 
HETATM   55  H   UNL     1     -14.739  16.180  70.675  1.00  0.00     0.000 HD 
ENDBRANCH  52  53
ENDBRANCH  50  52
ENDBRANCH  49  50
ENDBRANCH  46  49
ENDBRANCH  39  40
ENDBRANCH  26  39
ENDBRANCH  15  16
ENDBRANCH   6  15
ENDBRANCH   2   4
TORSDOF 13
ENDMDL
MODEL       99
REMARK 921   NORMALIZED FREE ENERGY PREDICTED BY IDOCK:   -3.50 KCAL/MOL
REMARK 922        TOTAL FREE ENERGY PREDICTED BY IDOCK:   -9.61 KCAL/MOL
REMARK 923 INTER-LIGAND FREE ENERGY PREDICTED BY IDOCK:   -7.42 KCAL/MOL
REMARK 924 INTRA-LIGAND FREE ENERGY PREDICTED BY IDOCK:   -2.19 KCAL/MOL
REMARK 927      BINDING AFFINITY PREDICTED BY RF-SCORE:    0.00 PKD
ROOT
HETATM    1  C   UNL     1     -11.351  10.926  68.894  1.00  0.00    -0.288 C  
HETATM    2  N   UNL     1     -10.159  11.585  69.419  1.00  0.00    -0.408 NA 
HETATM    3  H   UNL     1     -10.178  11.581  70.439  1.00  0.00     0.000 HD 
ENDROOT
BRANCH   2   4
HETATM    4  C   UNL     1      -8.855  11.042  68.931  1.00  0.00    -0.113 C  
HETATM    5  C   UNL     1      -8.257   9.983  69.890  1.00  0.00    -0.159 C  
HETATM    6  C   UNL     1      -7.007   9.344  69.244  1.00  0.00    -0.053 C  
HETATM    7  O   UNL     1      -9.229   8.993  70.236  1.00  0.00    -0.171 OA 
HETATM    8  H   UNL     1      -8.862   8.344  70.824  1.00  0.00     0.000 HD 
HETATM    9  O   UNL     1      -7.399  12.910  69.617  1.00  0.00    -0.239 OA 
HETATM   10  O   UNL     1      -6.033  10.363  69.016  1.00  0.00    -0.041 OA 
HETATM   11  H   UNL     1      -6.729  13.533  69.361  1.00  0.00     0.000 HD 
HETATM   12  C   UNL     1      -6.476  11.330  68.048  1.00  0.00    -0.057 C  
HETATM   13  C   UNL     1      -8.222  12.985  67.373  1.00  0.00    -0.183 C  
HETATM   14  C   UNL     1      -7.751  12.069  68.508  1.00  0.00    -0.127 C  
BRANCH   6  15
HETATM   15  O   UNL     1      -7.352   8.674  68.029  1.00  0.00    -0.089 OA 
BRANCH  15  16
HETATM   16  C   UNL     1      -7.270   7.239  68.050  1.00  0.00    -0.091 C  
HETATM   17  H1  UNL     1      -7.444   4.811  64.313  1.00  0.00     0.000 HD 
HETATM   18  C   UNL     1      -8.618   6.523  67.805  1.00  0.00    -0.117 C  
HETATM   19  C   UNL     1      -6.238   6.835  66.961  1.00  0.00    -0.037 C  
HETATM   20  H2  UNL     1      -9.022   4.660  64.887  1.00  0.00     0.000 HD 
HETATM   21  C   UNL     1      -8.153   6.508  65.271  1.00  0.00    -0.133 C  
HETATM   22  C   UNL     1      -9.138   6.869  66.399  1.00  0.00    -0.185 C  
HETATM   23  O   UNL     1      -5.889   5.441  67.103  1.00  0.00    -0.016 OA 
HETATM   24  H   UNL     1      -5.258   5.194  66.437  1.00  0.00     0.000 HD 
HETATM   25  N   UNL     1      -8.096   5.050  65.059  1.00  0.00    -0.108 NA 
HETATM   26  C   UNL     1      -6.752   7.142  65.525  1.00  0.00    -0.052 C  
BRANCH  18  27
HETATM   27  N   UNL     1      -8.513   5.082  68.035  1.00  0.00    -0.103 N  
HETATM   28  H   UNL     1      -7.719   4.582  67.635  1.00  0.00     0.000 HD 
HETATM   29  C   UNL     1      -9.435   4.368  68.766  1.00  0.00    -0.162 C  
HETATM   30  O   UNL     1     -10.411   4.868  69.315  1.00  0.00    -0.187 OA 
BRANCH  29  31
HETATM   31  C   UNL     1      -9.128   2.865  68.873  1.00  0.00    -0.147 C  
HETATM   32  H   UNL     1      -9.331   1.258  67.745  1.00  0.00     0.000 HD 
HETATM   33  O   UNL     1      -9.521   2.187  67.679  1.00  0.00    -0.161 OA 
BRANCH  31  34
HETATM   34  C   UNL     1      -7.635   2.626  69.100  1.00  0.00    -0.043 C  
BRANCH  34  35
HETATM   35  C   UNL     1      -7.122   3.367  70.335  1.00  0.00    -0.034 C  
HETATM   36  H1  UNL     1      -5.737   4.810  70.786  1.00  0.00     0.000 HD 
HETATM   37  H2  UNL     1      -6.394   4.960  69.237  1.00  0.00     0.000 HD 
HETATM   38  N   UNL     1      -6.080   4.316  69.962  1.00  0.00    -0.018 NA 
ENDBRANCH  34  35
ENDBRANCH  31  34
ENDBRANCH  29  31
ENDBRANCH  18  27
BRANCH  26  39
HETATM   39  O   UNL     1      -6.916   8.530  65.243  1.00  0.00    -0.075 OA 
BRANCH  39  40
HETATM   40  C   UNL     1      -8.120   8.957  64.599  1.00  0.00    -0.151 C  
HETATM   41  H1  UNL     1      -6.182  10.069  61.935  1.00  0.00     0.000 HD 
HETATM   42  O   UNL     1      -8.713  10.071  65.274  1.00  0.00    -0.146 OA 
HETATM   43  H2  UNL     1      -5.697   9.310  63.345  1.00  0.00     0.000 HD 
HETATM   44  N   UNL     1      -6.423   9.877  62.907  1.00  0.00    -0.115 NA 
HETATM   45  C   UNL     1      -7.750   9.253  63.107  1.00  0.00    -0.118 C  
HETATM   46  C   UNL     1      -9.797  10.616  64.606  1.00  0.00    -0.321 C  
HETATM   47  C   UNL     1      -8.871  10.002  62.372  1.00  0.00    -0.263 C  
HETATM   48  C   UNL     1      -9.905  10.591  63.269  1.00  0.00    -0.309 C  
BRANCH  46  49
HETATM   49  C   UNL     1     -10.830  11.285  65.486  1.00  0.00    -0.179 C  
BRANCH  49  50
HETATM   50  N   UNL     1     -11.890  11.956  64.728  1.00  0.00    -0.242 NA 
HETATM   51  H   UNL     1     -12.680  11.334  64.560  1.00  0.00     0.000 HD 
BRANCH  50  52
HETATM   52  C   UNL     1     -12.317  13.203  65.387  1.00  0.00    -0.481 C  
BRANCH  52  53
HETATM   53  C   UNL     1     -12.405  14.351  64.378  1.00  0.00    -0.403 C  
HETATM   54  O   UNL     1     -12.501  13.845  63.049  1.00  0.00    -1.099 OA 
HETATM   55  H   UNL     1     -12.556  14.558  62.423  1.00  0.00     0.000 HD 
ENDBRANCH  52  53
ENDBRANCH  50  52
ENDBRANCH  49  50
ENDBRANCH  46  49
ENDBRANCH  39  40
ENDBRANCH  26  39
ENDBRANCH  15  16
ENDBRANCH   6  15
ENDBRANCH   2   4
TORSDOF 13
ENDMDL
MODEL      100
REMARK 921   NORMALIZED FREE ENERGY PREDICTED BY IDOCK:   -3.49 KCAL/MOL
REMARK 922        TOTAL FREE ENERGY PREDICTED BY IDOCK:   -9.61 KCAL/MOL
REMARK 923 INTER-LIGAND FREE ENERGY PREDICTED BY IDOCK:   -7.54 KCAL/MOL
REMARK 924 INTRA-LIGAND FREE ENERGY PREDICTED BY IDOCK:   -2.07 KCAL/MOL
REMARK 927      BINDING AFFINITY PREDICTED BY RF-SCORE:    0.00 PKD
ROOT
HETATM    1  C   UNL     1      -8.029   8.070  73.235  1.00  0.00    -0.178 C  
HETATM    2  N   UNL     1      -7.527   8.970  72.202  1.00  0.00    -0.332 NA 
HETATM    3  H   UNL     1      -6.545   9.187  72.375  1.00  0.00     0.000 HD 
ENDROOT
BRANCH   2   4
HETATM    4  C   UNL     1      -7.705   8.501  70.795  1.00  0.00    -0.087 C  
HETATM    5  C   UNL     1      -6.356   8.191  70.098  1.00  0.00    -0.032 C  
HETATM    6  C   UNL     1      -6.620   7.551  68.716  1.00  0.00    -0.049 C  
HETATM    7  O   UNL     1      -5.536   7.350  70.912  1.00  0.00    -0.027 OA 
HETATM    8  H   UNL     1      -4.709   7.161  70.485  1.00  0.00     0.000 HD 
HETATM    9  O   UNL     1      -8.089  10.688  69.723  1.00  0.00    -0.368 OA 
HETATM   10  O   UNL     1      -7.355   8.475  67.912  1.00  0.00    -0.089 OA 
HETATM   11  H   UNL     1      -8.640  11.208  69.150  1.00  0.00     0.000 HD 
HETATM   12  C   UNL     1      -8.668   8.730  68.440  1.00  0.00    -0.135 C  
HETATM   13  C   UNL     1     -10.044   9.482  70.386  1.00  0.00    -0.329 C  
HETATM   14  C   UNL     1      -8.613   9.357  69.850  1.00  0.00    -0.191 C  
BRANCH   6  15
HETATM   15  O   UNL     1      -7.323   6.314  68.857  1.00  0.00    -0.081 OA 
BRANCH  15  16
HETATM   16  C   UNL     1      -7.974   5.815  67.676  1.00  0.00    -0.102 C  
HETATM   17  H1  UNL     1     -10.100   1.895  67.630  1.00  0.00     0.000 HD 
HETATM   18  C   UNL     1      -7.211   4.673  66.967  1.00  0.00    -0.076 C  
HETATM   19  C   UNL     1      -9.384   5.333  68.114  1.00  0.00    -0.118 C  
HETATM   20  H2  UNL     1      -8.631   1.490  66.907  1.00  0.00     0.000 HD 
HETATM   21  C   UNL     1      -8.477   2.938  68.390  1.00  0.00    -0.076 C  
HETATM   22  C   UNL     1      -7.110   3.458  67.905  1.00  0.00    -0.051 C  
HETATM   23  O   UNL     1     -10.202   5.077  66.951  1.00  0.00    -0.208 OA 
HETATM   24  H   UNL     1     -11.065   4.782  67.219  1.00  0.00     0.000 HD 
HETATM   25  N   UNL     1      -9.196   2.239  67.309  1.00  0.00    -0.138 NA 
HETATM   26  C   UNL     1      -9.315   4.082  69.037  1.00  0.00    -0.169 C  
BRANCH  18  27
HETATM   27  N   UNL     1      -7.812   4.346  65.673  1.00  0.00    -0.093 N  
HETATM   28  H   UNL     1      -8.829   4.364  65.590  1.00  0.00     0.000 HD 
HETATM   29  C   UNL     1      -7.071   4.013  64.562  1.00  0.00    -0.054 C  
HETATM   30  O   UNL     1      -5.845   3.986  64.538  1.00  0.00    -0.014 OA 
BRANCH  29  31
HETATM   31  C   UNL     1      -7.911   3.701  63.313  1.00  0.00    -0.076 C  
HETATM   32  H   UNL     1      -8.830   2.137  62.536  1.00  0.00     0.000 HD 
HETATM   33  O   UNL     1      -8.311   2.329  63.308  1.00  0.00    -0.075 OA 
BRANCH  31  34
HETATM   34  C   UNL     1      -9.166   4.573  63.265  1.00  0.00    -0.087 C  
BRANCH  34  35
HETATM   35  C   UNL     1     -10.443   3.735  63.302  1.00  0.00    -0.221 C  
HETATM   36  H1  UNL     1     -12.000   3.377  64.588  1.00  0.00     0.000 HD 
HETATM   37  H2  UNL     1     -11.336   4.923  64.739  1.00  0.00     0.000 HD 
HETATM   38  N   UNL     1     -11.148   3.937  64.563  1.00  0.00    -0.249 NA 
ENDBRANCH  34  35
ENDBRANCH  31  34
ENDBRANCH  29  31
ENDBRANCH  18  27
BRANCH  26  39
HETATM   39  O   UNL     1      -8.703   4.320  70.303  1.00  0.00    -0.074 OA 
BRANCH  39  40
HETATM   40  C   UNL     1      -9.503   4.869  71.355  1.00  0.00    -0.155 C  
HETATM   41  H1  UNL     1     -10.080   1.627  72.474  1.00  0.00     0.000 HD 
HETATM   42  O   UNL     1     -10.716   5.438  70.852  1.00  0.00    -0.238 OA 
HETATM   43  H2  UNL     1      -9.152   2.146  71.181  1.00  0.00     0.000 HD 
HETATM   44  N   UNL     1      -9.930   2.377  71.798  1.00  0.00    -0.156 NA 
HETATM   45  C   UNL     1      -9.732   3.719  72.391  1.00  0.00    -0.151 C  
HETATM   46  C   UNL     1     -11.592   5.849  71.843  1.00  0.00    -0.192 C  
HETATM   47  C   UNL     1     -10.817   4.075  73.418  1.00  0.00    -0.326 C  
HETATM   48  C   UNL     1     -11.656   5.248  73.041  1.00  0.00    -0.290 C  
BRANCH  46  49
HETATM   49  C   UNL     1     -12.507   6.992  71.465  1.00  0.00    -0.386 C  
BRANCH  49  50
HETATM   50  N   UNL     1     -12.510   8.081  72.446  1.00  0.00    -0.535 NA 
HETATM   51  H   UNL     1     -11.659   8.640  72.386  1.00  0.00     0.000 HD 
BRANCH  50  52
HETATM   52  C   UNL     1     -13.715   8.920  72.316  1.00  0.00    -0.471 C  
BRANCH  52  53
HETATM   53  C   UNL     1     -13.380  10.255  71.647  1.00  0.00    -0.353 C  
HETATM   54  O   UNL     1     -13.505  10.152  70.231  1.00  0.00    -0.504 OA 
HETATM   55  H   UNL     1     -13.297  10.981  69.815  1.00  0.00     0.000 HD 
ENDBRANCH  52  53
ENDBRANCH  50  52
ENDBRANCH  49  50
ENDBRANCH  46  49
ENDBRANCH  39  40
ENDBRANCH  26  39
ENDBRANCH  15  16
ENDBRANCH   6  15
ENDBRANCH   2   4
TORSDOF 13
ENDMDL
MODEL      101
REMARK 921   NORMALIZED FREE ENERGY PREDICTED BY IDOCK:   -3.46 KCAL/MOL
REMARK 922        TOTAL FREE ENERGY PREDICTED BY IDOCK:   -9.54 KCAL/MOL
REMARK 923 INTER-LIGAND FREE ENERGY PREDICTED BY IDOCK:   -8.03 KCAL/MOL
REMARK 924 INTRA-LIGAND FREE ENERGY PREDICTED BY IDOCK:   -1.51 KCAL/MOL
REMARK 927      BINDING AFFINITY PREDICTED BY RF-SCORE:    0.00 PKD
ROOT
HETATM    1  C   UNL     1      -9.264   3.040  68.821  1.00  0.00    -0.166 C  
HETATM    2  N   UNL     1     -10.158   3.879  68.029  1.00  0.00     0.146 NA 
HETATM    3  H   UNL     1     -11.017   4.063  68.549  1.00  0.00     0.000 HD 
ENDROOT
BRANCH   2   4
HETATM    4  C   UNL     1      -9.573   5.163  67.540  1.00  0.00    -0.140 C  
HETATM    5  C   UNL     1     -10.393   6.398  67.990  1.00  0.00    -0.193 C  
HETATM    6  C   UNL     1      -9.642   7.691  67.600  1.00  0.00    -0.145 C  
HETATM    7  O   UNL     1     -10.662   6.356  69.393  1.00  0.00    -0.229 OA 
HETATM    8  H   UNL     1     -11.165   7.113  69.669  1.00  0.00     0.000 HD 
HETATM    9  O   UNL     1     -10.409   5.090  65.221  1.00  0.00    -0.413 OA 
HETATM   10  O   UNL     1      -9.493   7.728  66.180  1.00  0.00    -0.157 OA 
HETATM   11  H   UNL     1     -10.199   5.157  64.297  1.00  0.00     0.000 HD 
HETATM   12  C   UNL     1      -8.650   6.669  65.695  1.00  0.00    -0.123 C  
HETATM   13  C   UNL     1      -8.214   4.211  65.579  1.00  0.00    -0.105 C  
HETATM   14  C   UNL     1      -9.228   5.274  66.017  1.00  0.00    -0.157 C  
BRANCH   6  15
HETATM   15  O   UNL     1      -8.374   7.758  68.256  1.00  0.00    -0.123 OA 
BRANCH  15  16
HETATM   16  C   UNL     1      -8.402   7.760  69.693  1.00  0.00    -0.129 C  
HETATM   17  H1  UNL     1      -6.163  10.779  72.094  1.00  0.00     0.000 HD 
HETATM   18  C   UNL     1      -7.108   7.232  70.353  1.00  0.00    -0.065 C  
HETATM   19  C   UNL     1      -8.674   9.225  70.132  1.00  0.00    -0.204 C  
HETATM   20  H2  UNL     1      -5.135   9.446  72.185  1.00  0.00     0.000 HD 
HETATM   21  C   UNL     1      -6.141   9.620  70.375  1.00  0.00    -0.065 C  
HETATM   22  C   UNL     1      -5.928   8.145  69.980  1.00  0.00    -0.022 C  
HETATM   23  O   UNL     1      -8.994   9.268  71.540  1.00  0.00    -0.316 OA 
HETATM   24  H   UNL     1      -9.160  10.164  71.809  1.00  0.00     0.000 HD 
HETATM   25  N   UNL     1      -6.022   9.804  71.833  1.00  0.00    -0.293 NA 
HETATM   26  C   UNL     1      -7.481  10.167  69.798  1.00  0.00    -0.163 C  
BRANCH  18  27
HETATM   27  N   UNL     1      -7.268   7.069  71.799  1.00  0.00    -0.077 N  
HETATM   28  H   UNL     1      -6.892   7.791  72.414  1.00  0.00     0.000 HD 
HETATM   29  C   UNL     1      -7.900   5.987  72.369  1.00  0.00    -0.102 C  
HETATM   30  O   UNL     1      -8.413   5.077  71.727  1.00  0.00    -0.120 OA 
BRANCH  29  31
HETATM   31  C   UNL     1      -7.946   6.021  73.905  1.00  0.00    -0.101 C  
HETATM   32  H   UNL     1      -6.685   6.345  75.388  1.00  0.00     0.000 HD 
HETATM   33  O   UNL     1      -6.656   6.325  74.438  1.00  0.00    -0.074 OA 
BRANCH  31  34
HETATM   34  C   UNL     1      -8.938   7.073  74.400  1.00  0.00    -0.242 C  
BRANCH  34  35
HETATM   35  C   UNL     1     -10.387   6.628  74.196  1.00  0.00    -0.321 C  
HETATM   36  H1  UNL     1     -11.963   7.075  72.963  1.00  0.00     0.000 HD 
HETATM   37  H2  UNL     1     -10.452   7.296  72.240  1.00  0.00     0.000 HD 
HETATM   38  N   UNL     1     -10.996   7.371  73.099  1.00  0.00    -0.374 NA 
ENDBRANCH  34  35
ENDBRANCH  31  34
ENDBRANCH  29  31
ENDBRANCH  18  27
BRANCH  26  39
HETATM   39  O   UNL     1      -7.242  10.340  68.403  1.00  0.00    -0.077 OA 
BRANCH  39  40
HETATM   40  C   UNL     1      -7.865  11.442  67.736  1.00  0.00    -0.117 C  
HETATM   41  H1  UNL     1      -5.282  13.468  68.884  1.00  0.00     0.000 HD 
HETATM   42  O   UNL     1      -9.096  11.812  68.366  1.00  0.00    -0.185 OA 
HETATM   43  H2  UNL     1      -5.512  11.826  69.110  1.00  0.00     0.000 HD 
HETATM   44  N   UNL     1      -5.970  12.715  68.910  1.00  0.00    -0.070 NA 
HETATM   45  C   UNL     1      -6.809  12.597  67.697  1.00  0.00    -0.144 C  
HETATM   46  C   UNL     1      -9.662  12.966  67.850  1.00  0.00    -0.218 C  
HETATM   47  C   UNL     1      -7.434  13.936  67.280  1.00  0.00    -0.051 C  
HETATM   48  C   UNL     1      -8.924  13.960  67.332  1.00  0.00    -0.211 C  
BRANCH  46  49
HETATM   49  C   UNL     1     -11.168  13.050  67.953  1.00  0.00    -0.271 C  
BRANCH  49  50
HETATM   50  N   UNL     1     -11.864  12.349  66.871  1.00  0.00    -0.557 NA 
HETATM   51  H   UNL     1     -12.594  11.735  67.233  1.00  0.00     0.000 HD 
BRANCH  50  52
HETATM   52  C   UNL     1     -12.400  13.292  65.874  1.00  0.00    -0.418 C  
BRANCH  52  53
HETATM   53  C   UNL     1     -11.544  13.290  64.605  1.00  0.00    -0.350 C  
HETATM   54  O   UNL     1     -12.300  13.747  63.487  1.00  0.00    -0.893 OA 
HETATM   55  H   UNL     1     -11.768  13.745  62.700  1.00  0.00     0.000 HD 
ENDBRANCH  52  53
ENDBRANCH  50  52
ENDBRANCH  49  50
ENDBRANCH  46  49
ENDBRANCH  39  40
ENDBRANCH  26  39
ENDBRANCH  15  16
ENDBRANCH   6  15
ENDBRANCH   2   4
TORSDOF 13
ENDMDL
MODEL      102
REMARK 921   NORMALIZED FREE ENERGY PREDICTED BY IDOCK:   -3.43 KCAL/MOL
REMARK 922        TOTAL FREE ENERGY PREDICTED BY IDOCK:   -9.50 KCAL/MOL
REMARK 923 INTER-LIGAND FREE ENERGY PREDICTED BY IDOCK:   -6.87 KCAL/MOL
REMARK 924 INTRA-LIGAND FREE ENERGY PREDICTED BY IDOCK:   -2.63 KCAL/MOL
REMARK 927      BINDING AFFINITY PREDICTED BY RF-SCORE:    0.00 PKD
ROOT
HETATM    1  C   UNL     1     -12.123  14.070  71.168  1.00  0.00    -0.274 C  
HETATM    2  N   UNL     1     -12.673  13.065  70.265  1.00  0.00     0.001 NA 
HETATM    3  H   UNL     1     -12.915  13.493  69.371  1.00  0.00     0.000 HD 
ENDROOT
BRANCH   2   4
HETATM    4  C   UNL     1     -11.816  11.862  70.038  1.00  0.00    -0.328 C  
HETATM    5  C   UNL     1     -11.349  11.735  68.566  1.00  0.00    -0.273 C  
HETATM    6  C   UNL     1     -10.333  10.577  68.442  1.00  0.00    -0.176 C  
HETATM    7  O   UNL     1     -10.796  12.966  68.093  1.00  0.00    -0.221 OA 
HETATM    8  H   UNL     1     -10.509  12.888  67.191  1.00  0.00     0.000 HD 
HETATM    9  O   UNL     1     -13.595  10.158  69.925  1.00  0.00    -0.267 OA 
HETATM   10  O   UNL     1     -10.971   9.360  68.831  1.00  0.00    -0.165 OA 
HETATM   11  H   UNL     1     -13.916   9.321  70.238  1.00  0.00     0.000 HD 
HETATM   12  C   UNL     1     -11.339   9.360  70.221  1.00  0.00    -0.220 C  
HETATM   13  C   UNL     1     -12.587  10.489  72.068  1.00  0.00    -0.213 C  
HETATM   14  C   UNL     1     -12.345  10.483  70.554  1.00  0.00    -0.343 C  
BRANCH   6  15
HETATM   15  O   UNL     1      -9.174  10.832  69.238  1.00  0.00    -0.153 OA 
BRANCH  15  16
HETATM   16  C   UNL     1      -7.978  10.129  68.861  1.00  0.00    -0.110 C  
HETATM   17  H1  UNL     1      -4.845  12.007  66.303  1.00  0.00     0.000 HD 
HETATM   18  C   UNL     1      -7.963   9.644  67.394  1.00  0.00    -0.106 C  
HETATM   19  C   UNL     1      -6.791  11.097  69.122  1.00  0.00    -0.102 C  
HETATM   20  H2  UNL     1      -5.672  11.059  65.181  1.00  0.00     0.000 HD 
HETATM   21  C   UNL     1      -6.881  11.866  66.666  1.00  0.00     0.089 C  
HETATM   22  C   UNL     1      -8.024  10.856  66.448  1.00  0.00    -0.157 C  
HETATM   23  O   UNL     1      -5.540  10.379  69.036  1.00  0.00    -0.041 OA 
HETATM   24  H   UNL     1      -4.814  10.972  69.195  1.00  0.00     0.000 HD 
HETATM   25  N   UNL     1      -5.601  11.339  66.159  1.00  0.00    -0.171 NA 
HETATM   26  C   UNL     1      -6.807  12.316  68.156  1.00  0.00    -0.078 C  
BRANCH  18  27
HETATM   27  N   UNL     1      -6.822   8.769  67.126  1.00  0.00    -0.066 N  
HETATM   28  H   UNL     1      -5.961   9.187  66.771  1.00  0.00     0.000 HD 
HETATM   29  C   UNL     1      -6.853   7.408  67.329  1.00  0.00    -0.078 C  
HETATM   30  O   UNL     1      -7.821   6.803  67.777  1.00  0.00    -0.109 OA 
BRANCH  29  31
HETATM   31  C   UNL     1      -5.542   6.687  66.975  1.00  0.00    -0.013 C  
HETATM   32  H   UNL     1      -4.822   4.852  67.070  1.00  0.00     0.000 HD 
HETATM   33  O   UNL     1      -5.633   5.297  67.290  1.00  0.00    -0.012 OA 
BRANCH  31  34
HETATM   34  C   UNL     1      -5.224   6.830  65.486  1.00  0.00    -0.022 C  
BRANCH  34  35
HETATM   35  C   UNL     1      -6.200   6.035  64.618  1.00  0.00    -0.030 C  
HETATM   36  H1  UNL     1      -6.237   5.171  62.759  1.00  0.00     0.000 HD 
HETATM   37  H2  UNL     1      -4.700   5.212  63.458  1.00  0.00     0.000 HD 
HETATM   38  N   UNL     1      -5.586   5.701  63.338  1.00  0.00    -0.014 NA 
ENDBRANCH  34  35
ENDBRANCH  31  34
ENDBRANCH  29  31
ENDBRANCH  18  27
BRANCH  26  39
HETATM   39  O   UNL     1      -7.917  13.193  68.334  1.00  0.00    -0.136 OA 
BRANCH  39  40
HETATM   40  C   UNL     1      -7.805  14.540  67.867  1.00  0.00    -0.147 C  
HETATM   41  H1  UNL     1      -6.188  15.331  70.843  1.00  0.00     0.000 HD 
HETATM   42  O   UNL     1      -9.080  15.188  67.814  1.00  0.00    -0.176 OA 
HETATM   43  H2  UNL     1      -6.775  13.852  70.324  1.00  0.00     0.000 HD 
HETATM   44  N   UNL     1      -6.858  14.865  70.231  1.00  0.00    -0.084 NA 
HETATM   45  C   UNL     1      -6.776  15.256  68.806  1.00  0.00    -0.103 C  
HETATM   46  C   UNL     1      -9.007  16.538  67.511  1.00  0.00    -0.196 C  
HETATM   47  C   UNL     1      -6.780  16.779  68.612  1.00  0.00    -0.174 C  
HETATM   48  C   UNL     1      -7.956  17.297  67.856  1.00  0.00    -0.205 C  
BRANCH  46  49
HETATM   49  C   UNL     1     -10.217  17.109  66.807  1.00  0.00    -0.311 C  
BRANCH  49  50
HETATM   50  N   UNL     1     -10.186  16.920  65.354  1.00  0.00    -0.623 NA 
HETATM   51  H   UNL     1      -9.304  16.508  65.050  1.00  0.00     0.000 HD 
BRANCH  50  52
HETATM   52  C   UNL     1     -11.339  16.129  64.888  1.00  0.00    -0.198 C  
BRANCH  52  53
HETATM   53  C   UNL     1     -11.070  14.630  65.044  1.00  0.00    -0.394 C  
HETATM   54  O   UNL     1      -9.680  14.351  64.897  1.00  0.00    -0.474 OA 
HETATM   55  H   UNL     1      -9.513  13.420  64.994  1.00  0.00     0.000 HD 
ENDBRANCH  52  53
ENDBRANCH  50  52
ENDBRANCH  49  50
ENDBRANCH  46  49
ENDBRANCH  39  40
ENDBRANCH  26  39
ENDBRANCH  15  16
ENDBRANCH   6  15
ENDBRANCH   2   4
TORSDOF 13
ENDMDL
MODEL      103
REMARK 921   NORMALIZED FREE ENERGY PREDICTED BY IDOCK:   -3.43 KCAL/MOL
REMARK 922        TOTAL FREE ENERGY PREDICTED BY IDOCK:   -9.50 KCAL/MOL
REMARK 923 INTER-LIGAND FREE ENERGY PREDICTED BY IDOCK:   -9.16 KCAL/MOL
REMARK 924 INTRA-LIGAND FREE ENERGY PREDICTED BY IDOCK:   -0.33 KCAL/MOL
REMARK 927      BINDING AFFINITY PREDICTED BY RF-SCORE:    0.00 PKD
ROOT
HETATM    1  C   UNL     1     -10.675  11.269  64.539  1.00  0.00    -0.323 C  
HETATM    2  N   UNL     1     -11.724  11.509  65.525  1.00  0.00    -0.128 NA 
HETATM    3  H   UNL     1     -11.857  10.679  66.103  1.00  0.00     0.000 HD 
ENDROOT
BRANCH   2   4
HETATM    4  C   UNL     1     -11.528  12.709  66.394  1.00  0.00    -0.356 C  
HETATM    5  C   UNL     1     -12.023  12.477  67.845  1.00  0.00    -0.223 C  
HETATM    6  C   UNL     1     -11.635  13.687  68.725  1.00  0.00    -0.324 C  
HETATM    7  O   UNL     1     -11.503  11.257  68.378  1.00  0.00    -0.257 OA 
HETATM    8  H   UNL     1     -11.807  11.116  69.267  1.00  0.00     0.000 HD 
HETATM    9  O   UNL     1     -13.466  14.033  65.636  1.00  0.00    -0.713 OA 
HETATM   10  O   UNL     1     -12.265  14.858  68.203  1.00  0.00    -0.173 OA 
HETATM   11  H   UNL     1     -13.782  14.868  65.313  1.00  0.00     0.000 HD 
HETATM   12  C   UNL     1     -11.775  15.201  66.896  1.00  0.00    -0.086 C  
HETATM   13  C   UNL     1     -11.390  14.476  64.535  1.00  0.00    -0.323 C  
HETATM   14  C   UNL     1     -12.049  14.086  65.863  1.00  0.00    -0.428 C  
BRANCH   6  15
HETATM   15  O   UNL     1     -10.215  13.841  68.777  1.00  0.00    -0.226 OA 
BRANCH  15  16
HETATM   16  C   UNL     1      -9.667  14.931  68.016  1.00  0.00    -0.212 C  
HETATM   17  H1  UNL     1      -5.270  15.466  67.494  1.00  0.00     0.000 HD 
HETATM   18  C   UNL     1      -9.044  16.054  68.876  1.00  0.00    -0.235 C  
HETATM   19  C   UNL     1      -8.597  14.320  67.069  1.00  0.00    -0.192 C  
HETATM   20  H2  UNL     1      -5.602  16.579  68.717  1.00  0.00     0.000 HD 
HETATM   21  C   UNL     1      -6.764  14.858  68.797  1.00  0.00    -0.092 C  
HETATM   22  C   UNL     1      -7.856  15.494  69.678  1.00  0.00    -0.128 C  
HETATM   23  O   UNL     1      -8.198  15.295  66.081  1.00  0.00    -0.273 OA 
HETATM   24  H   UNL     1      -7.544  14.921  65.502  1.00  0.00     0.000 HD 
HETATM   25  N   UNL     1      -5.993  15.888  68.077  1.00  0.00    -0.120 NA 
HETATM   26  C   UNL     1      -7.366  13.776  67.850  1.00  0.00    -0.153 C  
BRANCH  18  27
HETATM   27  N   UNL     1      -8.687  17.219  68.066  1.00  0.00    -0.225 N  
HETATM   28  H   UNL     1      -7.824  17.187  67.523  1.00  0.00     0.000 HD 
HETATM   29  C   UNL     1      -9.459  18.356  68.000  1.00  0.00    -0.290 C  
HETATM   30  O   UNL     1     -10.527  18.494  68.587  1.00  0.00    -0.287 OA 
BRANCH  29  31
HETATM   31  C   UNL     1      -8.887  19.456  67.092  1.00  0.00    -0.295 C  
HETATM   32  H   UNL     1      -9.229  21.366  66.732  1.00  0.00     0.000 HD 
HETATM   33  O   UNL     1      -9.583  20.687  67.294  1.00  0.00    -0.451 OA 
BRANCH  31  34
HETATM   34  C   UNL     1      -7.402  19.684  67.376  1.00  0.00    -0.271 C  
BRANCH  34  35
HETATM   35  C   UNL     1      -6.530  19.312  66.177  1.00  0.00    -0.197 C  
HETATM   36  H1  UNL     1      -6.475  17.877  64.714  1.00  0.00     0.000 HD 
HETATM   37  H2  UNL     1      -8.035  18.240  65.251  1.00  0.00     0.000 HD 
HETATM   38  N   UNL     1      -7.057  18.125  65.514  1.00  0.00    -0.526 NA 
ENDBRANCH  34  35
ENDBRANCH  31  34
ENDBRANCH  29  31
ENDBRANCH  18  27
BRANCH  26  39
HETATM   39  O   UNL     1      -7.651  12.662  68.694  1.00  0.00    -0.124 OA 
BRANCH  39  40
HETATM   40  C   UNL     1      -6.676  11.620  68.801  1.00  0.00    -0.077 C  
HETATM   41  H1  UNL     1      -8.236  10.024  66.134  1.00  0.00     0.000 HD 
HETATM   42  O   UNL     1      -6.849  10.858  70.000  1.00  0.00    -0.156 OA 
HETATM   43  H2  UNL     1      -8.619  11.483  66.857  1.00  0.00     0.000 HD 
HETATM   44  N   UNL     1      -8.164  10.579  66.987  1.00  0.00    -0.123 NA 
HETATM   45  C   UNL     1      -6.786  10.767  67.493  1.00  0.00    -0.079 C  
HETATM   46  C   UNL     1      -6.026   9.746  70.077  1.00  0.00    -0.046 C  
HETATM   47  C   UNL     1      -6.012   9.445  67.600  1.00  0.00    -0.052 C  
HETATM   48  C   UNL     1      -5.614   9.079  68.989  1.00  0.00    -0.036 C  
BRANCH  46  49
HETATM   49  C   UNL     1      -5.663   9.307  71.478  1.00  0.00    -0.069 C  
BRANCH  49  50
HETATM   50  N   UNL     1      -6.819   9.208  72.374  1.00  0.00    -0.299 NA 
HETATM   51  H   UNL     1      -7.410  10.036  72.312  1.00  0.00     0.000 HD 
BRANCH  50  52
HETATM   52  C   UNL     1      -7.588   7.975  72.127  1.00  0.00    -0.104 C  
BRANCH  52  53
HETATM   53  C   UNL     1      -8.002   7.318  73.446  1.00  0.00    -0.105 C  
HETATM   54  O   UNL     1      -8.826   8.196  74.208  1.00  0.00    -0.388 OA 
HETATM   55  H   UNL     1      -9.083   7.788  75.027  1.00  0.00     0.000 HD 
ENDBRANCH  52  53
ENDBRANCH  50  52
ENDBRANCH  49  50
ENDBRANCH  46  49
ENDBRANCH  39  40
ENDBRANCH  26  39
ENDBRANCH  15  16
ENDBRANCH   6  15
ENDBRANCH   2   4
TORSDOF 13
ENDMDL
MODEL      104
REMARK 921   NORMALIZED FREE ENERGY PREDICTED BY IDOCK:   -3.40 KCAL/MOL
REMARK 922        TOTAL FREE ENERGY PREDICTED BY IDOCK:   -9.45 KCAL/MOL
REMARK 923 INTER-LIGAND FREE ENERGY PREDICTED BY IDOCK:   -8.66 KCAL/MOL
REMARK 924 INTRA-LIGAND FREE ENERGY PREDICTED BY IDOCK:   -0.79 KCAL/MOL
REMARK 927      BINDING AFFINITY PREDICTED BY RF-SCORE:    0.00 PKD
ROOT
HETATM    1  C   UNL     1     -10.203  17.674  68.928  1.00  0.00    -0.354 C  
HETATM    2  N   UNL     1     -11.538  17.088  68.996  1.00  0.00     0.096 NA 
HETATM    3  H   UNL     1     -12.023  17.220  68.108  1.00  0.00     0.000 HD 
ENDROOT
BRANCH   2   4
HETATM    4  C   UNL     1     -11.591  15.649  69.397  1.00  0.00    -0.370 C  
HETATM    5  C   UNL     1     -12.076  14.731  68.247  1.00  0.00    -0.144 C  
HETATM    6  C   UNL     1     -11.942  13.251  68.672  1.00  0.00    -0.310 C  
HETATM    7  O   UNL     1     -11.356  14.992  67.040  1.00  0.00    -0.346 OA 
HETATM    8  H   UNL     1     -11.654  14.429  66.335  1.00  0.00     0.000 HD 
HETATM    9  O   UNL     1     -13.716  15.693  70.647  1.00  0.00    -0.847 OA 
HETATM   10  O   UNL     1     -12.760  13.025  69.821  1.00  0.00     0.115 OA 
HETATM   11  H   UNL     1     -14.171  15.475  71.452  1.00  0.00     0.000 HD 
HETATM   12  C   UNL     1     -12.305  13.765  70.966  1.00  0.00    -0.372 C  
HETATM   13  C   UNL     1     -11.726  15.993  71.939  1.00  0.00    -0.594 C  
HETATM   14  C   UNL     1     -12.340  15.290  70.723  1.00  0.00    -0.380 C  
BRANCH   6  15
HETATM   15  O   UNL     1     -10.576  12.922  68.936  1.00  0.00    -0.213 OA 
BRANCH  15  16
HETATM   16  C   UNL     1      -9.589  13.699  68.238  1.00  0.00    -0.215 C  
HETATM   17  H1  UNL     1      -6.245  11.792  65.986  1.00  0.00     0.000 HD 
HETATM   18  C   UNL     1      -8.215  13.761  68.943  1.00  0.00     0.089 C  
HETATM   19  C   UNL     1      -9.443  13.069  66.825  1.00  0.00    -0.250 C  
HETATM   20  H2  UNL     1      -5.476  12.234  67.421  1.00  0.00     0.000 HD 
HETATM   21  C   UNL     1      -7.458  11.658  67.662  1.00  0.00    -0.116 C  
HETATM   22  C   UNL     1      -7.615  12.347  69.031  1.00  0.00     0.121 C  
HETATM   23  O   UNL     1      -8.683  13.949  65.968  1.00  0.00    -0.224 OA 
HETATM   24  H   UNL     1      -8.594  13.564  65.104  1.00  0.00     0.000 HD 
HETATM   25  N   UNL     1      -6.348  12.248  66.892  1.00  0.00    -0.156 NA 
HETATM   26  C   UNL     1      -8.806  11.651  66.879  1.00  0.00    -0.190 C  
BRANCH  18  27
HETATM   27  N   UNL     1      -7.319  14.721  68.297  1.00  0.00    -0.107 N  
HETATM   28  H   UNL     1      -7.269  14.729  67.279  1.00  0.00     0.000 HD 
HETATM   29  C   UNL     1      -6.542  15.614  68.999  1.00  0.00    -0.130 C  
HETATM   30  O   UNL     1      -6.543  15.712  70.221  1.00  0.00    -0.044 OA 
BRANCH  29  31
HETATM   31  C   UNL     1      -5.673  16.523  68.115  1.00  0.00    -0.117 C  
HETATM   32  H   UNL     1      -4.606  16.352  66.463  1.00  0.00     0.000 HD 
HETATM   33  O   UNL     1      -5.143  15.790  67.010  1.00  0.00    -0.316 OA 
BRANCH  31  34
HETATM   34  C   UNL     1      -6.485  17.700  67.573  1.00  0.00    -0.177 C  
BRANCH  34  35
HETATM   35  C   UNL     1      -6.939  17.463  66.133  1.00  0.00    -0.263 C  
HETATM   36  H1  UNL     1      -8.613  16.810  65.146  1.00  0.00     0.000 HD 
HETATM   37  H2  UNL     1      -8.947  17.587  66.608  1.00  0.00     0.000 HD 
HETATM   38  N   UNL     1      -8.310  16.968  66.107  1.00  0.00    -0.466 NA 
ENDBRANCH  34  35
ENDBRANCH  31  34
ENDBRANCH  29  31
ENDBRANCH  18  27
BRANCH  26  39
HETATM   39  O   UNL     1      -9.609  10.670  67.533  1.00  0.00    -0.159 OA 
BRANCH  39  40
HETATM   40  C   UNL     1      -9.121   9.328  67.607  1.00  0.00    -0.125 C  
HETATM   41  H1  UNL     1      -9.589   9.075  64.170  1.00  0.00     0.000 HD 
HETATM   42  O   UNL     1     -10.040   8.470  68.292  1.00  0.00    -0.179 OA 
HETATM   43  H2  UNL     1      -9.863  10.383  65.177  1.00  0.00     0.000 HD 
HETATM   44  N   UNL     1      -9.785   9.367  65.128  1.00  0.00    -0.151 NA 
HETATM   45  C   UNL     1      -8.820   8.879  66.138  1.00  0.00    -0.161 C  
HETATM   46  C   UNL     1      -9.683   7.131  68.259  1.00  0.00    -0.144 C  
HETATM   47  C   UNL     1      -8.575   7.366  66.035  1.00  0.00    -0.162 C  
HETATM   48  C   UNL     1      -8.999   6.594  67.238  1.00  0.00    -0.115 C  
BRANCH  46  49
HETATM   49  C   UNL     1     -10.161   6.306  69.433  1.00  0.00    -0.193 C  
BRANCH  49  50
HETATM   50  N   UNL     1      -9.522   6.673  70.700  1.00  0.00    -0.169 NA 
HETATM   51  H   UNL     1      -8.928   7.496  70.593  1.00  0.00     0.000 HD 
BRANCH  50  52
HETATM   52  C   UNL     1     -10.516   6.862  71.771  1.00  0.00    -0.203 C  
BRANCH  52  53
HETATM   53  C   UNL     1     -10.679   8.346  72.108  1.00  0.00    -0.337 C  
HETATM   54  O   UNL     1      -9.799   9.141  71.318  1.00  0.00    -0.283 OA 
HETATM   55  H   UNL     1      -9.900  10.062  71.529  1.00  0.00     0.000 HD 
ENDBRANCH  52  53
ENDBRANCH  50  52
ENDBRANCH  49  50
ENDBRANCH  46  49
ENDBRANCH  39  40
ENDBRANCH  26  39
ENDBRANCH  15  16
ENDBRANCH   6  15
ENDBRANCH   2   4
TORSDOF 13
ENDMDL
MODEL      105
REMARK 921   NORMALIZED FREE ENERGY PREDICTED BY IDOCK:   -3.37 KCAL/MOL
REMARK 922        TOTAL FREE ENERGY PREDICTED BY IDOCK:   -9.40 KCAL/MOL
REMARK 923 INTER-LIGAND FREE ENERGY PREDICTED BY IDOCK:   -7.07 KCAL/MOL
REMARK 924 INTRA-LIGAND FREE ENERGY PREDICTED BY IDOCK:   -2.33 KCAL/MOL
REMARK 927      BINDING AFFINITY PREDICTED BY RF-SCORE:    0.00 PKD
ROOT
HETATM    1  C   UNL     1      -9.684   3.263  64.172  1.00  0.00    -0.157 C  
HETATM    2  N   UNL     1      -8.541   3.560  65.030  1.00  0.00    -0.108 NA 
HETATM    3  H   UNL     1      -7.672   3.428  64.513  1.00  0.00     0.000 HD 
ENDROOT
BRANCH   2   4
HETATM    4  C   UNL     1      -8.552   4.907  65.675  1.00  0.00    -0.131 C  
HETATM    5  C   UNL     1      -9.953   5.297  66.210  1.00  0.00    -0.192 C  
HETATM    6  C   UNL     1      -9.855   6.615  67.011  1.00  0.00    -0.160 C  
HETATM    7  O   UNL     1     -10.514   4.248  67.002  1.00  0.00    -0.129 OA 
HETATM    8  H   UNL     1     -11.373   4.487  67.329  1.00  0.00     0.000 HD 
HETATM    9  O   UNL     1      -8.625   6.291  63.635  1.00  0.00    -0.331 OA 
HETATM   10  O   UNL     1      -9.387   7.649  66.144  1.00  0.00    -0.159 OA 
HETATM   11  H   UNL     1      -8.248   7.016  63.151  1.00  0.00     0.000 HD 
HETATM   12  C   UNL     1      -8.044   7.410  65.690  1.00  0.00    -0.129 C  
HETATM   13  C   UNL     1      -6.454   5.862  64.541  1.00  0.00    -0.034 C  
HETATM   14  C   UNL     1      -7.930   6.102  64.878  1.00  0.00    -0.123 C  
BRANCH   6  15
HETATM   15  O   UNL     1      -8.994   6.458  68.142  1.00  0.00    -0.118 OA 
BRANCH  15  16
HETATM   16  C   UNL     1      -9.626   6.507  69.432  1.00  0.00    -0.144 C  
HETATM   17  H1  UNL     1      -8.634   9.660  72.426  1.00  0.00     0.000 HD 
HETATM   18  C   UNL     1      -8.727   6.034  70.597  1.00  0.00    -0.138 C  
HETATM   19  C   UNL     1     -10.070   7.979  69.655  1.00  0.00    -0.198 C  
HETATM   20  H2  UNL     1      -7.728   8.357  72.997  1.00  0.00     0.000 HD 
HETATM   21  C   UNL     1      -7.878   8.445  70.925  1.00  0.00    -0.098 C  
HETATM   22  C   UNL     1      -7.507   6.964  70.718  1.00  0.00    -0.082 C  
HETATM   23  O   UNL     1     -10.954   8.061  70.795  1.00  0.00    -0.239 OA 
HETATM   24  H   UNL     1     -11.225   8.962  70.931  1.00  0.00     0.000 HD 
HETATM   25  N   UNL     1      -8.388   8.681  72.289  1.00  0.00    -0.368 NA 
HETATM   26  C   UNL     1      -8.856   8.939  69.816  1.00  0.00    -0.144 C  
BRANCH  18  27
HETATM   27  N   UNL     1      -9.480   5.916  71.846  1.00  0.00    -0.151 N  
HETATM   28  H   UNL     1     -10.437   6.268  71.872  1.00  0.00     0.000 HD 
HETATM   29  C   UNL     1      -8.958   5.353  72.988  1.00  0.00    -0.119 C  
HETATM   30  O   UNL     1      -7.832   4.874  73.064  1.00  0.00    -0.092 OA 
BRANCH  29  31
HETATM   31  C   UNL     1      -9.925   5.340  74.183  1.00  0.00    -0.209 C  
HETATM   32  H   UNL     1     -11.034   6.643  75.167  1.00  0.00     0.000 HD 
HETATM   33  O   UNL     1     -10.436   6.651  74.429  1.00  0.00    -0.309 OA 
BRANCH  31  34
HETATM   34  C   UNL     1     -11.102   4.399  73.925  1.00  0.00    -0.264 C  
BRANCH  34  35
HETATM   35  C   UNL     1     -10.737   2.942  74.208  1.00  0.00    -0.145 C  
HETATM   36  H1  UNL     1     -10.541   1.186  73.168  1.00  0.00     0.000 HD 
HETATM   37  H2  UNL     1     -10.198   2.561  72.249  1.00  0.00     0.000 HD 
HETATM   38  N   UNL     1     -10.784   2.158  72.980  1.00  0.00    -0.151 NA 
ENDBRANCH  34  35
ENDBRANCH  31  34
ENDBRANCH  29  31
ENDBRANCH  18  27
BRANCH  26  39
HETATM   39  O   UNL     1      -8.052   9.071  68.646  1.00  0.00    -0.104 OA 
BRANCH  39  40
HETATM   40  C   UNL     1      -8.054  10.324  67.955  1.00  0.00    -0.106 C  
HETATM   41  H1  UNL     1      -4.679  10.644  68.734  1.00  0.00     0.000 HD 
HETATM   42  O   UNL     1      -8.815  11.311  68.657  1.00  0.00    -0.161 OA 
HETATM   43  H2  UNL     1      -5.729   9.393  69.096  1.00  0.00     0.000 HD 
HETATM   44  N   UNL     1      -5.656  10.385  68.871  1.00  0.00    -0.041 NA 
HETATM   45  C   UNL     1      -6.554  10.722  67.744  1.00  0.00    -0.064 C  
HETATM   46  C   UNL     1      -8.725  12.580  68.108  1.00  0.00    -0.190 C  
HETATM   47  C   UNL     1      -6.403  12.179  67.285  1.00  0.00    -0.152 C  
HETATM   48  C   UNL     1      -7.631  13.007  67.460  1.00  0.00    -0.166 C  
BRANCH  46  49
HETATM   49  C   UNL     1      -9.928  13.469  68.331  1.00  0.00    -0.232 C  
BRANCH  49  50
HETATM   50  N   UNL     1     -10.792  13.013  69.423  1.00  0.00    -0.444 NA 
HETATM   51  H   UNL     1     -11.099  13.792  70.006  1.00  0.00     0.000 HD 
BRANCH  50  52
HETATM   52  C   UNL     1     -11.936  12.234  68.918  1.00  0.00    -0.248 C  
BRANCH  52  53
HETATM   53  C   UNL     1     -12.278  11.086  69.870  1.00  0.00    -0.336 C  
HETATM   54  O   UNL     1     -11.456  11.137  71.034  1.00  0.00    -0.206 OA 
HETATM   55  H   UNL     1     -11.668  10.424  71.625  1.00  0.00     0.000 HD 
ENDBRANCH  52  53
ENDBRANCH  50  52
ENDBRANCH  49  50
ENDBRANCH  46  49
ENDBRANCH  39  40
ENDBRANCH  26  39
ENDBRANCH  15  16
ENDBRANCH   6  15
ENDBRANCH   2   4
TORSDOF 13
ENDMDL
MODEL      106
REMARK 921   NORMALIZED FREE ENERGY PREDICTED BY IDOCK:   -3.33 KCAL/MOL
REMARK 922        TOTAL FREE ENERGY PREDICTED BY IDOCK:   -9.32 KCAL/MOL
REMARK 923 INTER-LIGAND FREE ENERGY PREDICTED BY IDOCK:   -9.21 KCAL/MOL
REMARK 924 INTRA-LIGAND FREE ENERGY PREDICTED BY IDOCK:   -0.11 KCAL/MOL
REMARK 927      BINDING AFFINITY PREDICTED BY RF-SCORE:    0.00 PKD
ROOT
HETATM    1  C   UNL     1      -5.389  17.033  71.186  1.00  0.00    -0.008 C  
HETATM    2  N   UNL     1      -5.177  15.746  70.532  1.00  0.00    -0.156 NA 
HETATM    3  H   UNL     1      -5.114  15.005  71.231  1.00  0.00     0.000 HD 
ENDROOT
BRANCH   2   4
HETATM    4  C   UNL     1      -6.182  15.379  69.489  1.00  0.00    -0.141 C  
HETATM    5  C   UNL     1      -5.796  14.090  68.720  1.00  0.00    -0.085 C  
HETATM    6  C   UNL     1      -6.954  13.676  67.785  1.00  0.00    -0.162 C  
HETATM    7  O   UNL     1      -5.453  13.035  69.622  1.00  0.00    -0.079 OA 
HETATM    8  H   UNL     1      -5.216  12.245  69.150  1.00  0.00     0.000 HD 
HETATM    9  O   UNL     1      -5.496  16.976  67.739  1.00  0.00    -0.108 OA 
HETATM   10  O   UNL     1      -7.184  14.725  66.843  1.00  0.00    -0.038 OA 
HETATM   11  H   UNL     1      -5.766  17.651  67.128  1.00  0.00     0.000 HD 
HETATM   12  C   UNL     1      -7.652  15.929  67.474  1.00  0.00    -0.161 C  
HETATM   13  C   UNL     1      -7.251  17.696  69.194  1.00  0.00    -0.153 C  
HETATM   14  C   UNL     1      -6.626  16.492  68.481  1.00  0.00    -0.139 C  
BRANCH   6  15
HETATM   15  O   UNL     1      -8.135  13.388  68.537  1.00  0.00    -0.150 OA 
BRANCH  15  16
HETATM   16  C   UNL     1      -9.379  13.470  67.821  1.00  0.00    -0.213 C  
HETATM   17  H1  UNL     1     -11.863   9.860  66.989  1.00  0.00     0.000 HD 
HETATM   18  C   UNL     1      -9.308  12.956  66.365  1.00  0.00    -0.187 C  
HETATM   19  C   UNL     1     -10.416  12.646  68.634  1.00  0.00    -0.205 C  
HETATM   20  H2  UNL     1     -11.080  10.079  65.511  1.00  0.00     0.000 HD 
HETATM   21  C   UNL     1      -9.929  10.588  67.165  1.00  0.00    -0.193 C  
HETATM   22  C   UNL     1      -8.947  11.461  66.361  1.00  0.00    -0.196 C  
HETATM   23  O   UNL     1     -11.748  12.904  68.140  1.00  0.00    -0.316 OA 
HETATM   24  H   UNL     1     -12.382  12.400  68.637  1.00  0.00     0.000 HD 
HETATM   25  N   UNL     1     -11.213  10.438  66.456  1.00  0.00     0.060 NA 
HETATM   26  C   UNL     1     -10.096  11.124  68.620  1.00  0.00    -0.200 C  
BRANCH  18  27
HETATM   27  N   UNL     1     -10.539  13.248  65.630  1.00  0.00    -0.278 N  
HETATM   28  H   UNL     1     -11.260  12.528  65.585  1.00  0.00     0.000 HD 
HETATM   29  C   UNL     1     -10.770  14.447  64.995  1.00  0.00    -0.423 C  
HETATM   30  O   UNL     1      -9.988  15.391  65.006  1.00  0.00    -0.277 OA 
BRANCH  29  31
HETATM   31  C   UNL     1     -12.128  14.530  64.279  1.00  0.00    -0.425 C  
HETATM   32  H   UNL     1     -13.210  15.909  63.372  1.00  0.00     0.000 HD 
HETATM   33  O   UNL     1     -12.370  15.858  63.814  1.00  0.00    -0.791 OA 
BRANCH  31  34
HETATM   34  C   UNL     1     -12.176  13.579  63.083  1.00  0.00    -0.023 C  
BRANCH  34  35
HETATM   35  C   UNL     1     -12.205  12.114  63.522  1.00  0.00    -0.567 C  
HETATM   36  H1  UNL     1     -13.327  10.906  64.739  1.00  0.00     0.000 HD 
HETATM   37  H2  UNL     1     -14.201  12.179  64.054  1.00  0.00     0.000 HD 
HETATM   38  N   UNL     1     -13.308  11.882  64.446  1.00  0.00    -0.317 NA 
ENDBRANCH  34  35
ENDBRANCH  31  34
ENDBRANCH  29  31
ENDBRANCH  18  27
BRANCH  26  39
HETATM   39  O   UNL     1      -8.885  10.771  69.285  1.00  0.00    -0.128 OA 
BRANCH  39  40
HETATM   40  C   UNL     1      -8.923   9.727  70.263  1.00  0.00    -0.150 C  
HETATM   41  H1  UNL     1      -6.351   8.150  68.533  1.00  0.00     0.000 HD 
HETATM   42  O   UNL     1     -10.125   8.957  70.164  1.00  0.00    -0.179 OA 
HETATM   43  H2  UNL     1      -7.106   9.606  68.200  1.00  0.00     0.000 HD 
HETATM   44  N   UNL     1      -7.201   8.700  68.660  1.00  0.00    -0.075 NA 
HETATM   45  C   UNL     1      -7.620   8.882  70.067  1.00  0.00    -0.066 C  
HETATM   46  C   UNL     1     -10.144   7.843  70.988  1.00  0.00    -0.192 C  
HETATM   47  C   UNL     1      -7.668   7.558  70.843  1.00  0.00    -0.090 C  
HETATM   48  C   UNL     1      -9.027   7.182  71.329  1.00  0.00    -0.147 C  
BRANCH  46  49
HETATM   49  C   UNL     1     -11.515   7.394  71.439  1.00  0.00    -0.263 C  
BRANCH  49  50
HETATM   50  N   UNL     1     -12.049   8.186  72.551  1.00  0.00    -0.533 NA 
HETATM   51  H   UNL     1     -11.335   8.795  72.951  1.00  0.00     0.000 HD 
BRANCH  50  52
HETATM   52  C   UNL     1     -13.243   8.949  72.146  1.00  0.00    -0.429 C  
BRANCH  52  53
HETATM   53  C   UNL     1     -12.848  10.296  71.536  1.00  0.00    -0.452 C  
HETATM   54  O   UNL     1     -13.008  10.272  70.120  1.00  0.00    -0.576 OA 
HETATM   55  H   UNL     1     -12.762  11.108  69.741  1.00  0.00     0.000 HD 
ENDBRANCH  52  53
ENDBRANCH  50  52
ENDBRANCH  49  50
ENDBRANCH  46  49
ENDBRANCH  39  40
ENDBRANCH  26  39
ENDBRANCH  15  16
ENDBRANCH   6  15
ENDBRANCH   2   4
TORSDOF 13
ENDMDL
MODEL      107
REMARK 921   NORMALIZED FREE ENERGY PREDICTED BY IDOCK:   -3.29 KCAL/MOL
REMARK 922        TOTAL FREE ENERGY PREDICTED BY IDOCK:   -9.25 KCAL/MOL
REMARK 923 INTER-LIGAND FREE ENERGY PREDICTED BY IDOCK:   -7.40 KCAL/MOL
REMARK 924 INTRA-LIGAND FREE ENERGY PREDICTED BY IDOCK:   -1.86 KCAL/MOL
REMARK 927      BINDING AFFINITY PREDICTED BY RF-SCORE:    0.00 PKD
ROOT
HETATM    1  C   UNL     1     -12.575  13.805  69.961  1.00  0.00    -0.147 C  
HETATM    2  N   UNL     1     -12.492  12.622  69.110  1.00  0.00     0.210 NA 
HETATM    3  H   UNL     1     -12.082  12.868  68.209  1.00  0.00     0.000 HD 
ENDROOT
BRANCH   2   4
HETATM    4  C   UNL     1     -11.770  11.454  69.698  1.00  0.00    -0.345 C  
HETATM    5  C   UNL     1     -11.286  10.453  68.619  1.00  0.00    -0.248 C  
HETATM    6  C   UNL     1     -10.404   9.367  69.277  1.00  0.00    -0.208 C  
HETATM    7  O   UNL     1     -10.587  11.124  67.568  1.00  0.00    -0.197 OA 
HETATM    8  H   UNL     1     -10.290  10.510  66.907  1.00  0.00     0.000 HD 
HETATM    9  O   UNL     1     -13.726  10.151  70.445  1.00  0.00    -0.337 OA 
HETATM   10  O   UNL     1     -11.184   8.663  70.244  1.00  0.00    -0.249 OA 
HETATM   11  H   UNL     1     -14.147   9.684  71.157  1.00  0.00     0.000 HD 
HETATM   12  C   UNL     1     -11.582   9.506  71.339  1.00  0.00    -0.395 C  
HETATM   13  C   UNL     1     -12.738  11.596  72.073  1.00  0.00    -0.095 C  
HETATM   14  C   UNL     1     -12.463  10.685  70.872  1.00  0.00    -0.397 C  
BRANCH   6  15
HETATM   15  O   UNL     1      -9.242   9.950  69.872  1.00  0.00    -0.219 OA 
BRANCH  15  16
HETATM   16  C   UNL     1      -8.009   9.233  69.692  1.00  0.00    -0.096 C  
HETATM   17  H1  UNL     1      -4.964  10.498  66.689  1.00  0.00     0.000 HD 
HETATM   18  C   UNL     1      -7.961   8.366  68.413  1.00  0.00    -0.118 C  
HETATM   19  C   UNL     1      -6.876  10.296  69.667  1.00  0.00    -0.094 C  
HETATM   20  H2  UNL     1      -5.734   9.237  65.877  1.00  0.00     0.000 HD 
HETATM   21  C   UNL     1      -6.992  10.356  67.095  1.00  0.00    -0.088 C  
HETATM   22  C   UNL     1      -8.080   9.268  67.172  1.00  0.00    -0.109 C  
HETATM   23  O   UNL     1      -5.589   9.648  69.769  1.00  0.00    -0.033 OA 
HETATM   24  H   UNL     1      -4.896  10.298  69.753  1.00  0.00     0.000 HD 
HETATM   25  N   UNL     1      -5.684   9.778  66.740  1.00  0.00    -0.050 NA 
HETATM   26  C   UNL     1      -6.950  11.202  68.404  1.00  0.00    -0.072 C  
BRANCH  18  27
HETATM   27  N   UNL     1      -6.774   7.511  68.385  1.00  0.00    -0.053 N  
HETATM   28  H   UNL     1      -5.928   7.869  67.940  1.00  0.00     0.000 HD 
HETATM   29  C   UNL     1      -6.743   6.248  68.931  1.00  0.00    -0.060 C  
HETATM   30  O   UNL     1      -7.689   5.730  69.513  1.00  0.00    -0.088 OA 
BRANCH  29  31
HETATM   31  C   UNL     1      -5.393   5.529  68.780  1.00  0.00     0.000 C  
HETATM   32  H   UNL     1      -4.307   4.246  69.815  1.00  0.00     0.000 HD 
HETATM   33  O   UNL     1      -5.142   4.691  69.909  1.00  0.00     0.000 OA 
BRANCH  31  34
HETATM   34  C   UNL     1      -5.369   4.667  67.518  1.00  0.00    -0.012 C  
BRANCH  34  35
HETATM   35  C   UNL     1      -6.383   3.525  67.591  1.00  0.00    -0.037 C  
HETATM   36  H1  UNL     1      -6.909   1.877  66.491  1.00  0.00     0.000 HD 
HETATM   37  H2  UNL     1      -5.278   2.293  66.351  1.00  0.00     0.000 HD 
HETATM   38  N   UNL     1      -6.233   2.638  66.443  1.00  0.00    -0.024 NA 
ENDBRANCH  34  35
ENDBRANCH  31  34
ENDBRANCH  29  31
ENDBRANCH  18  27
BRANCH  26  39
HETATM   39  O   UNL     1      -8.106  12.035  68.345  1.00  0.00    -0.151 OA 
BRANCH  39  40
HETATM   40  C   UNL     1      -8.133  13.096  67.386  1.00  0.00    -0.179 C  
HETATM   41  H1  UNL     1      -6.639  15.148  69.764  1.00  0.00     0.000 HD 
HETATM   42  O   UNL     1      -9.470  13.537  67.126  1.00  0.00    -0.227 OA 
HETATM   43  H2  UNL     1      -7.060  13.532  69.882  1.00  0.00     0.000 HD 
HETATM   44  N   UNL     1      -7.250  14.414  69.404  1.00  0.00    -0.118 NA 
HETATM   45  C   UNL     1      -7.197  14.223  67.938  1.00  0.00    -0.158 C  
HETATM   46  C   UNL     1      -9.539  14.662  66.320  1.00  0.00    -0.308 C  
HETATM   47  C   UNL     1      -7.361  15.540  67.166  1.00  0.00    -0.226 C  
HETATM   48  C   UNL     1      -8.579  15.598  66.306  1.00  0.00    -0.265 C  
BRANCH  46  49
HETATM   49  C   UNL     1     -10.796  14.785  65.489  1.00  0.00    -0.351 C  
BRANCH  49  50
HETATM   50  N   UNL     1     -11.553  13.533  65.391  1.00  0.00    -0.310 NA 
HETATM   51  H   UNL     1     -12.499  13.640  65.755  1.00  0.00     0.000 HD 
BRANCH  50  52
HETATM   52  C   UNL     1     -11.561  13.015  64.011  1.00  0.00    -0.430 C  
BRANCH  52  53
HETATM   53  C   UNL     1     -10.244  12.307  63.687  1.00  0.00    -0.403 C  
HETATM   54  O   UNL     1     -10.485  11.114  62.944  1.00  0.00    -0.712 OA 
HETATM   55  H   UNL     1      -9.667  10.674  62.743  1.00  0.00     0.000 HD 
ENDBRANCH  52  53
ENDBRANCH  50  52
ENDBRANCH  49  50
ENDBRANCH  46  49
ENDBRANCH  39  40
ENDBRANCH  26  39
ENDBRANCH  15  16
ENDBRANCH   6  15
ENDBRANCH   2   4
TORSDOF 13
ENDMDL
MODEL      108
REMARK 921   NORMALIZED FREE ENERGY PREDICTED BY IDOCK:   -3.28 KCAL/MOL
REMARK 922        TOTAL FREE ENERGY PREDICTED BY IDOCK:   -9.24 KCAL/MOL
REMARK 923 INTER-LIGAND FREE ENERGY PREDICTED BY IDOCK:   -7.51 KCAL/MOL
REMARK 924 INTRA-LIGAND FREE ENERGY PREDICTED BY IDOCK:   -1.72 KCAL/MOL
REMARK 927      BINDING AFFINITY PREDICTED BY RF-SCORE:    0.00 PKD
ROOT
HETATM    1  C   UNL     1      -9.855  14.318  65.824  1.00  0.00    -0.287 C  
HETATM    2  N   UNL     1     -10.965  14.526  66.749  1.00  0.00    -0.309 NA 
HETATM    3  H   UNL     1     -11.849  14.525  66.239  1.00  0.00     0.000 HD 
ENDROOT
BRANCH   2   4
HETATM    4  C   UNL     1     -11.037  13.571  67.895  1.00  0.00    -0.265 C  
HETATM    5  C   UNL     1     -11.936  12.346  67.592  1.00  0.00    -0.180 C  
HETATM    6  C   UNL     1     -11.827  11.323  68.745  1.00  0.00    -0.329 C  
HETATM    7  O   UNL     1     -11.595  11.754  66.336  1.00  0.00    -0.462 OA 
HETATM    8  H   UNL     1     -12.147  11.003  66.151  1.00  0.00     0.000 HD 
HETATM    9  O   UNL     1     -12.666  14.789  69.289  1.00  0.00    -0.556 OA 
HETATM   10  O   UNL     1     -12.277  11.939  69.953  1.00  0.00    -0.265 OA 
HETATM   11  H   UNL     1     -12.875  15.142  70.145  1.00  0.00     0.000 HD 
HETATM   12  C   UNL     1     -11.424  13.022  70.360  1.00  0.00     0.330 C  
HETATM   13  C   UNL     1     -10.359  15.202  69.760  1.00  0.00    -0.225 C  
HETATM   14  C   UNL     1     -11.380  14.152  69.308  1.00  0.00    -0.281 C  
BRANCH   6  15
HETATM   15  O   UNL     1     -10.486  10.846  68.874  1.00  0.00    -0.185 OA 
BRANCH  15  16
HETATM   16  C   UNL     1     -10.237   9.936  69.959  1.00  0.00    -0.271 C  
HETATM   17  H1  UNL     1      -7.733   6.282  69.446  1.00  0.00     0.000 HD 
HETATM   18  C   UNL     1     -11.032   8.613  69.872  1.00  0.00    -0.168 C  
HETATM   19  C   UNL     1      -8.710   9.650  69.960  1.00  0.00    -0.231 C  
HETATM   20  H2  UNL     1      -9.289   5.639  69.356  1.00  0.00     0.000 HD 
HETATM   21  C   UNL     1      -9.107   7.541  68.537  1.00  0.00    -0.134 C  
HETATM   22  C   UNL     1     -10.616   7.843  68.606  1.00  0.00    -0.145 C  
HETATM   23  O   UNL     1      -8.336   8.972  71.179  1.00  0.00    -0.173 OA 
HETATM   24  H   UNL     1      -7.401   8.796  71.179  1.00  0.00     0.000 HD 
HETATM   25  N   UNL     1      -8.731   6.482  69.492  1.00  0.00    -0.134 NA 
HETATM   26  C   UNL     1      -8.265   8.841  68.707  1.00  0.00    -0.116 C  
BRANCH  18  27
HETATM   27  N   UNL     1     -10.894   7.820  71.093  1.00  0.00    -0.232 N  
HETATM   28  H   UNL     1      -9.994   7.817  71.572  1.00  0.00     0.000 HD 
HETATM   29  C   UNL     1     -11.922   7.076  71.627  1.00  0.00    -0.329 C  
HETATM   30  O   UNL     1     -13.052   7.028  71.153  1.00  0.00    -0.345 OA 
BRANCH  29  31
HETATM   31  C   UNL     1     -11.550   6.316  72.911  1.00  0.00    -0.013 C  
HETATM   32  H   UNL     1     -10.912   4.513  73.397  1.00  0.00     0.000 HD 
HETATM   33  O   UNL     1     -11.142   4.982  72.603  1.00  0.00    -0.234 OA 
BRANCH  31  34
HETATM   34  C   UNL     1     -10.409   7.016  73.650  1.00  0.00    -0.412 C  
BRANCH  34  35
HETATM   35  C   UNL     1      -9.154   6.146  73.712  1.00  0.00    -0.128 C  
HETATM   36  H1  UNL     1      -7.324   6.038  72.793  1.00  0.00     0.000 HD 
HETATM   37  H2  UNL     1      -7.946   7.606  72.883  1.00  0.00     0.000 HD 
HETATM   38  N   UNL     1      -8.162   6.617  72.752  1.00  0.00    -0.108 NA 
ENDBRANCH  34  35
ENDBRANCH  31  34
ENDBRANCH  29  31
ENDBRANCH  18  27
BRANCH  26  39
HETATM   39  O   UNL     1      -8.411   9.541  67.474  1.00  0.00    -0.123 OA 
BRANCH  39  40
HETATM   40  C   UNL     1      -7.546  10.651  67.213  1.00  0.00    -0.100 C  
HETATM   41  H1  UNL     1      -5.246   8.413  65.871  1.00  0.00     0.000 HD 
HETATM   42  O   UNL     1      -7.033  11.215  68.424  1.00  0.00    -0.066 OA 
HETATM   43  H2  UNL     1      -6.764   8.109  66.506  1.00  0.00     0.000 HD 
HETATM   44  N   UNL     1      -5.972   8.751  66.504  1.00  0.00    -0.052 NA 
HETATM   45  C   UNL     1      -6.433  10.133  66.242  1.00  0.00    -0.085 C  
HETATM   46  C   UNL     1      -6.074  12.194  68.221  1.00  0.00    -0.052 C  
HETATM   47  C   UNL     1      -5.270  11.127  66.113  1.00  0.00    -0.137 C  
HETATM   48  C   UNL     1      -5.253  12.189  67.160  1.00  0.00    -0.084 C  
BRANCH  46  49
HETATM   49  C   UNL     1      -5.985  13.246  69.304  1.00  0.00    -0.094 C  
BRANCH  49  50
HETATM   50  N   UNL     1      -5.604  14.568  68.799  1.00  0.00    -0.084 NA 
HETATM   51  H   UNL     1      -5.377  14.537  67.805  1.00  0.00     0.000 HD 
BRANCH  50  52
HETATM   52  C   UNL     1      -6.644  15.573  69.082  1.00  0.00    -0.136 C  
BRANCH  52  53
HETATM   53  C   UNL     1      -6.615  16.696  68.042  1.00  0.00    -0.136 C  
HETATM   54  O   UNL     1      -7.939  17.106  67.708  1.00  0.00    -0.179 OA 
HETATM   55  H   UNL     1      -7.921  17.803  67.062  1.00  0.00     0.000 HD 
ENDBRANCH  52  53
ENDBRANCH  50  52
ENDBRANCH  49  50
ENDBRANCH  46  49
ENDBRANCH  39  40
ENDBRANCH  26  39
ENDBRANCH  15  16
ENDBRANCH   6  15
ENDBRANCH   2   4
TORSDOF 13
ENDMDL
MODEL      109
REMARK 921   NORMALIZED FREE ENERGY PREDICTED BY IDOCK:   -3.24 KCAL/MOL
REMARK 922        TOTAL FREE ENERGY PREDICTED BY IDOCK:   -9.16 KCAL/MOL
REMARK 923 INTER-LIGAND FREE ENERGY PREDICTED BY IDOCK:   -8.05 KCAL/MOL
REMARK 924 INTRA-LIGAND FREE ENERGY PREDICTED BY IDOCK:   -1.10 KCAL/MOL
REMARK 927      BINDING AFFINITY PREDICTED BY RF-SCORE:    0.00 PKD
ROOT
HETATM    1  C   UNL     1     -13.895  13.140  72.107  1.00  0.00    -0.414 C  
HETATM    2  N   UNL     1     -12.604  12.459  72.152  1.00  0.00     0.132 NA 
HETATM    3  H   UNL     1     -12.684  11.594  72.687  1.00  0.00     0.000 HD 
ENDROOT
BRANCH   2   4
HETATM    4  C   UNL     1     -11.975  12.182  70.826  1.00  0.00    -0.023 C  
HETATM    5  C   UNL     1     -12.514  13.110  69.708  1.00  0.00     0.021 C  
HETATM    6  C   UNL     1     -11.702  12.889  68.413  1.00  0.00    -0.345 C  
HETATM    7  O   UNL     1     -12.482  14.480  70.115  1.00  0.00    -0.331 OA 
HETATM    8  H   UNL     1     -12.813  15.048  69.430  1.00  0.00     0.000 HD 
HETATM    9  O   UNL     1     -13.285  10.188  70.205  1.00  0.00    -0.552 OA 
HETATM   10  O   UNL     1     -11.853  11.530  67.999  1.00  0.00    -0.545 OA 
HETATM   11  H   UNL     1     -13.269   9.288  69.902  1.00  0.00     0.000 HD 
HETATM   12  C   UNL     1     -11.276  10.608  68.940  1.00  0.00    -0.275 C  
HETATM   13  C   UNL     1     -11.197   9.779  71.296  1.00  0.00    -0.417 C  
HETATM   14  C   UNL     1     -11.949  10.699  70.327  1.00  0.00    -0.339 C  
BRANCH   6  15
HETATM   15  O   UNL     1     -10.326  13.218  68.615  1.00  0.00    -0.239 OA 
BRANCH  15  16
HETATM   16  C   UNL     1      -9.825  14.341  67.868  1.00  0.00    -0.226 C  
HETATM   17  H1  UNL     1      -5.636  15.801  68.328  1.00  0.00     0.000 HD 
HETATM   18  C   UNL     1      -9.679  15.638  68.696  1.00  0.00    -0.204 C  
HETATM   19  C   UNL     1      -8.450  13.912  67.287  1.00  0.00    -0.200 C  
HETATM   20  H2  UNL     1      -6.484  16.903  69.282  1.00  0.00     0.000 HD 
HETATM   21  C   UNL     1      -7.266  14.977  69.311  1.00  0.00    -0.179 C  
HETATM   22  C   UNL     1      -8.651  15.421  69.820  1.00  0.00    -0.006 C  
HETATM   23  O   UNL     1      -8.009  14.871  66.301  1.00  0.00    -0.092 OA 
HETATM   24  H   UNL     1      -7.167  14.609  65.946  1.00  0.00     0.000 HD 
HETATM   25  N   UNL     1      -6.553  16.094  68.664  1.00  0.00    -0.122 NA 
HETATM   26  C   UNL     1      -7.379  13.718  68.400  1.00  0.00    -0.117 C  
BRANCH  18  27
HETATM   27  N   UNL     1      -9.361  16.786  67.846  1.00  0.00    -0.227 N  
HETATM   28  H   UNL     1      -8.901  16.616  66.951  1.00  0.00     0.000 HD 
HETATM   29  C   UNL     1      -9.652  18.085  68.197  1.00  0.00    -0.301 C  
HETATM   30  O   UNL     1     -10.226  18.403  69.232  1.00  0.00    -0.265 OA 
BRANCH  29  31
HETATM   31  C   UNL     1      -9.222  19.130  67.155  1.00  0.00    -0.297 C  
HETATM   32  H   UNL     1      -9.692  20.988  66.684  1.00  0.00     0.000 HD 
HETATM   33  O   UNL     1      -9.958  20.342  67.328  1.00  0.00    -0.435 OA 
BRANCH  31  34
HETATM   34  C   UNL     1      -7.731  19.445  67.278  1.00  0.00    -0.275 C  
BRANCH  34  35
HETATM   35  C   UNL     1      -6.888  18.575  66.345  1.00  0.00    -0.213 C  
HETATM   36  H1  UNL     1      -6.277  18.580  64.388  1.00  0.00     0.000 HD 
HETATM   37  H2  UNL     1      -6.510  20.125  65.031  1.00  0.00     0.000 HD 
HETATM   38  N   UNL     1      -6.839  19.160  65.011  1.00  0.00    -0.442 NA 
ENDBRANCH  34  35
ENDBRANCH  31  34
ENDBRANCH  29  31
ENDBRANCH  18  27
BRANCH  26  39
HETATM   39  O   UNL     1      -7.647  12.638  69.292  1.00  0.00     0.164 OA 
BRANCH  39  40
HETATM   40  C   UNL     1      -7.988  11.364  68.737  1.00  0.00    -0.122 C  
HETATM   41  H1  UNL     1      -6.666   9.879  71.590  1.00  0.00     0.000 HD 
HETATM   42  O   UNL     1      -7.177  11.051  67.600  1.00  0.00    -0.088 OA 
HETATM   43  H2  UNL     1      -6.793  11.504  71.211  1.00  0.00     0.000 HD 
HETATM   44  N   UNL     1      -6.745  10.558  70.833  1.00  0.00    -0.246 NA 
HETATM   45  C   UNL     1      -7.868  10.322  69.899  1.00  0.00    -0.104 C  
HETATM   46  C   UNL     1      -7.365   9.765  67.118  1.00  0.00    -0.087 C  
HETATM   47  C   UNL     1      -7.913   8.876  69.385  1.00  0.00    -0.100 C  
HETATM   48  C   UNL     1      -7.715   8.743  67.913  1.00  0.00    -0.102 C  
BRANCH  46  49
HETATM   49  C   UNL     1      -7.103   9.584  65.640  1.00  0.00    -0.093 C  
BRANCH  49  50
HETATM   50  N   UNL     1      -7.961   8.571  65.018  1.00  0.00    -0.122 NA 
HETATM   51  H   UNL     1      -8.646   8.995  64.394  1.00  0.00     0.000 HD 
BRANCH  50  52
HETATM   52  C   UNL     1      -7.165   7.542  64.325  1.00  0.00    -0.079 C  
BRANCH  52  53
HETATM   53  C   UNL     1      -5.863   8.134  63.781  1.00  0.00    -0.066 C  
HETATM   54  O   UNL     1      -5.997   8.462  62.401  1.00  0.00    -0.082 OA 
HETATM   55  H   UNL     1      -5.188   8.829  62.063  1.00  0.00     0.000 HD 
ENDBRANCH  52  53
ENDBRANCH  50  52
ENDBRANCH  49  50
ENDBRANCH  46  49
ENDBRANCH  39  40
ENDBRANCH  26  39
ENDBRANCH  15  16
ENDBRANCH   6  15
ENDBRANCH   2   4
TORSDOF 13
ENDMDL
MODEL      110
REMARK 921   NORMALIZED FREE ENERGY PREDICTED BY IDOCK:   -3.23 KCAL/MOL
REMARK 922        TOTAL FREE ENERGY PREDICTED BY IDOCK:   -9.15 KCAL/MOL
REMARK 923 INTER-LIGAND FREE ENERGY PREDICTED BY IDOCK:   -7.62 KCAL/MOL
REMARK 924 INTRA-LIGAND FREE ENERGY PREDICTED BY IDOCK:   -1.53 KCAL/MOL
REMARK 927      BINDING AFFINITY PREDICTED BY RF-SCORE:    0.00 PKD
ROOT
HETATM    1  C   UNL     1      -7.258   5.400  73.329  1.00  0.00    -0.094 C  
HETATM    2  N   UNL     1      -6.530   6.220  72.366  1.00  0.00    -0.058 NA 
HETATM    3  H   UNL     1      -5.730   5.703  72.001  1.00  0.00     0.000 HD 
ENDROOT
BRANCH   2   4
HETATM    4  C   UNL     1      -7.344   6.764  71.237  1.00  0.00    -0.082 C  
HETATM    5  C   UNL     1      -8.457   7.728  71.719  1.00  0.00    -0.112 C  
HETATM    6  C   UNL     1      -9.142   8.382  70.499  1.00  0.00    -0.150 C  
HETATM    7  O   UNL     1      -7.934   8.714  72.613  1.00  0.00    -0.354 OA 
HETATM    8  H   UNL     1      -8.617   9.305  72.909  1.00  0.00     0.000 HD 
HETATM    9  O   UNL     1      -8.799   4.809  70.857  1.00  0.00    -0.114 OA 
HETATM   10  O   UNL     1      -9.733   7.359  69.697  1.00  0.00    -0.163 OA 
HETATM   11  H   UNL     1      -9.153   4.191  70.229  1.00  0.00     0.000 HD 
HETATM   12  C   UNL     1      -8.748   6.483  69.122  1.00  0.00    -0.129 C  
HETATM   13  C   UNL     1      -6.827   4.933  69.511  1.00  0.00    -0.053 C  
HETATM   14  C   UNL     1      -7.928   5.745  70.202  1.00  0.00    -0.100 C  
BRANCH   6  15
HETATM   15  O   UNL     1      -8.205   9.155  69.745  1.00  0.00    -0.110 OA 
BRANCH  15  16
HETATM   16  C   UNL     1      -8.430  10.574  69.715  1.00  0.00     0.127 C  
HETATM   17  H1  UNL     1      -8.995  12.794  65.888  1.00  0.00     0.000 HD 
HETATM   18  C   UNL     1      -7.206  11.401  69.259  1.00  0.00    -0.075 C  
HETATM   19  C   UNL     1      -9.631  10.815  68.760  1.00  0.00    -0.189 C  
HETATM   20  H2  UNL     1      -7.379  13.128  66.236  1.00  0.00     0.000 HD 
HETATM   21  C   UNL     1      -7.996  11.229  66.813  1.00  0.00    -0.159 C  
HETATM   22  C   UNL     1      -6.840  11.028  67.812  1.00  0.00    -0.069 C  
HETATM   23  O   UNL     1     -10.099  12.176  68.888  1.00  0.00    -0.394 OA 
HETATM   24  H   UNL     1     -10.834  12.323  68.303  1.00  0.00     0.000 HD 
HETATM   25  N   UNL     1      -8.230  12.661  66.549  1.00  0.00     0.152 NA 
HETATM   26  C   UNL     1      -9.280  10.479  67.281  1.00  0.00    -0.143 C  
BRANCH  18  27
HETATM   27  N   UNL     1      -7.427  12.836  69.440  1.00  0.00    -0.266 N  
HETATM   28  H   UNL     1      -8.383  13.189  69.401  1.00  0.00     0.000 HD 
HETATM   29  C   UNL     1      -6.406  13.733  69.659  1.00  0.00    -0.116 C  
HETATM   30  O   UNL     1      -5.225  13.417  69.753  1.00  0.00    -0.084 OA 
BRANCH  29  31
HETATM   31  C   UNL     1      -6.869  15.190  69.814  1.00  0.00    -0.179 C  
HETATM   32  H   UNL     1      -6.039  16.950  70.143  1.00  0.00     0.000 HD 
HETATM   33  O   UNL     1      -5.752  16.049  70.047  1.00  0.00    -0.157 OA 
BRANCH  31  34
HETATM   34  C   UNL     1      -7.599  15.669  68.559  1.00  0.00    -0.132 C  
BRANCH  34  35
HETATM   35  C   UNL     1      -9.067  15.986  68.841  1.00  0.00    -0.235 C  
HETATM   36  H1  UNL     1     -10.896  15.652  67.976  1.00  0.00     0.000 HD 
HETATM   37  H2  UNL     1      -9.762  14.441  67.656  1.00  0.00     0.000 HD 
HETATM   38  N   UNL     1      -9.916  15.440  67.789  1.00  0.00    -0.224 NA 
ENDBRANCH  34  35
ENDBRANCH  31  34
ENDBRANCH  29  31
ENDBRANCH  18  27
BRANCH  26  39
HETATM   39  O   UNL     1      -9.012   9.100  67.040  1.00  0.00    -0.121 OA 
BRANCH  39  40
HETATM   40  C   UNL     1      -9.001   8.634  65.687  1.00  0.00    -0.182 C  
HETATM   41  H1  UNL     1      -5.948   7.104  66.346  1.00  0.00     0.000 HD 
HETATM   42  O   UNL     1      -8.821   9.710  64.761  1.00  0.00    -0.180 OA 
HETATM   43  H2  UNL     1      -6.927   7.986  67.376  1.00  0.00     0.000 HD 
HETATM   44  N   UNL     1      -6.674   7.818  66.402  1.00  0.00    -0.053 NA 
HETATM   45  C   UNL     1      -7.886   7.538  65.600  1.00  0.00    -0.110 C  
HETATM   46  C   UNL     1      -8.653   9.295  63.450  1.00  0.00    -0.197 C  
HETATM   47  C   UNL     1      -7.557   7.164  64.148  1.00  0.00    -0.109 C  
HETATM   48  C   UNL     1      -8.084   8.122  63.134  1.00  0.00    -0.127 C  
BRANCH  46  49
HETATM   49  C   UNL     1      -9.113  10.278  62.396  1.00  0.00    -0.288 C  
BRANCH  49  50
HETATM   50  N   UNL     1     -10.493  10.733  62.590  1.00  0.00    -0.724 NA 
HETATM   51  H   UNL     1     -11.063  10.016  63.038  1.00  0.00     0.000 HD 
BRANCH  50  52
HETATM   52  C   UNL     1     -10.542  12.003  63.335  1.00  0.00    -0.428 C  
BRANCH  52  53
HETATM   53  C   UNL     1     -11.988  12.467  63.528  1.00  0.00    -0.538 C  
HETATM   54  O   UNL     1     -12.892  11.577  62.877  1.00  0.00    -0.901 OA 
HETATM   55  H   UNL     1     -13.789  11.866  62.997  1.00  0.00     0.000 HD 
ENDBRANCH  52  53
ENDBRANCH  50  52
ENDBRANCH  49  50
ENDBRANCH  46  49
ENDBRANCH  39  40
ENDBRANCH  26  39
ENDBRANCH  15  16
ENDBRANCH   6  15
ENDBRANCH   2   4
TORSDOF 13
ENDMDL
MODEL      111
REMARK 921   NORMALIZED FREE ENERGY PREDICTED BY IDOCK:   -3.23 KCAL/MOL
REMARK 922        TOTAL FREE ENERGY PREDICTED BY IDOCK:   -9.14 KCAL/MOL
REMARK 923 INTER-LIGAND FREE ENERGY PREDICTED BY IDOCK:   -6.91 KCAL/MOL
REMARK 924 INTRA-LIGAND FREE ENERGY PREDICTED BY IDOCK:   -2.24 KCAL/MOL
REMARK 927      BINDING AFFINITY PREDICTED BY RF-SCORE:    0.00 PKD
ROOT
HETATM    1  C   UNL     1     -10.099  13.857  68.982  1.00  0.00    -0.018 C  
HETATM    2  N   UNL     1     -11.070  12.803  68.706  1.00  0.00    -0.249 NA 
HETATM    3  H   UNL     1     -11.960  13.213  68.421  1.00  0.00     0.000 HD 
ENDROOT
BRANCH   2   4
HETATM    4  C   UNL     1     -10.641  11.774  67.711  1.00  0.00    -0.200 C  
HETATM    5  C   UNL     1      -9.254  11.168  68.046  1.00  0.00    -0.159 C  
HETATM    6  C   UNL     1      -8.952   9.999  67.082  1.00  0.00    -0.135 C  
HETATM    7  O   UNL     1      -9.191  10.748  69.411  1.00  0.00    -0.385 OA 
HETATM    8  H   UNL     1      -8.341  10.376  69.616  1.00  0.00     0.000 HD 
HETATM    9  O   UNL     1      -9.870  13.290  65.925  1.00  0.00    -0.320 OA 
HETATM   10  O   UNL     1      -8.928  10.498  65.744  1.00  0.00    -0.167 OA 
HETATM   11  H   UNL     1      -9.911  13.521  65.004  1.00  0.00     0.000 HD 
HETATM   12  C   UNL     1     -10.214  10.981  65.321  1.00  0.00    -0.284 C  
HETATM   13  C   UNL     1     -12.130  12.526  65.757  1.00  0.00    -0.443 C  
HETATM   14  C   UNL     1     -10.708  12.155  66.194  1.00  0.00    -0.272 C  
BRANCH   6  15
HETATM   15  O   UNL     1      -9.921   8.958  67.229  1.00  0.00    -0.182 OA 
BRANCH  15  16
HETATM   16  C   UNL     1      -9.601   7.701  66.609  1.00  0.00    -0.206 C  
HETATM   17  H1  UNL     1      -8.224   4.184  68.982  1.00  0.00     0.000 HD 
HETATM   18  C   UNL     1      -8.086   7.408  66.514  1.00  0.00    -0.117 C  
HETATM   19  C   UNL     1     -10.313   6.599  67.443  1.00  0.00    -0.220 C  
HETATM   20  H2  UNL     1      -6.765   4.774  68.376  1.00  0.00     0.000 HD 
HETATM   21  C   UNL     1      -8.161   6.250  68.814  1.00  0.00    -0.120 C  
HETATM   22  C   UNL     1      -7.487   7.316  67.929  1.00  0.00    -0.102 C  
HETATM   23  O   UNL     1     -10.275   5.341  66.733  1.00  0.00    -0.195 OA 
HETATM   24  H   UNL     1     -10.710   4.668  67.243  1.00  0.00     0.000 HD 
HETATM   25  N   UNL     1      -7.778   4.889  68.396  1.00  0.00    -0.081 NA 
HETATM   26  C   UNL     1      -9.705   6.458  68.868  1.00  0.00    -0.126 C  
BRANCH  18  27
HETATM   27  N   UNL     1      -7.816   6.221  65.702  1.00  0.00    -0.093 N  
HETATM   28  H   UNL     1      -7.677   5.329  66.177  1.00  0.00     0.000 HD 
HETATM   29  C   UNL     1      -7.740   6.251  64.328  1.00  0.00    -0.107 C  
HETATM   30  O   UNL     1      -7.917   7.260  63.653  1.00  0.00    -0.129 OA 
BRANCH  29  31
HETATM   31  C   UNL     1      -7.440   4.888  63.684  1.00  0.00    -0.056 C  
HETATM   32  H   UNL     1      -5.908   4.001  62.811  1.00  0.00     0.000 HD 
HETATM   33  O   UNL     1      -6.093   4.844  63.209  1.00  0.00    -0.020 OA 
BRANCH  31  34
HETATM   34  C   UNL     1      -7.641   3.752  64.686  1.00  0.00    -0.080 C  
BRANCH  34  35
HETATM   35  C   UNL     1      -8.644   2.716  64.178  1.00  0.00    -0.087 C  
HETATM   36  H1  UNL     1     -10.678   2.473  64.092  1.00  0.00     0.000 HD 
HETATM   37  H2  UNL     1     -10.185   4.088  64.037  1.00  0.00     0.000 HD 
HETATM   38  N   UNL     1     -10.009   3.164  64.431  1.00  0.00    -0.148 NA 
ENDBRANCH  34  35
ENDBRANCH  31  34
ENDBRANCH  29  31
ENDBRANCH  18  27
BRANCH  26  39
HETATM   39  O   UNL     1      -9.896   7.598  69.703  1.00  0.00    -0.177 OA 
BRANCH  39  40
HETATM   40  C   UNL     1     -10.260   7.388  71.071  1.00  0.00    -0.191 C  
HETATM   41  H1  UNL     1      -7.751   9.620  71.977  1.00  0.00     0.000 HD 
HETATM   42  O   UNL     1      -9.924   6.068  71.509  1.00  0.00    -0.174 OA 
HETATM   43  H2  UNL     1      -8.223   9.130  70.448  1.00  0.00     0.000 HD 
HETATM   44  N   UNL     1      -8.205   8.883  71.437  1.00  0.00    -0.268 NA 
HETATM   45  C   UNL     1      -9.563   8.519  71.899  1.00  0.00    -0.283 C  
HETATM   46  C   UNL     1     -10.118   5.863  72.865  1.00  0.00    -0.181 C  
HETATM   47  C   UNL     1      -9.619   8.247  73.409  1.00  0.00    -0.052 C  
HETATM   48  C   UNL     1      -9.996   6.849  73.766  1.00  0.00    -0.345 C  
BRANCH  46  49
HETATM   49  C   UNL     1     -10.432   4.439  73.266  1.00  0.00    -0.187 C  
BRANCH  49  50
HETATM   50  N   UNL     1     -10.277   3.480  72.169  1.00  0.00    -0.129 NA 
HETATM   51  H   UNL     1      -9.676   3.849  71.433  1.00  0.00     0.000 HD 
BRANCH  50  52
HETATM   52  C   UNL     1      -9.792   2.176  72.657  1.00  0.00    -0.119 C  
BRANCH  52  53
HETATM   53  C   UNL     1      -8.285   2.035  72.431  1.00  0.00    -0.054 C  
HETATM   54  O   UNL     1      -7.925   2.506  71.135  1.00  0.00    -0.046 OA 
HETATM   55  H   UNL     1      -6.990   2.418  70.994  1.00  0.00     0.000 HD 
ENDBRANCH  52  53
ENDBRANCH  50  52
ENDBRANCH  49  50
ENDBRANCH  46  49
ENDBRANCH  39  40
ENDBRANCH  26  39
ENDBRANCH  15  16
ENDBRANCH   6  15
ENDBRANCH   2   4
TORSDOF 13
ENDMDL
MODEL      112
REMARK 921   NORMALIZED FREE ENERGY PREDICTED BY IDOCK:   -3.18 KCAL/MOL
REMARK 922        TOTAL FREE ENERGY PREDICTED BY IDOCK:   -9.05 KCAL/MOL
REMARK 923 INTER-LIGAND FREE ENERGY PREDICTED BY IDOCK:   -8.21 KCAL/MOL
REMARK 924 INTRA-LIGAND FREE ENERGY PREDICTED BY IDOCK:   -0.84 KCAL/MOL
REMARK 927      BINDING AFFINITY PREDICTED BY RF-SCORE:    0.00 PKD
ROOT
HETATM    1  C   UNL     1      -8.361   3.336  69.192  1.00  0.00    -0.060 C  
HETATM    2  N   UNL     1      -8.112   3.187  67.761  1.00  0.00    -0.078 NA 
HETATM    3  H   UNL     1      -8.895   2.706  67.318  1.00  0.00     0.000 HD 
ENDROOT
BRANCH   2   4
HETATM    4  C   UNL     1      -7.808   4.451  67.025  1.00  0.00    -0.097 C  
HETATM    5  C   UNL     1      -8.949   4.865  66.061  1.00  0.00    -0.129 C  
HETATM    6  C   UNL     1      -8.647   6.259  65.467  1.00  0.00    -0.119 C  
HETATM    7  O   UNL     1     -10.216   4.844  66.722  1.00  0.00    -0.220 OA 
HETATM    8  H   UNL     1     -10.915   5.098  66.131  1.00  0.00     0.000 HD 
HETATM    9  O   UNL     1      -6.301   3.523  65.307  1.00  0.00    -0.030 OA 
HETATM   10  O   UNL     1      -7.423   6.193  64.733  1.00  0.00    -0.074 OA 
HETATM   11  H   UNL     1      -5.462   3.586  64.866  1.00  0.00     0.000 HD 
HETATM   12  C   UNL     1      -6.295   5.918  65.582  1.00  0.00    -0.042 C  
HETATM   13  C   UNL     1      -5.251   4.399  67.269  1.00  0.00    -0.012 C  
HETATM   14  C   UNL     1      -6.426   4.556  66.297  1.00  0.00    -0.041 C  
BRANCH   6  15
HETATM   15  O   UNL     1      -8.579   7.246  66.499  1.00  0.00    -0.121 OA 
BRANCH  15  16
HETATM   16  C   UNL     1      -9.258   6.928  67.726  1.00  0.00    -0.119 C  
HETATM   17  H1  UNL     1     -11.312  10.050  70.161  1.00  0.00     0.000 HD 
HETATM   18  C   UNL     1      -8.498   7.360  69.001  1.00  0.00    -0.129 C  
HETATM   19  C   UNL     1     -10.645   7.626  67.661  1.00  0.00    -0.224 C  
HETATM   20  H2  UNL     1      -9.860   9.870  70.999  1.00  0.00     0.000 HD 
HETATM   21  C   UNL     1      -9.685   9.645  68.940  1.00  0.00    -0.162 C  
HETATM   22  C   UNL     1      -8.344   8.891  69.018  1.00  0.00    -0.124 C  
HETATM   23  O   UNL     1     -11.494   7.135  68.721  1.00  0.00    -0.424 OA 
HETATM   24  H   UNL     1     -12.342   7.562  68.682  1.00  0.00     0.000 HD 
HETATM   25  N   UNL     1     -10.425   9.551  70.212  1.00  0.00    -0.246 NA 
HETATM   26  C   UNL     1     -10.523   9.177  67.712  1.00  0.00    -0.247 C  
BRANCH  18  27
HETATM   27  N   UNL     1      -9.133   6.837  70.211  1.00  0.00    -0.152 N  
HETATM   28  H   UNL     1     -10.145   6.708  70.211  1.00  0.00     0.000 HD 
HETATM   29  C   UNL     1      -8.431   6.510  71.348  1.00  0.00    -0.125 C  
HETATM   30  O   UNL     1      -7.212   6.596  71.450  1.00  0.00    -0.078 OA 
BRANCH  29  31
HETATM   31  C   UNL     1      -9.304   5.985  72.499  1.00  0.00    -0.141 C  
HETATM   32  H   UNL     1     -10.256   6.735  74.057  1.00  0.00     0.000 HD 
HETATM   33  O   UNL     1      -9.716   7.060  73.346  1.00  0.00    -0.178 OA 
BRANCH  31  34
HETATM   34  C   UNL     1     -10.551   5.281  71.964  1.00  0.00    -0.279 C  
BRANCH  34  35
HETATM   35  C   UNL     1     -11.836   5.959  72.442  1.00  0.00    -0.207 C  
HETATM   36  H1  UNL     1     -13.077   7.475  71.841  1.00  0.00     0.000 HD 
HETATM   37  H2  UNL     1     -12.303   6.687  70.564  1.00  0.00     0.000 HD 
HETATM   38  N   UNL     1     -12.221   7.023  71.523  1.00  0.00    -0.347 NA 
ENDBRANCH  34  35
ENDBRANCH  31  34
ENDBRANCH  29  31
ENDBRANCH  18  27
BRANCH  26  39
HETATM   39  O   UNL     1      -9.875   9.753  66.580  1.00  0.00    -0.196 OA 
BRANCH  39  40
HETATM   40  C   UNL     1     -10.417  10.954  66.022  1.00  0.00    -0.225 C  
HETATM   41  H1  UNL     1      -9.118   9.990  62.943  1.00  0.00     0.000 HD 
HETATM   42  O   UNL     1      -9.731  12.114  66.503  1.00  0.00    -0.212 OA 
HETATM   43  H2  UNL     1      -9.054   9.188  64.410  1.00  0.00     0.000 HD 
HETATM   44  N   UNL     1      -9.156  10.097  63.957  1.00  0.00    -0.232 NA 
HETATM   45  C   UNL     1     -10.359  10.791  64.466  1.00  0.00    -0.331 C  
HETATM   46  C   UNL     1     -10.119  13.289  65.880  1.00  0.00    -0.291 C  
HETATM   47  C   UNL     1     -10.628  12.115  63.737  1.00  0.00    -0.482 C  
HETATM   48  C   UNL     1     -10.547  13.322  64.609  1.00  0.00    -0.421 C  
BRANCH  46  49
HETATM   49  C   UNL     1      -9.980  14.541  66.716  1.00  0.00    -0.264 C  
BRANCH  49  50
HETATM   50  N   UNL     1      -8.689  15.215  66.543  1.00  0.00    -0.399 NA 
HETATM   51  H   UNL     1      -8.076  14.691  65.918  1.00  0.00     0.000 HD 
BRANCH  50  52
HETATM   52  C   UNL     1      -8.863  16.605  66.088  1.00  0.00    -0.288 C  
BRANCH  52  53
HETATM   53  C   UNL     1     -10.307  17.070  66.294  1.00  0.00    -0.306 C  
HETATM   54  O   UNL     1     -10.340  18.309  66.997  1.00  0.00    -0.357 OA 
HETATM   55  H   UNL     1     -11.237  18.598  67.125  1.00  0.00     0.000 HD 
ENDBRANCH  52  53
ENDBRANCH  50  52
ENDBRANCH  49  50
ENDBRANCH  46  49
ENDBRANCH  39  40
ENDBRANCH  26  39
ENDBRANCH  15  16
ENDBRANCH   6  15
ENDBRANCH   2   4
TORSDOF 13
ENDMDL
MODEL      113
REMARK 921   NORMALIZED FREE ENERGY PREDICTED BY IDOCK:   -3.16 KCAL/MOL
REMARK 922        TOTAL FREE ENERGY PREDICTED BY IDOCK:   -9.03 KCAL/MOL
REMARK 923 INTER-LIGAND FREE ENERGY PREDICTED BY IDOCK:   -6.67 KCAL/MOL
REMARK 924 INTRA-LIGAND FREE ENERGY PREDICTED BY IDOCK:   -2.35 KCAL/MOL
REMARK 927      BINDING AFFINITY PREDICTED BY RF-SCORE:    0.00 PKD
ROOT
HETATM    1  C   UNL     1     -11.809  13.997  70.275  1.00  0.00    -0.303 C  
HETATM    2  N   UNL     1     -10.467  14.091  69.710  1.00  0.00    -0.320 NA 
HETATM    3  H   UNL     1      -9.774  13.833  70.413  1.00  0.00     0.000 HD 
ENDROOT
BRANCH   2   4
HETATM    4  C   UNL     1     -10.238  13.309  68.458  1.00  0.00    -0.220 C  
HETATM    5  C   UNL     1      -8.735  13.037  68.195  1.00  0.00    -0.190 C  
HETATM    6  C   UNL     1      -8.583  12.084  66.988  1.00  0.00    -0.185 C  
HETATM    7  O   UNL     1      -8.095  12.508  69.359  1.00  0.00    -0.038 OA 
HETATM    8  H   UNL     1      -7.174  12.342  69.197  1.00  0.00     0.000 HD 
HETATM    9  O   UNL     1     -10.489  15.143  66.828  1.00  0.00    -0.272 OA 
HETATM   10  O   UNL     1      -9.149  12.707  65.834  1.00  0.00    -0.003 OA 
HETATM   11  H   UNL     1     -10.909  15.449  66.033  1.00  0.00     0.000 HD 
HETATM   12  C   UNL     1     -10.569  12.895  65.959  1.00  0.00    -0.270 C  
HETATM   13  C   UNL     1     -12.456  13.860  67.284  1.00  0.00    -0.032 C  
HETATM   14  C   UNL     1     -10.930  13.814  67.147  1.00  0.00    -0.290 C  
BRANCH   6  15
HETATM   15  O   UNL     1      -9.206  10.825  67.254  1.00  0.00    -0.147 OA 
BRANCH  15  16
HETATM   16  C   UNL     1      -8.869   9.749  66.362  1.00  0.00    -0.146 C  
HETATM   17  H1  UNL     1      -8.541   5.531  67.772  1.00  0.00     0.000 HD 
HETATM   18  C   UNL     1      -7.422   9.228  66.515  1.00  0.00    -0.093 C  
HETATM   19  C   UNL     1      -9.887   8.608  66.637  1.00  0.00    -0.266 C  
HETATM   20  H2  UNL     1      -6.921   5.993  67.713  1.00  0.00     0.000 HD 
HETATM   21  C   UNL     1      -8.219   7.518  68.269  1.00  0.00    -0.125 C  
HETATM   22  C   UNL     1      -7.228   8.647  67.926  1.00  0.00    -0.088 C  
HETATM   23  O   UNL     1      -9.797   7.606  65.600  1.00  0.00    -0.132 OA 
HETATM   24  H   UNL     1     -10.420   6.907  65.769  1.00  0.00     0.000 HD 
HETATM   25  N   UNL     1      -7.886   6.278  67.545  1.00  0.00    -0.104 NA 
HETATM   26  C   UNL     1      -9.692   7.976  68.046  1.00  0.00    -0.160 C  
BRANCH  18  27
HETATM   27  N   UNL     1      -7.076   8.280  65.455  1.00  0.00    -0.066 N  
HETATM   28  H   UNL     1      -7.098   7.283  65.669  1.00  0.00     0.000 HD 
HETATM   29  C   UNL     1      -6.722   8.669  64.183  1.00  0.00    -0.075 C  
HETATM   30  O   UNL     1      -6.689   9.836  63.808  1.00  0.00    -0.109 OA 
BRANCH  29  31
HETATM   31  C   UNL     1      -6.392   7.504  63.236  1.00  0.00    -0.054 C  
HETATM   32  H   UNL     1      -5.431   5.783  63.332  1.00  0.00     0.000 HD 
HETATM   33  O   UNL     1      -5.635   6.503  63.918  1.00  0.00    -0.028 OA 
BRANCH  31  34
HETATM   34  C   UNL     1      -7.668   6.863  62.692  1.00  0.00    -0.105 C  
BRANCH  34  35
HETATM   35  C   UNL     1      -7.732   5.368  63.005  1.00  0.00    -0.079 C  
HETATM   36  H1  UNL     1      -8.738   4.115  64.278  1.00  0.00     0.000 HD 
HETATM   37  H2  UNL     1      -9.615   5.493  63.848  1.00  0.00     0.000 HD 
HETATM   38  N   UNL     1      -8.695   5.112  64.069  1.00  0.00    -0.098 NA 
ENDBRANCH  34  35
ENDBRANCH  31  34
ENDBRANCH  29  31
ENDBRANCH  18  27
BRANCH  26  39
HETATM   39  O   UNL     1      -9.974   8.859  69.130  1.00  0.00    -0.179 OA 
BRANCH  39  40
HETATM   40  C   UNL     1     -10.364   8.295  70.385  1.00  0.00    -0.205 C  
HETATM   41  H1  UNL     1     -12.841  10.727  70.594  1.00  0.00     0.000 HD 
HETATM   42  O   UNL     1      -9.372   8.517  71.393  1.00  0.00    -0.170 OA 
HETATM   43  H2  UNL     1     -11.726  10.462  69.375  1.00  0.00     0.000 HD 
HETATM   44  N   UNL     1     -11.930  10.329  70.366  1.00  0.00    -0.293 NA 
HETATM   45  C   UNL     1     -11.762   8.906  70.736  1.00  0.00    -0.230 C  
HETATM   46  C   UNL     1      -9.767   8.122  72.661  1.00  0.00    -0.290 C  
HETATM   47  C   UNL     1     -12.166   8.624  72.190  1.00  0.00    -0.453 C  
HETATM   48  C   UNL     1     -11.049   8.149  73.056  1.00  0.00    -0.174 C  
BRANCH  46  49
HETATM   49  C   UNL     1      -8.647   7.702  73.586  1.00  0.00    -0.213 C  
BRANCH  49  50
HETATM   50  N   UNL     1      -7.740   6.718  72.991  1.00  0.00    -0.093 NA 
HETATM   51  H   UNL     1      -6.942   6.530  73.598  1.00  0.00     0.000 HD 
BRANCH  50  52
HETATM   52  C   UNL     1      -8.450   5.476  72.635  1.00  0.00    -0.117 C  
BRANCH  52  53
HETATM   53  C   UNL     1      -8.247   5.137  71.156  1.00  0.00    -0.116 C  
HETATM   54  O   UNL     1      -9.481   4.752  70.555  1.00  0.00    -0.145 OA 
HETATM   55  H   UNL     1      -9.356   4.541  69.638  1.00  0.00     0.000 HD 
ENDBRANCH  52  53
ENDBRANCH  50  52
ENDBRANCH  49  50
ENDBRANCH  46  49
ENDBRANCH  39  40
ENDBRANCH  26  39
ENDBRANCH  15  16
ENDBRANCH   6  15
ENDBRANCH   2   4
TORSDOF 13
ENDMDL
MODEL      114
REMARK 921   NORMALIZED FREE ENERGY PREDICTED BY IDOCK:   -3.16 KCAL/MOL
REMARK 922        TOTAL FREE ENERGY PREDICTED BY IDOCK:   -9.03 KCAL/MOL
REMARK 923 INTER-LIGAND FREE ENERGY PREDICTED BY IDOCK:   -7.25 KCAL/MOL
REMARK 924 INTRA-LIGAND FREE ENERGY PREDICTED BY IDOCK:   -1.78 KCAL/MOL
REMARK 927      BINDING AFFINITY PREDICTED BY RF-SCORE:    0.00 PKD
ROOT
HETATM    1  C   UNL     1      -7.755   5.412  72.072  1.00  0.00    -0.101 C  
HETATM    2  N   UNL     1      -8.154   5.323  70.671  1.00  0.00    -0.105 NA 
HETATM    3  H   UNL     1      -8.854   4.590  70.553  1.00  0.00     0.000 HD 
ENDROOT
BRANCH   2   4
HETATM    4  C   UNL     1      -8.639   6.595  70.056  1.00  0.00    -0.140 C  
HETATM    5  C   UNL     1      -7.681   7.784  70.319  1.00  0.00    -0.089 C  
HETATM    6  C   UNL     1      -8.151   9.018  69.516  1.00  0.00    -0.105 C  
HETATM    7  O   UNL     1      -6.331   7.439  70.000  1.00  0.00    -0.027 OA 
HETATM    8  H   UNL     1      -5.744   8.168  70.161  1.00  0.00     0.000 HD 
HETATM    9  O   UNL     1     -10.325   7.202  71.750  1.00  0.00    -0.197 OA 
HETATM   10  O   UNL     1      -9.464   9.377  69.950  1.00  0.00    -0.183 OA 
HETATM   11  H   UNL     1     -11.222   7.462  71.923  1.00  0.00     0.000 HD 
HETATM   12  C   UNL     1     -10.435   8.363  69.640  1.00  0.00    -0.221 C  
HETATM   13  C   UNL     1     -11.124   5.971  69.862  1.00  0.00    -0.469 C  
HETATM   14  C   UNL     1     -10.118   7.024  70.341  1.00  0.00    -0.187 C  
BRANCH   6  15
HETATM   15  O   UNL     1      -8.125   8.749  68.112  1.00  0.00    -0.105 OA 
BRANCH  15  16
HETATM   16  C   UNL     1      -8.919   9.616  67.285  1.00  0.00    -0.134 C  
HETATM   17  H1  UNL     1      -8.123  10.092  62.922  1.00  0.00     0.000 HD 
HETATM   18  C   UNL     1      -8.217  10.937  66.895  1.00  0.00    -0.135 C  
HETATM   19  C   UNL     1      -9.287   8.804  66.013  1.00  0.00    -0.232 C  
HETATM   20  H2  UNL     1      -7.393  11.476  63.551  1.00  0.00     0.000 HD 
HETATM   21  C   UNL     1      -7.259   9.810  64.786  1.00  0.00    -0.130 C  
HETATM   22  C   UNL     1      -6.964  10.629  66.057  1.00  0.00    -0.128 C  
HETATM   23  O   UNL     1     -10.308   9.498  65.262  1.00  0.00    -0.175 OA 
HETATM   24  H   UNL     1     -10.533   9.001  64.484  1.00  0.00     0.000 HD 
HETATM   25  N   UNL     1      -7.928  10.634  63.763  1.00  0.00     0.000 NA 
HETATM   26  C   UNL     1      -8.043   8.507  65.127  1.00  0.00    -0.142 C  
BRANCH  18  27
HETATM   27  N   UNL     1      -9.136  11.860  66.227  1.00  0.00    -0.271 N  
HETATM   28  H   UNL     1      -9.226  11.807  65.213  1.00  0.00     0.000 HD 
HETATM   29  C   UNL     1      -9.886  12.795  66.903  1.00  0.00    -0.236 C  
HETATM   30  O   UNL     1      -9.879  12.928  68.122  1.00  0.00    -0.217 OA 
BRANCH  29  31
HETATM   31  C   UNL     1     -10.778  13.661  65.999  1.00  0.00    -0.280 C  
HETATM   32  H   UNL     1     -12.600  13.576  65.247  1.00  0.00     0.000 HD 
HETATM   33  O   UNL     1     -12.049  13.040  65.806  1.00  0.00    -0.411 OA 
BRANCH  31  34
HETATM   34  C   UNL     1     -10.999  15.044  66.612  1.00  0.00    -0.325 C  
BRANCH  34  35
HETATM   35  C   UNL     1     -10.395  16.152  65.748  1.00  0.00    -0.378 C  
HETATM   36  H1  UNL     1     -10.732  17.021  63.922  1.00  0.00     0.000 HD 
HETATM   37  H2  UNL     1     -12.131  16.428  64.660  1.00  0.00     0.000 HD 
HETATM   38  N   UNL     1     -11.134  16.283  64.498  1.00  0.00    -0.717 NA 
ENDBRANCH  34  35
ENDBRANCH  31  34
ENDBRANCH  29  31
ENDBRANCH  18  27
BRANCH  26  39
HETATM   39  O   UNL     1      -7.083   7.644  65.733  1.00  0.00    -0.059 OA 
BRANCH  39  40
HETATM   40  C   UNL     1      -7.147   6.244  65.446  1.00  0.00    -0.068 C  
HETATM   41  H1  UNL     1      -4.327   6.624  63.447  1.00  0.00     0.000 HD 
HETATM   42  O   UNL     1      -8.283   5.924  64.637  1.00  0.00    -0.133 OA 
HETATM   43  H2  UNL     1      -5.138   7.773  64.354  1.00  0.00     0.000 HD 
HETATM   44  N   UNL     1      -5.218   6.876  63.875  1.00  0.00    -0.027 NA 
HETATM   45  C   UNL     1      -5.780   5.857  64.789  1.00  0.00    -0.024 C  
HETATM   46  C   UNL     1      -8.309   4.607  64.207  1.00  0.00    -0.119 C  
HETATM   47  C   UNL     1      -5.818   4.457  64.158  1.00  0.00    -0.014 C  
HETATM   48  C   UNL     1      -7.190   3.899  63.988  1.00  0.00    -0.051 C  
BRANCH  46  49
HETATM   49  C   UNL     1      -9.686   4.034  63.956  1.00  0.00    -0.158 C  
BRANCH  49  50
HETATM   50  N   UNL     1     -10.186   3.218  65.066  1.00  0.00    -0.385 NA 
HETATM   51  H   UNL     1      -9.793   2.277  65.044  1.00  0.00     0.000 HD 
BRANCH  50  52
HETATM   52  C   UNL     1      -9.949   3.871  66.366  1.00  0.00    -0.017 C  
BRANCH  52  53
HETATM   53  C   UNL     1      -9.243   2.918  67.333  1.00  0.00    -0.182 C  
HETATM   54  O   UNL     1      -9.449   3.328  68.683  1.00  0.00    -0.173 OA 
HETATM   55  H   UNL     1      -9.010   2.737  69.283  1.00  0.00     0.000 HD 
ENDBRANCH  52  53
ENDBRANCH  50  52
ENDBRANCH  49  50
ENDBRANCH  46  49
ENDBRANCH  39  40
ENDBRANCH  26  39
ENDBRANCH  15  16
ENDBRANCH   6  15
ENDBRANCH   2   4
TORSDOF 13
ENDMDL
MODEL      115
REMARK 921   NORMALIZED FREE ENERGY PREDICTED BY IDOCK:   -3.16 KCAL/MOL
REMARK 922        TOTAL FREE ENERGY PREDICTED BY IDOCK:   -9.02 KCAL/MOL
REMARK 923 INTER-LIGAND FREE ENERGY PREDICTED BY IDOCK:   -7.02 KCAL/MOL
REMARK 924 INTRA-LIGAND FREE ENERGY PREDICTED BY IDOCK:   -2.00 KCAL/MOL
REMARK 927      BINDING AFFINITY PREDICTED BY RF-SCORE:    0.00 PKD
ROOT
HETATM    1  C   UNL     1      -5.667   3.201  70.721  1.00  0.00    -0.013 C  
HETATM    2  N   UNL     1      -6.435   3.249  71.962  1.00  0.00    -0.014 NA 
HETATM    3  H   UNL     1      -5.872   3.664  72.705  1.00  0.00     0.000 HD 
ENDROOT
BRANCH   2   4
HETATM    4  C   UNL     1      -7.756   3.941  71.876  1.00  0.00    -0.066 C  
HETATM    5  C   UNL     1      -7.723   5.362  72.491  1.00  0.00    -0.102 C  
HETATM    6  C   UNL     1      -9.063   6.080  72.215  1.00  0.00    -0.141 C  
HETATM    7  O   UNL     1      -6.616   6.115  71.989  1.00  0.00    -0.056 OA 
HETATM    8  H   UNL     1      -6.596   6.987  72.367  1.00  0.00     0.000 HD 
HETATM    9  O   UNL     1      -8.877   2.831  73.772  1.00  0.00    -0.074 OA 
HETATM   10  O   UNL     1     -10.119   5.336  72.825  1.00  0.00    -0.161 OA 
HETATM   11  H   UNL     1      -9.642   2.361  74.079  1.00  0.00     0.000 HD 
HETATM   12  C   UNL     1     -10.284   4.038  72.230  1.00  0.00    -0.157 C  
HETATM   13  C   UNL     1      -9.233   1.855  71.618  1.00  0.00    -0.159 C  
HETATM   14  C   UNL     1      -9.018   3.166  72.382  1.00  0.00    -0.091 C  
BRANCH   6  15
HETATM   15  O   UNL     1      -9.279   6.227  70.809  1.00  0.00    -0.153 OA 
BRANCH  15  16
HETATM   16  C   UNL     1     -10.020   7.389  70.399  1.00  0.00    -0.188 C  
HETATM   17  H1  UNL     1      -8.689   9.959  67.006  1.00  0.00     0.000 HD 
HETATM   18  C   UNL     1      -9.377   8.731  70.816  1.00  0.00    -0.208 C  
HETATM   19  C   UNL     1     -10.151   7.310  68.853  1.00  0.00    -0.180 C  
HETATM   20  H2  UNL     1      -8.158  10.853  68.334  1.00  0.00     0.000 HD 
HETATM   21  C   UNL     1      -8.061   8.794  68.603  1.00  0.00    -0.116 C  
HETATM   22  C   UNL     1      -8.003   8.879  70.140  1.00  0.00    -0.111 C  
HETATM   23  O   UNL     1     -11.113   8.283  68.389  1.00  0.00    -0.419 OA 
HETATM   24  H   UNL     1     -11.193   8.235  67.443  1.00  0.00     0.000 HD 
HETATM   25  N   UNL     1      -8.650  10.015  68.023  1.00  0.00    -0.121 NA 
HETATM   26  C   UNL     1      -8.781   7.492  68.138  1.00  0.00    -0.122 C  
BRANCH  18  27
HETATM   27  N   UNL     1     -10.268   9.861  70.551  1.00  0.00    -0.370 N  
HETATM   28  H   UNL     1      -9.997  10.537  69.837  1.00  0.00     0.000 HD 
HETATM   29  C   UNL     1     -11.455  10.056  71.220  1.00  0.00    -0.314 C  
HETATM   30  O   UNL     1     -11.893   9.295  72.076  1.00  0.00    -0.363 OA 
BRANCH  29  31
HETATM   31  C   UNL     1     -12.225  11.313  70.783  1.00  0.00    -0.380 C  
HETATM   32  H   UNL     1     -13.358  11.866  69.264  1.00  0.00     0.000 HD 
HETATM   33  O   UNL     1     -12.882  11.090  69.534  1.00  0.00    -0.188 OA 
BRANCH  31  34
HETATM   34  C   UNL     1     -13.276  11.701  71.823  1.00  0.00    -0.438 C  
BRANCH  34  35
HETATM   35  C   UNL     1     -13.513  13.211  71.857  1.00  0.00    -0.424 C  
HETATM   36  H1  UNL     1     -12.583  14.918  71.205  1.00  0.00     0.000 HD 
HETATM   37  H2  UNL     1     -12.286  13.569  70.232  1.00  0.00     0.000 HD 
HETATM   38  N   UNL     1     -12.426  13.911  71.183  1.00  0.00    -0.359 NA 
ENDBRANCH  34  35
ENDBRANCH  31  34
ENDBRANCH  29  31
ENDBRANCH  18  27
BRANCH  26  39
HETATM   39  O   UNL     1      -7.846   6.443  68.386  1.00  0.00    -0.102 OA 
BRANCH  39  40
HETATM   40  C   UNL     1      -7.564   5.518  67.332  1.00  0.00    -0.089 C  
HETATM   41  H1  UNL     1      -4.208   6.388  67.600  1.00  0.00     0.000 HD 
HETATM   42  O   UNL     1      -8.090   5.969  66.080  1.00  0.00    -0.104 OA 
HETATM   43  H2  UNL     1      -5.513   6.939  68.491  1.00  0.00     0.000 HD 
HETATM   44  N   UNL     1      -5.219   6.524  67.607  1.00  0.00    -0.004 NA 
HETATM   45  C   UNL     1      -6.013   5.308  67.322  1.00  0.00    -0.026 C  
HETATM   46  C   UNL     1      -7.716   5.183  65.002  1.00  0.00    -0.085 C  
HETATM   47  C   UNL     1      -5.537   4.577  66.059  1.00  0.00    -0.017 C  
HETATM   48  C   UNL     1      -6.550   4.520  64.966  1.00  0.00    -0.044 C  
BRANCH  46  49
HETATM   49  C   UNL     1      -8.691   5.163  63.847  1.00  0.00    -0.044 C  
BRANCH  49  50
HETATM   50  N   UNL     1      -8.322   4.214  62.793  1.00  0.00    -0.082 NA 
HETATM   51  H   UNL     1      -7.387   3.836  62.942  1.00  0.00     0.000 HD 
BRANCH  50  52
HETATM   52  C   UNL     1      -9.322   3.140  62.660  1.00  0.00    -0.090 C  
BRANCH  52  53
HETATM   53  C   UNL     1     -10.461   3.328  63.664  1.00  0.00    -0.244 C  
HETATM   54  O   UNL     1     -11.330   2.198  63.657  1.00  0.00    -0.603 OA 
HETATM   55  H   UNL     1     -12.037   2.315  64.280  1.00  0.00     0.000 HD 
ENDBRANCH  52  53
ENDBRANCH  50  52
ENDBRANCH  49  50
ENDBRANCH  46  49
ENDBRANCH  39  40
ENDBRANCH  26  39
ENDBRANCH  15  16
ENDBRANCH   6  15
ENDBRANCH   2   4
TORSDOF 13
ENDMDL
MODEL      116
REMARK 921   NORMALIZED FREE ENERGY PREDICTED BY IDOCK:   -3.15 KCAL/MOL
REMARK 922        TOTAL FREE ENERGY PREDICTED BY IDOCK:   -9.00 KCAL/MOL
REMARK 923 INTER-LIGAND FREE ENERGY PREDICTED BY IDOCK:   -7.80 KCAL/MOL
REMARK 924 INTRA-LIGAND FREE ENERGY PREDICTED BY IDOCK:   -1.20 KCAL/MOL
REMARK 927      BINDING AFFINITY PREDICTED BY RF-SCORE:    0.00 PKD
ROOT
HETATM    1  C   UNL     1     -12.794   8.001  72.292  1.00  0.00    -0.182 C  
HETATM    2  N   UNL     1     -11.543   8.740  72.433  1.00  0.00    -0.319 NA 
HETATM    3  H   UNL     1     -11.283   8.802  73.418  1.00  0.00     0.000 HD 
ENDROOT
BRANCH   2   4
HETATM    4  C   UNL     1     -10.394   8.219  71.634  1.00  0.00    -0.224 C  
HETATM    5  C   UNL     1     -10.850   7.463  70.361  1.00  0.00    -0.243 C  
HETATM    6  C   UNL     1      -9.619   7.105  69.499  1.00  0.00    -0.154 C  
HETATM    7  O   UNL     1     -11.800   8.231  69.618  1.00  0.00    -0.078 OA 
HETATM    8  H   UNL     1     -12.080   7.767  68.838  1.00  0.00     0.000 HD 
HETATM    9  O   UNL     1      -9.879   6.223  72.987  1.00  0.00    -0.164 OA 
HETATM   10  O   UNL     1      -8.756   6.256  70.257  1.00  0.00    -0.139 OA 
HETATM   11  H   UNL     1      -9.215   5.720  73.444  1.00  0.00     0.000 HD 
HETATM   12  C   UNL     1      -8.203   6.926  71.403  1.00  0.00    -0.110 C  
HETATM   13  C   UNL     1      -8.637   8.199  73.509  1.00  0.00    -0.313 C  
HETATM   14  C   UNL     1      -9.299   7.391  72.386  1.00  0.00    -0.144 C  
BRANCH   6  15
HETATM   15  O   UNL     1      -8.937   8.288  69.073  1.00  0.00    -0.146 OA 
BRANCH  15  16
HETATM   16  C   UNL     1      -9.594   9.069  68.060  1.00  0.00    -0.148 C  
HETATM   17  H1  UNL     1      -7.644   9.987  64.156  1.00  0.00     0.000 HD 
HETATM   18  C   UNL     1      -9.060  10.513  67.927  1.00  0.00    -0.136 C  
HETATM   19  C   UNL     1      -9.417   8.301  66.721  1.00  0.00    -0.198 C  
HETATM   20  H2  UNL     1      -7.395  11.424  65.003  1.00  0.00     0.000 HD 
HETATM   21  C   UNL     1      -7.333   9.718  66.188  1.00  0.00    -0.101 C  
HETATM   22  C   UNL     1      -7.581  10.480  67.504  1.00  0.00    -0.093 C  
HETATM   23  O   UNL     1     -10.277   8.868  65.709  1.00  0.00    -0.351 OA 
HETATM   24  H   UNL     1     -10.169   8.399  64.890  1.00  0.00     0.000 HD 
HETATM   25  N   UNL     1      -7.808  10.492  65.027  1.00  0.00    -0.103 NA 
HETATM   26  C   UNL     1      -7.934   8.281  66.250  1.00  0.00    -0.100 C  
BRANCH  18  27
HETATM   27  N   UNL     1      -9.892  11.315  67.030  1.00  0.00    -0.189 N  
HETATM   28  H   UNL     1      -9.480  11.657  66.161  1.00  0.00     0.000 HD 
HETATM   29  C   UNL     1     -11.203  11.632  67.302  1.00  0.00    -0.304 C  
HETATM   30  O   UNL     1     -11.807  11.254  68.299  1.00  0.00    -0.516 OA 
BRANCH  29  31
HETATM   31  C   UNL     1     -11.881  12.490  66.222  1.00  0.00    -0.390 C  
HETATM   32  H   UNL     1     -13.025  14.097  66.151  1.00  0.00     0.000 HD 
HETATM   33  O   UNL     1     -12.606  13.567  66.819  1.00  0.00    -0.237 OA 
BRANCH  31  34
HETATM   34  C   UNL     1     -10.849  13.074  65.257  1.00  0.00    -0.311 C  
BRANCH  34  35
HETATM   35  C   UNL     1     -11.495  13.565  63.962  1.00  0.00    -0.320 C  
HETATM   36  H1  UNL     1     -13.019  13.009  62.708  1.00  0.00     0.000 HD 
HETATM   37  H2  UNL     1     -13.272  12.572  64.320  1.00  0.00     0.000 HD 
HETATM   38  N   UNL     1     -12.588  12.682  63.572  1.00  0.00    -0.740 NA 
ENDBRANCH  34  35
ENDBRANCH  31  34
ENDBRANCH  29  31
ENDBRANCH  18  27
BRANCH  26  39
HETATM   39  O   UNL     1      -7.056   7.549  67.102  1.00  0.00    -0.080 OA 
BRANCH  39  40
HETATM   40  C   UNL     1      -6.885   6.148  66.864  1.00  0.00    -0.062 C  
HETATM   41  H1  UNL     1      -4.260   6.935  64.723  1.00  0.00     0.000 HD 
HETATM   42  O   UNL     1      -7.980   5.603  66.120  1.00  0.00    -0.102 OA 
HETATM   43  H2  UNL     1      -5.222   7.960  65.630  1.00  0.00     0.000 HD 
HETATM   44  N   UNL     1      -5.163   7.045  65.184  1.00  0.00    -0.027 NA 
HETATM   45  C   UNL     1      -5.500   5.980  66.155  1.00  0.00    -0.013 C  
HETATM   46  C   UNL     1      -7.791   4.286  65.734  1.00  0.00    -0.094 C  
HETATM   47  C   UNL     1      -5.317   4.571  65.572  1.00  0.00    -0.013 C  
HETATM   48  C   UNL     1      -6.576   3.776  65.484  1.00  0.00    -0.040 C  
BRANCH  46  49
HETATM   49  C   UNL     1      -9.055   3.473  65.567  1.00  0.00    -0.147 C  
BRANCH  49  50
HETATM   50  N   UNL     1      -9.832   3.348  66.803  1.00  0.00    -0.373 NA 
HETATM   51  H   UNL     1     -10.816   3.162  66.609  1.00  0.00     0.000 HD 
BRANCH  50  52
HETATM   52  C   UNL     1      -9.259   2.329  67.700  1.00  0.00    -0.168 C  
BRANCH  52  53
HETATM   53  C   UNL     1      -8.607   2.981  68.922  1.00  0.00    -0.074 C  
HETATM   54  O   UNL     1      -9.453   2.867  70.063  1.00  0.00    -0.153 OA 
HETATM   55  H   UNL     1      -9.049   3.273  70.821  1.00  0.00     0.000 HD 
ENDBRANCH  52  53
ENDBRANCH  50  52
ENDBRANCH  49  50
ENDBRANCH  46  49
ENDBRANCH  39  40
ENDBRANCH  26  39
ENDBRANCH  15  16
ENDBRANCH   6  15
ENDBRANCH   2   4
TORSDOF 13
ENDMDL
MODEL      117
REMARK 921   NORMALIZED FREE ENERGY PREDICTED BY IDOCK:   -3.14 KCAL/MOL
REMARK 922        TOTAL FREE ENERGY PREDICTED BY IDOCK:   -8.98 KCAL/MOL
REMARK 923 INTER-LIGAND FREE ENERGY PREDICTED BY IDOCK:   -8.27 KCAL/MOL
REMARK 924 INTRA-LIGAND FREE ENERGY PREDICTED BY IDOCK:   -0.71 KCAL/MOL
REMARK 927      BINDING AFFINITY PREDICTED BY RF-SCORE:    0.00 PKD
ROOT
HETATM    1  C   UNL     1      -9.833  18.861  67.878  1.00  0.00    -0.345 C  
HETATM    2  N   UNL     1      -9.158  17.902  67.009  1.00  0.00    -0.248 NA 
HETATM    3  H   UNL     1      -8.572  18.395  66.334  1.00  0.00     0.000 HD 
ENDROOT
BRANCH   2   4
HETATM    4  C   UNL     1      -8.359  16.851  67.707  1.00  0.00    -0.194 C  
HETATM    5  C   UNL     1      -9.047  16.343  68.999  1.00  0.00    -0.252 C  
HETATM    6  C   UNL     1      -8.258  15.144  69.572  1.00  0.00    -0.160 C  
HETATM    7  O   UNL     1     -10.412  15.997  68.754  1.00  0.00    -0.226 OA 
HETATM    8  H   UNL     1     -10.834  15.686  69.546  1.00  0.00     0.000 HD 
HETATM    9  O   UNL     1      -6.711  18.314  68.814  1.00  0.00    -0.232 OA 
HETATM   10  O   UNL     1      -6.934  15.575  69.892  1.00  0.00    -0.162 OA 
HETATM   11  H   UNL     1      -5.794  18.495  68.983  1.00  0.00     0.000 HD 
HETATM   12  C   UNL     1      -6.191  15.961  68.723  1.00  0.00    -0.109 C  
HETATM   13  C   UNL     1      -6.066  17.414  66.694  1.00  0.00    -0.239 C  
HETATM   14  C   UNL     1      -6.848  17.149  67.986  1.00  0.00    -0.169 C  
BRANCH   6  15
HETATM   15  O   UNL     1      -8.239  14.059  68.642  1.00  0.00    -0.143 OA 
BRANCH  15  16
HETATM   16  C   UNL     1      -9.437  13.862  67.871  1.00  0.00    -0.212 C  
HETATM   17  H1  UNL     1     -10.779   9.805  66.594  1.00  0.00     0.000 HD 
HETATM   18  C   UNL     1      -9.186  13.536  66.381  1.00  0.00    -0.119 C  
HETATM   19  C   UNL     1     -10.220  12.706  68.553  1.00  0.00    -0.201 C  
HETATM   20  H2  UNL     1     -10.051  10.379  65.185  1.00  0.00     0.000 HD 
HETATM   21  C   UNL     1      -9.134  11.021  66.936  1.00  0.00    -0.156 C  
HETATM   22  C   UNL     1      -8.418  12.208  66.265  1.00  0.00     0.140 C  
HETATM   23  O   UNL     1     -11.557  12.630  68.013  1.00  0.00    -0.300 OA 
HETATM   24  H   UNL     1     -12.036  11.923  68.430  1.00  0.00     0.000 HD 
HETATM   25  N   UNL     1     -10.305  10.591  66.149  1.00  0.00    -0.233 NA 
HETATM   26  C   UNL     1      -9.483  11.342  68.421  1.00  0.00    -0.192 C  
BRANCH  18  27
HETATM   27  N   UNL     1     -10.429  13.545  65.611  1.00  0.00    -0.286 N  
HETATM   28  H   UNL     1     -10.967  12.680  65.545  1.00  0.00     0.000 HD 
HETATM   29  C   UNL     1     -10.909  14.664  64.969  1.00  0.00    -0.417 C  
HETATM   30  O   UNL     1     -10.361  15.761  65.002  1.00  0.00    -0.468 OA 
BRANCH  29  31
HETATM   31  C   UNL     1     -12.229  14.441  64.214  1.00  0.00    -0.423 C  
HETATM   32  H   UNL     1     -13.477  15.513  63.123  1.00  0.00     0.000 HD 
HETATM   33  O   UNL     1     -12.660  15.651  63.589  1.00  0.00    -0.476 OA 
BRANCH  31  34
HETATM   34  C   UNL     1     -12.070  13.367  63.137  1.00  0.00    -0.138 C  
BRANCH  34  35
HETATM   35  C   UNL     1     -12.452  11.981  63.656  1.00  0.00    -0.525 C  
HETATM   36  H1  UNL     1     -13.777  11.159  64.988  1.00  0.00     0.000 HD 
HETATM   37  H2  UNL     1     -14.329  12.587  64.274  1.00  0.00     0.000 HD 
HETATM   38  N   UNL     1     -13.522  12.084  64.641  1.00  0.00    -0.017 NA 
ENDBRANCH  34  35
ENDBRANCH  31  34
ENDBRANCH  29  31
ENDBRANCH  18  27
BRANCH  26  39
HETATM   39  O   UNL     1      -8.240  11.276  69.116  1.00  0.00    -0.077 OA 
BRANCH  39  40
HETATM   40  C   UNL     1      -7.983  10.140  69.948  1.00  0.00    -0.135 C  
HETATM   41  H1  UNL     1      -4.585  10.616  69.378  1.00  0.00     0.000 HD 
HETATM   42  O   UNL     1      -8.419   8.925  69.330  1.00  0.00    -0.119 OA 
HETATM   43  H2  UNL     1      -5.883  11.514  68.820  1.00  0.00     0.000 HD 
HETATM   44  N   UNL     1      -5.583  10.602  69.163  1.00  0.00    -0.041 NA 
HETATM   45  C   UNL     1      -6.453  10.162  70.277  1.00  0.00    -0.128 C  
HETATM   46  C   UNL     1      -8.058   7.784  70.028  1.00  0.00    -0.118 C  
HETATM   47  C   UNL     1      -5.979   8.846  70.910  1.00  0.00    -0.041 C  
HETATM   48  C   UNL     1      -6.946   7.718  70.774  1.00  0.00    -0.046 C  
BRANCH  46  49
HETATM   49  C   UNL     1      -8.982   6.599  69.852  1.00  0.00    -0.144 C  
BRANCH  49  50
HETATM   50  N   UNL     1      -9.882   6.730  68.703  1.00  0.00    -0.141 NA 
HETATM   51  H   UNL     1      -9.882   7.682  68.336  1.00  0.00     0.000 HD 
BRANCH  50  52
HETATM   52  C   UNL     1      -9.561   5.748  67.652  1.00  0.00    -0.114 C  
BRANCH  52  53
HETATM   53  C   UNL     1     -10.729   5.594  66.674  1.00  0.00    -0.268 C  
HETATM   54  O   UNL     1     -10.266   5.141  65.405  1.00  0.00    -0.401 OA 
HETATM   55  H   UNL     1     -10.991   5.046  64.798  1.00  0.00     0.000 HD 
ENDBRANCH  52  53
ENDBRANCH  50  52
ENDBRANCH  49  50
ENDBRANCH  46  49
ENDBRANCH  39  40
ENDBRANCH  26  39
ENDBRANCH  15  16
ENDBRANCH   6  15
ENDBRANCH   2   4
TORSDOF 13
ENDMDL
MODEL      118
REMARK 921   NORMALIZED FREE ENERGY PREDICTED BY IDOCK:   -3.12 KCAL/MOL
REMARK 922        TOTAL FREE ENERGY PREDICTED BY IDOCK:   -8.95 KCAL/MOL
REMARK 923 INTER-LIGAND FREE ENERGY PREDICTED BY IDOCK:   -6.40 KCAL/MOL
REMARK 924 INTRA-LIGAND FREE ENERGY PREDICTED BY IDOCK:   -2.54 KCAL/MOL
REMARK 927      BINDING AFFINITY PREDICTED BY RF-SCORE:    0.00 PKD
ROOT
HETATM    1  C   UNL     1     -10.380  13.968  64.928  1.00  0.00    -0.409 C  
HETATM    2  N   UNL     1     -11.478  13.853  65.883  1.00  0.00    -0.318 NA 
HETATM    3  H   UNL     1     -12.243  13.316  65.473  1.00  0.00     0.000 HD 
ENDROOT
BRANCH   2   4
HETATM    4  C   UNL     1     -11.116  13.287  67.217  1.00  0.00    -0.279 C  
HETATM    5  C   UNL     1     -11.910  11.999  67.551  1.00  0.00    -0.205 C  
HETATM    6  C   UNL     1     -11.366  11.377  68.856  1.00  0.00    -0.270 C  
HETATM    7  O   UNL     1     -11.859  11.067  66.469  1.00  0.00    -0.006 OA 
HETATM    8  H   UNL     1     -12.346  10.277  66.674  1.00  0.00     0.000 HD 
HETATM    9  O   UNL     1     -12.434  14.815  68.635  1.00  0.00    -0.583 OA 
HETATM   10  O   UNL     1     -11.537  12.314  69.921  1.00  0.00    -0.276 OA 
HETATM   11  H   UNL     1     -12.440  15.404  69.380  1.00  0.00     0.000 HD 
HETATM   12  C   UNL     1     -10.742  13.497  69.735  1.00  0.00     0.445 C  
HETATM   13  C   UNL     1     -10.153  15.428  68.262  1.00  0.00    -0.218 C  
HETATM   14  C   UNL     1     -11.125  14.257  68.446  1.00  0.00    -0.256 C  
BRANCH   6  15
HETATM   15  O   UNL     1      -9.993  11.007  68.707  1.00  0.00    -0.195 OA 
BRANCH  15  16
HETATM   16  C   UNL     1      -9.421  10.245  69.784  1.00  0.00    -0.091 C  
HETATM   17  H1  UNL     1      -7.219   6.434  69.068  1.00  0.00     0.000 HD 
HETATM   18  C   UNL     1     -10.208   8.965  70.144  1.00  0.00    -0.196 C  
HETATM   19  C   UNL     1      -7.972   9.886  69.354  1.00  0.00    -0.135 C  
HETATM   20  H2  UNL     1      -8.728   5.864  69.561  1.00  0.00     0.000 HD 
HETATM   21  C   UNL     1      -8.804   7.621  68.454  1.00  0.00    -0.130 C  
HETATM   22  C   UNL     1     -10.214   8.006  68.942  1.00  0.00    -0.220 C  
HETATM   23  O   UNL     1      -7.236   9.366  70.484  1.00  0.00    -0.094 OA 
HETATM   24  H   UNL     1      -6.350   9.146  70.220  1.00  0.00     0.000 HD 
HETATM   25  N   UNL     1      -8.152   6.688  69.391  1.00  0.00    -0.118 NA 
HETATM   26  C   UNL     1      -7.945   8.888  68.160  1.00  0.00    -0.102 C  
BRANCH  18  27
HETATM   27  N   UNL     1      -9.697   8.344  71.367  1.00  0.00    -0.182 N  
HETATM   28  H   UNL     1      -8.688   8.247  71.478  1.00  0.00     0.000 HD 
HETATM   29  C   UNL     1     -10.513   7.883  72.375  1.00  0.00    -0.277 C  
HETATM   30  O   UNL     1     -11.736   7.973  72.361  1.00  0.00    -0.343 OA 
BRANCH  29  31
HETATM   31  C   UNL     1      -9.760   7.261  73.562  1.00  0.00    -0.269 C  
HETATM   32  H   UNL     1     -10.214   6.396  75.277  1.00  0.00     0.000 HD 
HETATM   33  O   UNL     1     -10.680   6.781  74.543  1.00  0.00     0.045 OA 
BRANCH  31  34
HETATM   34  C   UNL     1      -8.883   6.096  73.104  1.00  0.00    -0.130 C  
BRANCH  34  35
HETATM   35  C   UNL     1      -9.703   4.830  72.857  1.00  0.00    -0.139 C  
HETATM   36  H1  UNL     1      -9.495   3.041  71.876  1.00  0.00     0.000 HD 
HETATM   37  H2  UNL     1      -8.038   3.675  72.449  1.00  0.00     0.000 HD 
HETATM   38  N   UNL     1      -8.948   3.886  72.041  1.00  0.00    -0.111 NA 
ENDBRANCH  34  35
ENDBRANCH  31  34
ENDBRANCH  29  31
ENDBRANCH  18  27
BRANCH  26  39
HETATM   39  O   UNL     1      -8.468   9.416  66.943  1.00  0.00    -0.125 OA 
BRANCH  39  40
HETATM   40  C   UNL     1      -7.831   9.054  65.714  1.00  0.00    -0.098 C  
HETATM   41  H1  UNL     1     -10.298  10.832  64.027  1.00  0.00     0.000 HD 
HETATM   42  O   UNL     1      -7.963   7.655  65.444  1.00  0.00    -0.108 OA 
HETATM   43  H2  UNL     1     -10.090  10.624  65.674  1.00  0.00     0.000 HD 
HETATM   44  N   UNL     1      -9.896  10.237  64.751  1.00  0.00    -0.328 NA 
HETATM   45  C   UNL     1      -8.448   9.968  64.603  1.00  0.00    -0.176 C  
HETATM   46  C   UNL     1      -7.493   7.281  64.195  1.00  0.00    -0.099 C  
HETATM   47  C   UNL     1      -8.079   9.490  63.191  1.00  0.00    -0.149 C  
HETATM   48  C   UNL     1      -7.523   8.107  63.138  1.00  0.00    -0.117 C  
BRANCH  46  49
HETATM   49  C   UNL     1      -6.989   5.860  64.092  1.00  0.00    -0.051 C  
BRANCH  49  50
HETATM   50  N   UNL     1      -5.791   5.609  64.900  1.00  0.00    -0.021 NA 
HETATM   51  H   UNL     1      -5.609   6.378  65.545  1.00  0.00     0.000 HD 
BRANCH  50  52
HETATM   52  C   UNL     1      -5.878   4.320  65.608  1.00  0.00    -0.022 C  
BRANCH  52  53
HETATM   53  C   UNL     1      -5.796   4.523  67.123  1.00  0.00    -0.023 C  
HETATM   54  O   UNL     1      -6.261   5.822  67.482  1.00  0.00    -0.028 OA 
HETATM   55  H   UNL     1      -6.210   5.948  68.422  1.00  0.00     0.000 HD 
ENDBRANCH  52  53
ENDBRANCH  50  52
ENDBRANCH  49  50
ENDBRANCH  46  49
ENDBRANCH  39  40
ENDBRANCH  26  39
ENDBRANCH  15  16
ENDBRANCH   6  15
ENDBRANCH   2   4
TORSDOF 13
ENDMDL
MODEL      119
REMARK 921   NORMALIZED FREE ENERGY PREDICTED BY IDOCK:   -3.11 KCAL/MOL
REMARK 922        TOTAL FREE ENERGY PREDICTED BY IDOCK:   -8.94 KCAL/MOL
REMARK 923 INTER-LIGAND FREE ENERGY PREDICTED BY IDOCK:   -6.94 KCAL/MOL
REMARK 924 INTRA-LIGAND FREE ENERGY PREDICTED BY IDOCK:   -2.00 KCAL/MOL
REMARK 927      BINDING AFFINITY PREDICTED BY RF-SCORE:    0.00 PKD
ROOT
HETATM    1  C   UNL     1      -9.905  10.776  64.790  1.00  0.00    -0.300 C  
HETATM    2  N   UNL     1      -8.586  11.349  65.041  1.00  0.00    -0.362 NA 
HETATM    3  H   UNL     1      -8.670  12.348  65.231  1.00  0.00     0.000 HD 
ENDROOT
BRANCH   2   4
HETATM    4  C   UNL     1      -7.791  10.689  66.119  1.00  0.00    -0.152 C  
HETATM    5  C   UNL     1      -7.763  11.518  67.428  1.00  0.00    -0.143 C  
HETATM    6  C   UNL     1      -7.075  10.703  68.546  1.00  0.00    -0.069 C  
HETATM    7  O   UNL     1      -9.081  11.920  67.812  1.00  0.00    -0.168 OA 
HETATM    8  H   UNL     1      -9.063  12.429  68.614  1.00  0.00     0.000 HD 
HETATM    9  O   UNL     1      -5.533  11.302  65.340  1.00  0.00    -0.478 OA 
HETATM   10  O   UNL     1      -5.733  10.419  68.150  1.00  0.00    -0.041 OA 
HETATM   11  H   UNL     1      -4.657  11.005  65.124  1.00  0.00     0.000 HD 
HETATM   12  C   UNL     1      -5.676   9.559  66.999  1.00  0.00    -0.051 C  
HETATM   13  C   UNL     1      -6.353   9.173  64.625  1.00  0.00    -0.071 C  
HETATM   14  C   UNL     1      -6.348  10.198  65.764  1.00  0.00    -0.102 C  
BRANCH   6  15
HETATM   15  O   UNL     1      -7.801   9.501  68.816  1.00  0.00    -0.082 OA 
BRANCH  15  16
HETATM   16  C   UNL     1      -8.822   9.590  69.825  1.00  0.00    -0.199 C  
HETATM   17  H1  UNL     1     -10.500   5.963  71.806  1.00  0.00     0.000 HD 
HETATM   18  C   UNL     1     -10.230   9.180  69.340  1.00  0.00    -0.210 C  
HETATM   19  C   UNL     1      -8.368   8.678  70.998  1.00  0.00    -0.161 C  
HETATM   20  H2  UNL     1     -11.695   6.309  70.667  1.00  0.00     0.000 HD 
HETATM   21  C   UNL     1      -9.764   6.742  70.030  1.00  0.00    -0.163 C  
HETATM   22  C   UNL     1     -10.222   7.701  68.915  1.00  0.00    -0.217 C  
HETATM   23  O   UNL     1      -9.190   8.923  72.161  1.00  0.00    -0.364 OA 
HETATM   24  H   UNL     1      -8.912   8.364  72.878  1.00  0.00     0.000 HD 
HETATM   25  N   UNL     1     -10.803   6.598  71.067  1.00  0.00    -0.236 NA 
HETATM   26  C   UNL     1      -8.382   7.171  70.609  1.00  0.00    -0.126 C  
BRANCH  18  27
HETATM   27  N   UNL     1     -11.254   9.479  70.341  1.00  0.00    -0.257 N  
HETATM   28  H   UNL     1     -11.598   8.718  70.928  1.00  0.00     0.000 HD 
HETATM   29  C   UNL     1     -11.777  10.738  70.530  1.00  0.00    -0.351 C  
HETATM   30  O   UNL     1     -11.420  11.730  69.904  1.00  0.00    -0.272 OA 
BRANCH  29  31
HETATM   31  C   UNL     1     -12.845  10.818  71.633  1.00  0.00    -0.457 C  
HETATM   32  H   UNL     1     -14.050  12.186  72.391  1.00  0.00     0.000 HD 
HETATM   33  O   UNL     1     -13.389  12.136  71.709  1.00  0.00    -0.407 OA 
BRANCH  31  34
HETATM   34  C   UNL     1     -13.985   9.836  71.363  1.00  0.00    -0.026 C  
BRANCH  34  35
HETATM   35  C   UNL     1     -13.963   8.657  72.337  1.00  0.00    -0.371 C  
HETATM   36  H1  UNL     1     -12.674   7.823  73.697  1.00  0.00     0.000 HD 
HETATM   37  H2  UNL     1     -12.481   9.492  73.514  1.00  0.00     0.000 HD 
HETATM   38  N   UNL     1     -12.690   8.609  73.047  1.00  0.00    -0.094 NA 
ENDBRANCH  34  35
ENDBRANCH  31  34
ENDBRANCH  29  31
ENDBRANCH  18  27
BRANCH  26  39
HETATM   39  O   UNL     1      -7.434   6.815  69.604  1.00  0.00    -0.091 OA 
BRANCH  39  40
HETATM   40  C   UNL     1      -6.830   5.520  69.665  1.00  0.00    -0.060 C  
HETATM   41  H1  UNL     1      -7.088   5.348  66.201  1.00  0.00     0.000 HD 
HETATM   42  O   UNL     1      -7.702   4.560  70.271  1.00  0.00    -0.055 OA 
HETATM   43  H2  UNL     1      -7.533   6.590  67.230  1.00  0.00     0.000 HD 
HETATM   44  N   UNL     1      -7.361   5.588  67.154  1.00  0.00    -0.079 NA 
HETATM   45  C   UNL     1      -6.411   5.151  68.202  1.00  0.00    -0.048 C  
HETATM   46  C   UNL     1      -7.225   3.261  70.218  1.00  0.00    -0.041 C  
HETATM   47  C   UNL     1      -6.025   3.671  68.068  1.00  0.00    -0.027 C  
HETATM   48  C   UNL     1      -6.441   2.822  69.221  1.00  0.00    -0.029 C  
BRANCH  46  49
HETATM   49  C   UNL     1      -7.688   2.355  71.337  1.00  0.00    -0.040 C  
BRANCH  49  50
HETATM   50  N   UNL     1      -8.333   3.076  72.437  1.00  0.00    -0.073 NA 
HETATM   51  H   UNL     1      -8.075   4.063  72.439  1.00  0.00     0.000 HD 
BRANCH  50  52
HETATM   52  C   UNL     1      -9.796   2.901  72.412  1.00  0.00    -0.158 C  
BRANCH  52  53
HETATM   53  C   UNL     1     -10.355   2.776  73.832  1.00  0.00    -0.141 C  
HETATM   54  O   UNL     1     -11.395   1.802  73.879  1.00  0.00    -0.170 OA 
HETATM   55  H   UNL     1     -11.742   1.725  74.760  1.00  0.00     0.000 HD 
ENDBRANCH  52  53
ENDBRANCH  50  52
ENDBRANCH  49  50
ENDBRANCH  46  49
ENDBRANCH  39  40
ENDBRANCH  26  39
ENDBRANCH  15  16
ENDBRANCH   6  15
ENDBRANCH   2   4
TORSDOF 13
ENDMDL
MODEL      120
REMARK 921   NORMALIZED FREE ENERGY PREDICTED BY IDOCK:   -3.11 KCAL/MOL
REMARK 922        TOTAL FREE ENERGY PREDICTED BY IDOCK:   -8.93 KCAL/MOL
REMARK 923 INTER-LIGAND FREE ENERGY PREDICTED BY IDOCK:   -8.20 KCAL/MOL
REMARK 924 INTRA-LIGAND FREE ENERGY PREDICTED BY IDOCK:   -0.73 KCAL/MOL
REMARK 927      BINDING AFFINITY PREDICTED BY RF-SCORE:    0.00 PKD
ROOT
HETATM    1  C   UNL     1      -6.491   7.636  65.632  1.00  0.00    -0.042 C  
HETATM    2  N   UNL     1      -5.680   8.051  66.773  1.00  0.00    -0.036 NA 
HETATM    3  H   UNL     1      -5.131   8.876  66.529  1.00  0.00     0.000 HD 
ENDROOT
BRANCH   2   4
HETATM    4  C   UNL     1      -6.429   8.293  68.042  1.00  0.00    -0.057 C  
HETATM    5  C   UNL     1      -6.027   9.626  68.723  1.00  0.00    -0.042 C  
HETATM    6  C   UNL     1      -6.956   9.894  69.928  1.00  0.00    -0.105 C  
HETATM    7  O   UNL     1      -6.056  10.710  67.792  1.00  0.00    -0.047 OA 
HETATM    8  H   UNL     1      -5.809  11.527  68.209  1.00  0.00     0.000 HD 
HETATM    9  O   UNL     1      -5.132   6.809  69.524  1.00  0.00    -0.013 OA 
HETATM   10  O   UNL     1      -6.809   8.831  70.870  1.00  0.00    -0.053 OA 
HETATM   11  H   UNL     1      -5.153   6.108  70.165  1.00  0.00     0.000 HD 
HETATM   12  C   UNL     1      -7.266   7.573  70.345  1.00  0.00    -0.064 C  
HETATM   13  C   UNL     1      -7.091   5.860  68.534  1.00  0.00    -0.081 C  
HETATM   14  C   UNL     1      -6.463   7.139  69.099  1.00  0.00    -0.036 C  
BRANCH   6  15
HETATM   15  O   UNL     1      -8.315  10.025  69.502  1.00  0.00    -0.145 OA 
BRANCH  15  16
HETATM   16  C   UNL     1      -8.545  10.880  68.369  1.00  0.00    -0.146 C  
HETATM   17  H1  UNL     1     -12.580  12.546  67.455  1.00  0.00     0.000 HD 
HETATM   18  C   UNL     1      -9.279  10.193  67.195  1.00  0.00    -0.138 C  
HETATM   19  C   UNL     1      -9.369  12.091  68.886  1.00  0.00     0.174 C  
HETATM   20  H2  UNL     1     -12.496  11.254  66.373  1.00  0.00     0.000 HD 
HETATM   21  C   UNL     1     -11.546  10.905  68.189  1.00  0.00    -0.241 C  
HETATM   22  C   UNL     1     -10.681   9.750  67.649  1.00  0.00    -0.334 C  
HETATM   23  O   UNL     1      -9.406  13.129  67.882  1.00  0.00    -0.199 OA 
HETATM   24  H   UNL     1      -9.910  13.870  68.198  1.00  0.00     0.000 HD 
HETATM   25  N   UNL     1     -12.008  11.782  67.097  1.00  0.00    -0.595 NA 
HETATM   26  C   UNL     1     -10.806  11.680  69.321  1.00  0.00    -0.152 C  
BRANCH  18  27
HETATM   27  N   UNL     1      -9.307  11.043  66.005  1.00  0.00    -0.194 N  
HETATM   28  H   UNL     1      -9.374  12.054  66.131  1.00  0.00     0.000 HD 
HETATM   29  C   UNL     1      -9.247  10.546  64.723  1.00  0.00    -0.227 C  
HETATM   30  O   UNL     1      -9.136   9.355  64.454  1.00  0.00    -0.217 OA 
BRANCH  29  31
HETATM   31  C   UNL     1      -9.298  11.622  63.626  1.00  0.00    -0.042 C  
HETATM   32  H   UNL     1      -9.372  11.684  61.655  1.00  0.00     0.000 HD 
HETATM   33  O   UNL     1      -9.341  11.018  62.333  1.00  0.00    -0.275 OA 
BRANCH  31  34
HETATM   34  C   UNL     1     -10.530  12.512  63.789  1.00  0.00    -0.451 C  
BRANCH  34  35
HETATM   35  C   UNL     1     -11.826  11.739  63.547  1.00  0.00    -0.378 C  
HETATM   36  H1  UNL     1     -13.846  12.051  63.713  1.00  0.00     0.000 HD 
HETATM   37  H2  UNL     1     -12.968  13.453  63.370  1.00  0.00     0.000 HD 
HETATM   38  N   UNL     1     -12.981  12.567  63.874  1.00  0.00    -0.750 NA 
ENDBRANCH  34  35
ENDBRANCH  31  34
ENDBRANCH  29  31
ENDBRANCH  18  27
BRANCH  26  39
HETATM   39  O   UNL     1     -10.852  10.815  70.454  1.00  0.00    -0.143 OA 
BRANCH  39  40
HETATM   40  C   UNL     1     -11.795   9.739  70.452  1.00  0.00    -0.193 C  
HETATM   41  H1  UNL     1     -13.865  11.681  72.461  1.00  0.00     0.000 HD 
HETATM   42  O   UNL     1     -11.310   8.613  71.190  1.00  0.00    -0.255 OA 
HETATM   43  H2  UNL     1     -12.370  12.060  71.812  1.00  0.00     0.000 HD 
HETATM   44  N   UNL     1     -12.989  11.303  72.101  1.00  0.00    -0.286 NA 
HETATM   45  C   UNL     1     -13.139  10.319  71.005  1.00  0.00    -0.373 C  
HETATM   46  C   UNL     1     -12.245   7.602  71.344  1.00  0.00    -0.326 C  
HETATM   47  C   UNL     1     -14.151   9.214  71.340  1.00  0.00    -0.194 C  
HETATM   48  C   UNL     1     -13.563   7.845  71.406  1.00  0.00    -0.310 C  
BRANCH  46  49
HETATM   49  C   UNL     1     -11.675   6.209  71.486  1.00  0.00    -0.201 C  
BRANCH  49  50
HETATM   50  N   UNL     1     -11.874   5.634  72.820  1.00  0.00    -0.513 NA 
HETATM   51  H   UNL     1     -12.263   4.693  72.767  1.00  0.00     0.000 HD 
BRANCH  50  52
HETATM   52  C   UNL     1     -10.628   5.658  73.608  1.00  0.00    -0.280 C  
BRANCH  52  53
HETATM   53  C   UNL     1      -9.445   5.164  72.772  1.00  0.00    -0.142 C  
HETATM   54  O   UNL     1      -9.000   3.891  73.233  1.00  0.00    -0.105 OA 
HETATM   55  H   UNL     1      -8.265   3.585  72.715  1.00  0.00     0.000 HD 
ENDBRANCH  52  53
ENDBRANCH  50  52
ENDBRANCH  49  50
ENDBRANCH  46  49
ENDBRANCH  39  40
ENDBRANCH  26  39
ENDBRANCH  15  16
ENDBRANCH   6  15
ENDBRANCH   2   4
TORSDOF 13
ENDMDL
MODEL      121
REMARK 921   NORMALIZED FREE ENERGY PREDICTED BY IDOCK:   -3.10 KCAL/MOL
REMARK 922        TOTAL FREE ENERGY PREDICTED BY IDOCK:   -8.92 KCAL/MOL
REMARK 923 INTER-LIGAND FREE ENERGY PREDICTED BY IDOCK:   -8.63 KCAL/MOL
REMARK 924 INTRA-LIGAND FREE ENERGY PREDICTED BY IDOCK:   -0.29 KCAL/MOL
REMARK 927      BINDING AFFINITY PREDICTED BY RF-SCORE:    0.00 PKD
ROOT
HETATM    1  C   UNL     1     -14.225  12.953  72.525  1.00  0.00     0.127 C  
HETATM    2  N   UNL     1     -13.657  13.046  71.183  1.00  0.00     0.246 NA 
HETATM    3  H   UNL     1     -14.400  12.998  70.486  1.00  0.00     0.000 HD 
ENDROOT
BRANCH   2   4
HETATM    4  C   UNL     1     -12.795  14.239  70.929  1.00  0.00    -0.347 C  
HETATM    5  C   UNL     1     -11.390  13.855  70.400  1.00  0.00     0.120 C  
HETATM    6  C   UNL     1     -10.619  15.132  69.998  1.00  0.00    -0.216 C  
HETATM    7  O   UNL     1     -11.484  12.937  69.308  1.00  0.00    -0.268 OA 
HETATM    8  H   UNL     1     -10.623  12.701  68.984  1.00  0.00     0.000 HD 
HETATM    9  O   UNL     1     -12.112  14.702  73.253  1.00  0.00    -0.206 OA 
HETATM   10  O   UNL     1     -10.467  15.962  71.151  1.00  0.00     0.278 OA 
HETATM   11  H   UNL     1     -12.034  15.346  73.947  1.00  0.00     0.000 HD 
HETATM   12  C   UNL     1     -11.729  16.450  71.638  1.00  0.00    -0.307 C  
HETATM   13  C   UNL     1     -14.024  15.898  72.458  1.00  0.00    -0.424 C  
HETATM   14  C   UNL     1     -12.666  15.302  72.072  1.00  0.00    -0.352 C  
BRANCH   6  15
HETATM   15  O   UNL     1     -11.297  15.823  68.947  1.00  0.00    -0.309 OA 
BRANCH  15  16
HETATM   16  C   UNL     1     -10.613  16.959  68.390  1.00  0.00    -0.365 C  
HETATM   17  H1  UNL     1      -8.451  16.735  64.496  1.00  0.00     0.000 HD 
HETATM   18  C   UNL     1      -9.074  16.893  68.507  1.00  0.00    -0.257 C  
HETATM   19  C   UNL     1     -11.039  17.048  66.898  1.00  0.00     0.273 C  
HETATM   20  H2  UNL     1      -7.179  16.598  65.596  1.00  0.00     0.000 HD 
HETATM   21  C   UNL     1      -8.947  15.704  66.225  1.00  0.00    -0.342 C  
HETATM   22  C   UNL     1      -8.546  15.685  67.713  1.00  0.00    -0.168 C  
HETATM   23  O   UNL     1     -10.621  18.313  66.340  1.00  0.00    -0.374 OA 
HETATM   24  H   UNL     1     -10.881  18.367  65.428  1.00  0.00     0.000 HD 
HETATM   25  N   UNL     1      -8.185  16.723  65.480  1.00  0.00     0.201 NA 
HETATM   26  C   UNL     1     -10.490  15.857  66.061  1.00  0.00    -0.345 C  
BRANCH  18  27
HETATM   27  N   UNL     1      -8.448  18.154  68.110  1.00  0.00    -0.266 N  
HETATM   28  H   UNL     1      -7.670  18.124  67.451  1.00  0.00     0.000 HD 
HETATM   29  C   UNL     1      -8.857  19.380  68.584  1.00  0.00    -0.373 C  
HETATM   30  O   UNL     1      -9.797  19.537  69.356  1.00  0.00    -0.379 OA 
BRANCH  29  31
HETATM   31  C   UNL     1      -8.052  20.569  68.037  1.00  0.00     0.031 C  
HETATM   32  H   UNL     1      -6.243  21.325  68.265  1.00  0.00     0.000 HD 
HETATM   33  O   UNL     1      -6.741  20.589  68.603  1.00  0.00    -0.263 OA 
BRANCH  31  34
HETATM   34  C   UNL     1      -7.923  20.490  66.515  1.00  0.00    -0.134 C  
BRANCH  34  35
HETATM   35  C   UNL     1      -6.475  20.270  66.077  1.00  0.00    -0.213 C  
HETATM   36  H1  UNL     1      -5.466  19.414  64.512  1.00  0.00     0.000 HD 
HETATM   37  H2  UNL     1      -6.977  20.036  64.086  1.00  0.00     0.000 HD 
HETATM   38  N   UNL     1      -6.431  19.561  64.804  1.00  0.00    -0.411 NA 
ENDBRANCH  34  35
ENDBRANCH  31  34
ENDBRANCH  29  31
ENDBRANCH  18  27
BRANCH  26  39
HETATM   39  O   UNL     1     -11.029  14.587  66.423  1.00  0.00    -0.312 OA 
BRANCH  39  40
HETATM   40  C   UNL     1     -10.489  13.416  65.804  1.00  0.00    -0.290 C  
HETATM   41  H1  UNL     1     -13.678  12.694  64.618  1.00  0.00     0.000 HD 
HETATM   42  O   UNL     1     -10.093  12.441  66.774  1.00  0.00    -0.211 OA 
HETATM   43  H2  UNL     1     -13.164  13.999  65.532  1.00  0.00     0.000 HD 
HETATM   44  N   UNL     1     -12.970  13.032  65.272  1.00  0.00    -0.710 NA 
HETATM   45  C   UNL     1     -11.574  12.898  64.801  1.00  0.00    -0.331 C  
HETATM   46  C   UNL     1      -9.704  11.231  66.223  1.00  0.00    -0.216 C  
HETATM   47  C   UNL     1     -11.258  11.486  64.286  1.00  0.00    -0.358 C  
HETATM   48  C   UNL     1     -10.214  10.767  65.072  1.00  0.00    -0.373 C  
BRANCH  46  49
HETATM   49  C   UNL     1      -8.698  10.444  67.033  1.00  0.00    -0.130 C  
BRANCH  49  50
HETATM   50  N   UNL     1      -9.314   9.598  68.059  1.00  0.00    -0.132 NA 
HETATM   51  H   UNL     1     -10.248   9.927  68.303  1.00  0.00     0.000 HD 
BRANCH  50  52
HETATM   52  C   UNL     1      -9.330   8.182  67.651  1.00  0.00    -0.140 C  
BRANCH  52  53
HETATM   53  C   UNL     1     -10.748   7.609  67.726  1.00  0.00    -0.145 C  
HETATM   54  O   UNL     1     -10.906   6.810  68.895  1.00  0.00    -0.239 OA 
HETATM   55  H   UNL     1     -11.786   6.454  68.941  1.00  0.00     0.000 HD 
ENDBRANCH  52  53
ENDBRANCH  50  52
ENDBRANCH  49  50
ENDBRANCH  46  49
ENDBRANCH  39  40
ENDBRANCH  26  39
ENDBRANCH  15  16
ENDBRANCH   6  15
ENDBRANCH   2   4
TORSDOF 13
ENDMDL
MODEL      122
REMARK 921   NORMALIZED FREE ENERGY PREDICTED BY IDOCK:   -3.03 KCAL/MOL
REMARK 922        TOTAL FREE ENERGY PREDICTED BY IDOCK:   -8.79 KCAL/MOL
REMARK 923 INTER-LIGAND FREE ENERGY PREDICTED BY IDOCK:   -7.82 KCAL/MOL
REMARK 924 INTRA-LIGAND FREE ENERGY PREDICTED BY IDOCK:   -0.97 KCAL/MOL
REMARK 927      BINDING AFFINITY PREDICTED BY RF-SCORE:    0.00 PKD
ROOT
HETATM    1  C   UNL     1     -10.573   3.942  63.412  1.00  0.00    -0.173 C  
HETATM    2  N   UNL     1      -9.360   4.679  63.754  1.00  0.00    -0.328 NA 
HETATM    3  H   UNL     1      -9.397   5.618  63.356  1.00  0.00     0.000 HD 
ENDROOT
BRANCH   2   4
HETATM    4  C   UNL     1      -9.041   4.756  65.211  1.00  0.00    -0.155 C  
HETATM    5  C   UNL     1      -8.313   6.070  65.591  1.00  0.00    -0.145 C  
HETATM    6  C   UNL     1      -8.170   6.159  67.127  1.00  0.00    -0.106 C  
HETATM    7  O   UNL     1      -8.997   7.209  65.064  1.00  0.00    -0.342 OA 
HETATM    8  H   UNL     1      -8.550   8.015  65.297  1.00  0.00     0.000 HD 
HETATM    9  O   UNL     1      -7.047   3.304  65.229  1.00  0.00    -0.059 OA 
HETATM   10  O   UNL     1      -7.393   5.052  67.584  1.00  0.00    -0.076 OA 
HETATM   11  H   UNL     1      -6.607   2.562  65.625  1.00  0.00     0.000 HD 
HETATM   12  C   UNL     1      -8.056   3.795  67.363  1.00  0.00    -0.090 C  
HETATM   13  C   UNL     1      -9.130   2.241  65.728  1.00  0.00    -0.076 C  
HETATM   14  C   UNL     1      -8.315   3.532  65.864  1.00  0.00    -0.106 C  
BRANCH   6  15
HETATM   15  O   UNL     1      -9.454   6.185  67.755  1.00  0.00    -0.117 OA 
BRANCH  15  16
HETATM   16  C   UNL     1      -9.468   6.485  69.161  1.00  0.00    -0.135 C  
HETATM   17  H1  UNL     1      -9.505  10.678  70.680  1.00  0.00     0.000 HD 
HETATM   18  C   UNL     1      -8.114   6.985  69.715  1.00  0.00    -0.126 C  
HETATM   19  C   UNL     1     -10.570   7.558  69.378  1.00  0.00    -0.223 C  
HETATM   20  H2  UNL     1      -7.878  10.271  70.853  1.00  0.00     0.000 HD 
HETATM   21  C   UNL     1      -8.795   9.415  69.196  1.00  0.00    -0.143 C  
HETATM   22  C   UNL     1      -7.734   8.310  69.033  1.00  0.00    -0.098 C  
HETATM   23  O   UNL     1     -10.840   7.710  70.788  1.00  0.00    -0.230 OA 
HETATM   24  H   UNL     1     -11.514   8.367  70.921  1.00  0.00     0.000 HD 
HETATM   25  N   UNL     1      -8.803   9.947  70.571  1.00  0.00    -0.050 NA 
HETATM   26  C   UNL     1     -10.197   8.921  68.727  1.00  0.00    -0.206 C  
BRANCH  18  27
HETATM   27  N   UNL     1      -8.132   7.080  71.176  1.00  0.00    -0.104 N  
HETATM   28  H   UNL     1      -8.866   7.634  71.618  1.00  0.00     0.000 HD 
HETATM   29  C   UNL     1      -7.204   6.460  71.981  1.00  0.00    -0.090 C  
HETATM   30  O   UNL     1      -6.297   5.750  71.561  1.00  0.00    -0.041 OA 
BRANCH  29  31
HETATM   31  C   UNL     1      -7.412   6.704  73.485  1.00  0.00    -0.083 C  
HETATM   32  H   UNL     1      -6.443   7.585  74.961  1.00  0.00     0.000 HD 
HETATM   33  O   UNL     1      -6.314   7.435  74.031  1.00  0.00    -0.075 OA 
BRANCH  31  34
HETATM   34  C   UNL     1      -8.697   7.492  73.740  1.00  0.00    -0.270 C  
BRANCH  34  35
HETATM   35  C   UNL     1      -9.741   6.655  74.479  1.00  0.00    -0.288 C  
HETATM   36  H1  UNL     1     -11.502   5.693  74.061  1.00  0.00     0.000 HD 
HETATM   37  H2  UNL     1     -10.442   5.766  72.748  1.00  0.00     0.000 HD 
HETATM   38  N   UNL     1     -10.806   6.251  73.568  1.00  0.00    -0.232 NA 
ENDBRANCH  34  35
ENDBRANCH  31  34
ENDBRANCH  29  31
ENDBRANCH  18  27
BRANCH  26  39
HETATM   39  O   UNL     1     -10.122   8.891  67.303  1.00  0.00    -0.199 OA 
BRANCH  39  40
HETATM   40  C   UNL     1      -9.835  10.109  66.610  1.00  0.00    -0.200 C  
HETATM   41  H1  UNL     1     -12.484  11.585  68.312  1.00  0.00     0.000 HD 
HETATM   42  O   UNL     1     -10.143  10.007  65.216  1.00  0.00    -0.321 OA 
HETATM   43  H2  UNL     1     -11.899  10.021  68.427  1.00  0.00     0.000 HD 
HETATM   44  N   UNL     1     -11.968  10.847  67.833  1.00  0.00    -0.501 NA 
HETATM   45  C   UNL     1     -10.627  11.241  67.346  1.00  0.00    -0.224 C  
HETATM   46  C   UNL     1     -10.024  11.205  64.529  1.00  0.00    -0.296 C  
HETATM   47  C   UNL     1     -10.654  12.546  66.538  1.00  0.00    -0.265 C  
HETATM   48  C   UNL     1     -10.243  12.393  65.112  1.00  0.00    -0.305 C  
BRANCH  46  49
HETATM   49  C   UNL     1      -9.678  11.079  63.063  1.00  0.00    -0.354 C  
BRANCH  49  50
HETATM   50  N   UNL     1      -8.236  11.089  62.804  1.00  0.00    -0.418 NA 
HETATM   51  H   UNL     1      -7.732  11.614  63.519  1.00  0.00     0.000 HD 
BRANCH  50  52
HETATM   52  C   UNL     1      -7.703   9.723  62.662  1.00  0.00    -0.121 C  
BRANCH  52  53
HETATM   53  C   UNL     1      -6.468   9.524  63.545  1.00  0.00    -0.103 C  
HETATM   54  O   UNL     1      -6.227  10.683  64.339  1.00  0.00    -0.350 OA 
HETATM   55  H   UNL     1      -5.460  10.560  64.887  1.00  0.00     0.000 HD 
ENDBRANCH  52  53
ENDBRANCH  50  52
ENDBRANCH  49  50
ENDBRANCH  46  49
ENDBRANCH  39  40
ENDBRANCH  26  39
ENDBRANCH  15  16
ENDBRANCH   6  15
ENDBRANCH   2   4
TORSDOF 13
ENDMDL
MODEL      123
REMARK 921   NORMALIZED FREE ENERGY PREDICTED BY IDOCK:   -3.03 KCAL/MOL
REMARK 922        TOTAL FREE ENERGY PREDICTED BY IDOCK:   -8.79 KCAL/MOL
REMARK 923 INTER-LIGAND FREE ENERGY PREDICTED BY IDOCK:   -7.81 KCAL/MOL
REMARK 924 INTRA-LIGAND FREE ENERGY PREDICTED BY IDOCK:   -0.98 KCAL/MOL
REMARK 927      BINDING AFFINITY PREDICTED BY RF-SCORE:    0.00 PKD
ROOT
HETATM    1  C   UNL     1     -13.693   6.901  71.761  1.00  0.00    -0.132 C  
HETATM    2  N   UNL     1     -12.400   7.443  72.166  1.00  0.00    -0.457 NA 
HETATM    3  H   UNL     1     -12.367   7.546  73.181  1.00  0.00     0.000 HD 
ENDROOT
BRANCH   2   4
HETATM    4  C   UNL     1     -11.205   6.683  71.692  1.00  0.00    -0.264 C  
HETATM    5  C   UNL     1     -11.501   5.843  70.424  1.00  0.00    -0.026 C  
HETATM    6  C   UNL     1     -10.189   5.224  69.892  1.00  0.00    -0.294 C  
HETATM    7  O   UNL     1     -12.148   6.631  69.422  1.00  0.00    -0.473 OA 
HETATM    8  H   UNL     1     -12.330   6.116  68.645  1.00  0.00     0.000 HD 
HETATM    9  O   UNL     1     -11.292   4.817  73.302  1.00  0.00    -0.319 OA 
HETATM   10  O   UNL     1      -9.641   4.369  70.896  1.00  0.00    -0.156 OA 
HETATM   11  H   UNL     1     -10.822   4.291  73.938  1.00  0.00     0.000 HD 
HETATM   12  C   UNL     1      -9.239   5.096  72.069  1.00  0.00    -0.137 C  
HETATM   13  C   UNL     1      -9.895   6.662  73.902  1.00  0.00    -0.292 C  
HETATM   14  C   UNL     1     -10.428   5.817  72.740  1.00  0.00    -0.210 C  
BRANCH   6  15
HETATM   15  O   UNL     1      -9.261   6.247  69.520  1.00  0.00    -0.139 OA 
BRANCH  15  16
HETATM   16  C   UNL     1      -9.746   7.242  68.603  1.00  0.00    -0.146 C  
HETATM   17  H1  UNL     1      -7.586   8.217  64.824  1.00  0.00     0.000 HD 
HETATM   18  C   UNL     1      -8.956   8.570  68.632  1.00  0.00    -0.139 C  
HETATM   19  C   UNL     1      -9.684   6.608  67.185  1.00  0.00    -0.142 C  
HETATM   20  H2  UNL     1      -7.098   9.482  65.828  1.00  0.00     0.000 HD 
HETATM   21  C   UNL     1      -7.369   7.672  66.813  1.00  0.00    -0.089 C  
HETATM   22  C   UNL     1      -7.500   8.316  68.207  1.00  0.00    -0.097 C  
HETATM   23  O   UNL     1     -10.408   7.430  66.245  1.00  0.00    -0.460 OA 
HETATM   24  H   UNL     1     -10.370   7.043  65.378  1.00  0.00     0.000 HD 
HETATM   25  N   UNL     1      -7.673   8.643  65.746  1.00  0.00    -0.089 NA 
HETATM   26  C   UNL     1      -8.220   6.371  66.713  1.00  0.00    -0.110 C  
BRANCH  18  27
HETATM   27  N   UNL     1      -9.612   9.605  67.832  1.00  0.00    -0.138 N  
HETATM   28  H   UNL     1     -10.307   9.318  67.142  1.00  0.00     0.000 HD 
HETATM   29  C   UNL     1      -9.336  10.947  67.965  1.00  0.00    -0.160 C  
HETATM   30  O   UNL     1      -8.542  11.406  68.779  1.00  0.00    -0.153 OA 
BRANCH  29  31
HETATM   31  C   UNL     1     -10.138  11.852  67.017  1.00  0.00    -0.205 C  
HETATM   32  H   UNL     1     -12.033  12.306  66.699  1.00  0.00     0.000 HD 
HETATM   33  O   UNL     1     -11.537  11.746  67.286  1.00  0.00    -0.461 OA 
BRANCH  31  34
HETATM   34  C   UNL     1      -9.722  13.315  67.173  1.00  0.00    -0.236 C  
BRANCH  34  35
HETATM   35  C   UNL     1     -10.932  14.239  67.306  1.00  0.00    -0.297 C  
HETATM   36  H1  UNL     1     -11.922  15.633  66.174  1.00  0.00     0.000 HD 
HETATM   37  H2  UNL     1     -11.182  14.419  65.262  1.00  0.00     0.000 HD 
HETATM   38  N   UNL     1     -11.115  15.016  66.086  1.00  0.00    -0.338 NA 
ENDBRANCH  34  35
ENDBRANCH  31  34
ENDBRANCH  29  31
ENDBRANCH  18  27
BRANCH  26  39
HETATM   39  O   UNL     1      -7.506   5.401  67.477  1.00  0.00    -0.081 OA 
BRANCH  39  40
HETATM   40  C   UNL     1      -7.568   4.031  67.068  1.00  0.00    -0.084 C  
HETATM   41  H1  UNL     1      -4.166   4.193  66.364  1.00  0.00     0.000 HD 
HETATM   42  O   UNL     1      -8.313   3.876  65.856  1.00  0.00    -0.107 OA 
HETATM   43  H2  UNL     1      -5.171   5.380  66.980  1.00  0.00     0.000 HD 
HETATM   44  N   UNL     1      -5.129   4.521  66.432  1.00  0.00    -0.008 NA 
HETATM   45  C   UNL     1      -6.089   3.528  66.964  1.00  0.00    -0.025 C  
HETATM   46  C   UNL     1      -8.275   2.591  65.338  1.00  0.00    -0.089 C  
HETATM   47  C   UNL     1      -5.990   2.172  66.250  1.00  0.00    -0.023 C  
HETATM   48  C   UNL     1      -7.224   1.777  65.511  1.00  0.00    -0.052 C  
BRANCH  46  49
HETATM   49  C   UNL     1      -9.483   2.186  64.523  1.00  0.00    -0.112 C  
BRANCH  49  50
HETATM   50  N   UNL     1     -10.485   3.249  64.403  1.00  0.00    -0.425 NA 
HETATM   51  H   UNL     1     -10.256   4.047  64.996  1.00  0.00     0.000 HD 
BRANCH  50  52
HETATM   52  C   UNL     1     -10.673   3.657  63.000  1.00  0.00    -0.193 C  
BRANCH  52  53
HETATM   53  C   UNL     1      -9.369   4.203  62.411  1.00  0.00    -0.119 C  
HETATM   54  O   UNL     1      -8.977   5.398  63.081  1.00  0.00    -0.338 OA 
HETATM   55  H   UNL     1      -8.168   5.737  62.715  1.00  0.00     0.000 HD 
ENDBRANCH  52  53
ENDBRANCH  50  52
ENDBRANCH  49  50
ENDBRANCH  46  49
ENDBRANCH  39  40
ENDBRANCH  26  39
ENDBRANCH  15  16
ENDBRANCH   6  15
ENDBRANCH   2   4
TORSDOF 13
ENDMDL
MODEL      124
REMARK 921   NORMALIZED FREE ENERGY PREDICTED BY IDOCK:   -3.02 KCAL/MOL
REMARK 922        TOTAL FREE ENERGY PREDICTED BY IDOCK:   -8.77 KCAL/MOL
REMARK 923 INTER-LIGAND FREE ENERGY PREDICTED BY IDOCK:   -6.58 KCAL/MOL
REMARK 924 INTRA-LIGAND FREE ENERGY PREDICTED BY IDOCK:   -2.19 KCAL/MOL
REMARK 927      BINDING AFFINITY PREDICTED BY RF-SCORE:    0.00 PKD
ROOT
HETATM    1  C   UNL     1      -6.012   5.309  63.044  1.00  0.00    -0.021 C  
HETATM    2  N   UNL     1      -7.424   5.602  63.271  1.00  0.00    -0.059 NA 
HETATM    3  H   UNL     1      -7.949   5.479  62.405  1.00  0.00     0.000 HD 
ENDROOT
BRANCH   2   4
HETATM    4  C   UNL     1      -8.072   4.832  64.374  1.00  0.00    -0.110 C  
HETATM    5  C   UNL     1      -7.192   4.765  65.648  1.00  0.00    -0.072 C  
HETATM    6  C   UNL     1      -7.989   4.109  66.797  1.00  0.00    -0.097 C  
HETATM    7  O   UNL     1      -6.719   6.063  66.017  1.00  0.00    -0.052 OA 
HETATM    8  H   UNL     1      -6.179   6.022  66.797  1.00  0.00     0.000 HD 
HETATM    9  O   UNL     1      -7.588   2.552  63.568  1.00  0.00    -0.060 OA 
HETATM   10  O   UNL     1      -8.347   2.781  66.412  1.00  0.00    -0.086 OA 
HETATM   11  H   UNL     1      -7.931   1.691  63.364  1.00  0.00     0.000 HD 
HETATM   12  C   UNL     1      -9.255   2.765  65.297  1.00  0.00    -0.130 C  
HETATM   13  C   UNL     1      -9.708   3.464  62.942  1.00  0.00    -0.102 C  
HETATM   14  C   UNL     1      -8.638   3.412  64.038  1.00  0.00    -0.089 C  
BRANCH   6  15
HETATM   15  O   UNL     1      -9.147   4.885  67.118  1.00  0.00    -0.116 OA 
BRANCH  15  16
HETATM   16  C   UNL     1      -9.575   4.849  68.490  1.00  0.00    -0.152 C  
HETATM   17  H1  UNL     1      -9.005   8.322  71.229  1.00  0.00     0.000 HD 
HETATM   18  C   UNL     1      -8.424   4.688  69.509  1.00  0.00    -0.078 C  
HETATM   19  C   UNL     1     -10.346   6.172  68.750  1.00  0.00    -0.209 C  
HETATM   20  H2  UNL     1      -7.721   7.325  71.678  1.00  0.00     0.000 HD 
HETATM   21  C   UNL     1      -8.189   7.249  69.654  1.00  0.00    -0.131 C  
HETATM   22  C   UNL     1      -7.481   5.901  69.420  1.00  0.00    -0.087 C  
HETATM   23  O   UNL     1     -11.046   6.096  70.012  1.00  0.00    -0.332 OA 
HETATM   24  H   UNL     1     -11.517   6.905  70.171  1.00  0.00     0.000 HD 
HETATM   25  N   UNL     1      -8.537   7.429  71.075  1.00  0.00    -0.133 NA 
HETATM   26  C   UNL     1      -9.411   7.415  68.701  1.00  0.00    -0.139 C  
BRANCH  18  27
HETATM   27  N   UNL     1      -8.931   4.457  70.862  1.00  0.00    -0.107 N  
HETATM   28  H   UNL     1      -9.701   5.035  71.198  1.00  0.00     0.000 HD 
HETATM   29  C   UNL     1      -8.416   3.498  71.705  1.00  0.00    -0.076 C  
HETATM   30  O   UNL     1      -7.511   2.730  71.398  1.00  0.00    -0.039 OA 
BRANCH  29  31
HETATM   31  C   UNL     1      -9.098   3.438  73.081  1.00  0.00    -0.097 C  
HETATM   32  H   UNL     1      -9.215   4.569  74.694  1.00  0.00     0.000 HD 
HETATM   33  O   UNL     1      -8.794   4.607  73.843  1.00  0.00    -0.105 OA 
BRANCH  31  34
HETATM   34  C   UNL     1     -10.616   3.331  72.937  1.00  0.00    -0.209 C  
BRANCH  34  35
HETATM   35  C   UNL     1     -11.336   4.481  73.642  1.00  0.00    -0.204 C  
HETATM   36  H1  UNL     1     -12.150   6.299  73.158  1.00  0.00     0.000 HD 
HETATM   37  H2  UNL     1     -12.209   5.173  71.900  1.00  0.00     0.000 HD 
HETATM   38  N   UNL     1     -11.670   5.532  72.688  1.00  0.00    -0.252 NA 
ENDBRANCH  34  35
ENDBRANCH  31  34
ENDBRANCH  29  31
ENDBRANCH  18  27
BRANCH  26  39
HETATM   39  O   UNL     1      -8.848   7.676  67.417  1.00  0.00    -0.123 OA 
BRANCH  39  40
HETATM   40  C   UNL     1      -8.911   9.010  66.904  1.00  0.00    -0.116 C  
HETATM   41  H1  UNL     1      -5.460   9.212  67.286  1.00  0.00     0.000 HD 
HETATM   42  O   UNL     1      -9.559   9.897  67.820  1.00  0.00    -0.140 OA 
HETATM   43  H2  UNL     1      -6.482   7.927  67.610  1.00  0.00     0.000 HD 
HETATM   44  N   UNL     1      -6.417   8.940  67.511  1.00  0.00    -0.060 NA 
HETATM   45  C   UNL     1      -7.442   9.427  66.560  1.00  0.00    -0.093 C  
HETATM   46  C   UNL     1      -9.512  11.228  67.437  1.00  0.00    -0.165 C  
HETATM   47  C   UNL     1      -7.319  10.932  66.282  1.00  0.00    -0.127 C  
HETATM   48  C   UNL     1      -8.498  11.734  66.718  1.00  0.00    -0.177 C  
BRANCH  46  49
HETATM   49  C   UNL     1     -10.659  12.083  67.925  1.00  0.00    -0.202 C  
BRANCH  49  50
HETATM   50  N   UNL     1     -11.894  11.889  67.159  1.00  0.00    -0.620 NA 
HETATM   51  H   UNL     1     -12.607  12.569  67.423  1.00  0.00     0.000 HD 
BRANCH  50  52
HETATM   52  C   UNL     1     -11.639  11.911  65.708  1.00  0.00    -0.215 C  
BRANCH  52  53
HETATM   53  C   UNL     1     -12.464  13.005  65.025  1.00  0.00    -0.477 C  
HETATM   54  O   UNL     1     -12.791  12.627  63.691  1.00  0.00    -0.718 OA 
HETATM   55  H   UNL     1     -13.303  13.306  63.267  1.00  0.00     0.000 HD 
ENDBRANCH  52  53
ENDBRANCH  50  52
ENDBRANCH  49  50
ENDBRANCH  46  49
ENDBRANCH  39  40
ENDBRANCH  26  39
ENDBRANCH  15  16
ENDBRANCH   6  15
ENDBRANCH   2   4
TORSDOF 13
ENDMDL
MODEL      125
REMARK 921   NORMALIZED FREE ENERGY PREDICTED BY IDOCK:   -2.95 KCAL/MOL
REMARK 922        TOTAL FREE ENERGY PREDICTED BY IDOCK:   -8.66 KCAL/MOL
REMARK 923 INTER-LIGAND FREE ENERGY PREDICTED BY IDOCK:   -7.31 KCAL/MOL
REMARK 924 INTRA-LIGAND FREE ENERGY PREDICTED BY IDOCK:   -1.34 KCAL/MOL
REMARK 927      BINDING AFFINITY PREDICTED BY RF-SCORE:    0.00 PKD
ROOT
HETATM    1  C   UNL     1     -11.706  15.033  71.833  1.00  0.00    -0.380 C  
HETATM    2  N   UNL     1     -10.539  15.583  71.152  1.00  0.00    -0.209 NA 
HETATM    3  H   UNL     1      -9.717  15.511  71.753  1.00  0.00     0.000 HD 
ENDROOT
BRANCH   2   4
HETATM    4  C   UNL     1     -10.241  14.999  69.809  1.00  0.00    -0.125 C  
HETATM    5  C   UNL     1      -8.721  14.939  69.512  1.00  0.00     0.022 C  
HETATM    6  C   UNL     1      -8.480  14.172  68.193  1.00  0.00    -0.173 C  
HETATM    7  O   UNL     1      -8.007  14.345  70.598  1.00  0.00     0.766 OA 
HETATM    8  H   UNL     1      -7.075  14.308  70.416  1.00  0.00     0.000 HD 
HETATM    9  O   UNL     1     -10.727  16.984  68.429  1.00  0.00    -0.354 OA 
HETATM   10  O   UNL     1      -9.132  14.868  67.129  1.00  0.00    -0.200 OA 
HETATM   11  H   UNL     1     -11.192  17.339  67.680  1.00  0.00     0.000 HD 
HETATM   12  C   UNL     1     -10.562  14.872  67.278  1.00  0.00    -0.272 C  
HETATM   13  C   UNL     1     -12.525  15.434  68.718  1.00  0.00     0.264 C  
HETATM   14  C   UNL     1     -11.006  15.583  68.575  1.00  0.00    -0.288 C  
BRANCH   6  15
HETATM   15  O   UNL     1      -8.949  12.826  68.296  1.00  0.00    -0.194 OA 
BRANCH  15  16
HETATM   16  C   UNL     1      -9.569  12.278  67.120  1.00  0.00    -0.200 C  
HETATM   17  H1  UNL     1     -10.475   7.928  66.741  1.00  0.00     0.000 HD 
HETATM   18  C   UNL     1      -8.605  11.493  66.202  1.00  0.00    -0.094 C  
HETATM   19  C   UNL     1     -10.718  11.355  67.612  1.00  0.00    -0.216 C  
HETATM   20  H2  UNL     1      -9.052   8.055  65.846  1.00  0.00     0.000 HD 
HETATM   21  C   UNL     1      -9.138   9.325  67.488  1.00  0.00    -0.120 C  
HETATM   22  C   UNL     1      -8.046  10.275  66.959  1.00  0.00    -0.121 C  
HETATM   23  O   UNL     1     -11.565  10.986  66.501  1.00  0.00    -0.205 OA 
HETATM   24  H   UNL     1     -12.268  10.422  66.802  1.00  0.00     0.000 HD 
HETATM   25  N   UNL     1      -9.753   8.556  66.391  1.00  0.00    -0.254 NA 
HETATM   26  C   UNL     1     -10.182  10.096  68.352  1.00  0.00    -0.169 C  
BRANCH  18  27
HETATM   27  N   UNL     1      -9.240  11.134  64.934  1.00  0.00    -0.316 N  
HETATM   28  H   UNL     1      -9.342  10.145  64.704  1.00  0.00     0.000 HD 
HETATM   29  C   UNL     1      -9.706  12.066  64.035  1.00  0.00    -0.124 C  
HETATM   30  O   UNL     1      -9.661  13.278  64.219  1.00  0.00    -0.075 OA 
BRANCH  29  31
HETATM   31  C   UNL     1     -10.330  11.463  62.767  1.00  0.00     0.062 C  
HETATM   32  H   UNL     1     -10.220   9.769  61.759  1.00  0.00     0.000 HD 
HETATM   33  O   UNL     1      -9.834  10.142  62.544  1.00  0.00    -0.157 OA 
BRANCH  31  34
HETATM   34  C   UNL     1     -11.853  11.397  62.883  1.00  0.00     0.572 C  
BRANCH  34  35
HETATM   35  C   UNL     1     -12.439  12.707  63.412  1.00  0.00    -0.372 C  
HETATM   36  H1  UNL     1     -13.498  13.359  65.042  1.00  0.00     0.000 HD 
HETATM   37  H2  UNL     1     -12.489  12.044  65.370  1.00  0.00     0.000 HD 
HETATM   38  N   UNL     1     -13.107  12.486  64.689  1.00  0.00    -0.837 NA 
ENDBRANCH  34  35
ENDBRANCH  31  34
ENDBRANCH  29  31
ENDBRANCH  18  27
BRANCH  26  39
HETATM   39  O   UNL     1      -9.514  10.376  69.580  1.00  0.00    -0.205 OA 
BRANCH  39  40
HETATM   40  C   UNL     1      -9.797   9.551  70.714  1.00  0.00    -0.239 C  
HETATM   41  H1  UNL     1      -6.460   8.572  70.710  1.00  0.00     0.000 HD 
HETATM   42  O   UNL     1     -10.634   8.444  70.365  1.00  0.00    -0.214 OA 
HETATM   43  H2  UNL     1      -7.243   9.648  69.695  1.00  0.00     0.000 HD 
HETATM   44  N   UNL     1      -7.360   8.848  70.317  1.00  0.00    -0.060 NA 
HETATM   45  C   UNL     1      -8.416   9.127  71.316  1.00  0.00    -0.047 C  
HETATM   46  C   UNL     1     -10.815   7.535  71.394  1.00  0.00    -0.229 C  
HETATM   47  C   UNL     1      -8.559   8.003  72.353  1.00  0.00    -0.220 C  
HETATM   48  C   UNL     1      -9.882   7.316  72.332  1.00  0.00    -0.188 C  
BRANCH  46  49
HETATM   49  C   UNL     1     -12.118   6.769  71.360  1.00  0.00    -0.366 C  
BRANCH  49  50
HETATM   50  N   UNL     1     -13.256   7.580  70.917  1.00  0.00    -0.591 NA 
HETATM   51  H   UNL     1     -14.030   6.996  70.600  1.00  0.00     0.000 HD 
BRANCH  50  52
HETATM   52  C   UNL     1     -13.686   8.523  71.964  1.00  0.00    -0.403 C  
BRANCH  52  53
HETATM   53  C   UNL     1     -13.473   9.971  71.515  1.00  0.00    -0.291 C  
HETATM   54  O   UNL     1     -13.393  10.050  70.095  1.00  0.00    -0.491 OA 
HETATM   55  H   UNL     1     -13.261  10.949  69.816  1.00  0.00     0.000 HD 
ENDBRANCH  52  53
ENDBRANCH  50  52
ENDBRANCH  49  50
ENDBRANCH  46  49
ENDBRANCH  39  40
ENDBRANCH  26  39
ENDBRANCH  15  16
ENDBRANCH   6  15
ENDBRANCH   2   4
TORSDOF 13
ENDMDL
MODEL      126
REMARK 921   NORMALIZED FREE ENERGY PREDICTED BY IDOCK:   -2.90 KCAL/MOL
REMARK 922        TOTAL FREE ENERGY PREDICTED BY IDOCK:   -8.56 KCAL/MOL
REMARK 923 INTER-LIGAND FREE ENERGY PREDICTED BY IDOCK:   -7.09 KCAL/MOL
REMARK 924 INTRA-LIGAND FREE ENERGY PREDICTED BY IDOCK:   -1.47 KCAL/MOL
REMARK 927      BINDING AFFINITY PREDICTED BY RF-SCORE:    0.00 PKD
ROOT
HETATM    1  C   UNL     1     -10.480  17.688  68.488  1.00  0.00    -0.337 C  
HETATM    2  N   UNL     1     -11.715  17.079  68.974  1.00  0.00     0.241 NA 
HETATM    3  H   UNL     1     -12.432  17.118  68.249  1.00  0.00     0.000 HD 
ENDROOT
BRANCH   2   4
HETATM    4  C   UNL     1     -11.586  15.683  69.489  1.00  0.00    -0.357 C  
HETATM    5  C   UNL     1     -11.898  14.620  68.405  1.00  0.00    -0.295 C  
HETATM    6  C   UNL     1     -11.579  13.211  68.953  1.00  0.00    -0.311 C  
HETATM    7  O   UNL     1     -11.177  14.885  67.200  1.00  0.00    -0.328 OA 
HETATM    8  H   UNL     1     -11.368  14.233  66.536  1.00  0.00     0.000 HD 
HETATM    9  O   UNL     1     -13.742  15.528  70.676  1.00  0.00    -0.851 OA 
HETATM   10  O   UNL     1     -12.401  12.962  70.095  1.00  0.00    -0.270 OA 
HETATM   11  H   UNL     1     -14.192  15.311  71.484  1.00  0.00     0.000 HD 
HETATM   12  C   UNL     1     -12.093  13.844  71.188  1.00  0.00    -0.236 C  
HETATM   13  C   UNL     1     -11.860  16.200  71.990  1.00  0.00    -0.615 C  
HETATM   14  C   UNL     1     -12.327  15.326  70.820  1.00  0.00    -0.380 C  
BRANCH   6  15
HETATM   15  O   UNL     1     -10.192  13.095  69.279  1.00  0.00     0.142 OA 
BRANCH  15  16
HETATM   16  C   UNL     1      -9.273  13.734  68.376  1.00  0.00    -0.182 C  
HETATM   17  H1  UNL     1      -5.198  12.093  67.606  1.00  0.00     0.000 HD 
HETATM   18  C   UNL     1      -8.124  14.497  69.075  1.00  0.00    -0.085 C  
HETATM   19  C   UNL     1      -8.701  12.618  67.459  1.00  0.00    -0.184 C  
HETATM   20  H2  UNL     1      -4.862  13.324  68.708  1.00  0.00     0.000 HD 
HETATM   21  C   UNL     1      -6.678  12.365  69.033  1.00  0.00    -0.100 C  
HETATM   22  C   UNL     1      -7.264  13.509  69.883  1.00  0.00     0.627 C  
HETATM   23  O   UNL     1      -7.987  13.208  66.350  1.00  0.00    -0.059 OA 
HETATM   24  H   UNL     1      -7.637  12.525  65.789  1.00  0.00     0.000 HD 
HETATM   25  N   UNL     1      -5.586  12.849  68.168  1.00  0.00    -0.079 NA 
HETATM   26  C   UNL     1      -7.797  11.622  68.242  1.00  0.00    -0.136 C  
BRANCH  18  27
HETATM   27  N   UNL     1      -7.343  15.287  68.123  1.00  0.00    -0.108 N  
HETATM   28  H   UNL     1      -7.118  14.874  67.218  1.00  0.00     0.000 HD 
HETATM   29  C   UNL     1      -6.897  16.561  68.390  1.00  0.00    -0.145 C  
HETATM   30  O   UNL     1      -7.132  17.166  69.431  1.00  0.00    -0.215 OA 
BRANCH  29  31
HETATM   31  C   UNL     1      -6.090  17.199  67.248  1.00  0.00    -0.151 C  
HETATM   32  H   UNL     1      -4.910  16.590  65.788  1.00  0.00     0.000 HD 
HETATM   33  O   UNL     1      -5.409  16.195  66.494  1.00  0.00    -0.088 OA 
BRANCH  31  34
HETATM   34  C   UNL     1      -7.002  17.983  66.304  1.00  0.00    -0.299 C  
BRANCH  34  35
HETATM   35  C   UNL     1      -7.353  19.361  66.865  1.00  0.00    -0.216 C  
HETATM   36  H1  UNL     1      -8.522  20.966  66.356  1.00  0.00     0.000 HD 
HETATM   37  H2  UNL     1      -9.122  19.486  65.803  1.00  0.00     0.000 HD 
HETATM   38  N   UNL     1      -8.289  20.046  65.982  1.00  0.00    -0.292 NA 
ENDBRANCH  34  35
ENDBRANCH  31  34
ENDBRANCH  29  31
ENDBRANCH  18  27
BRANCH  26  39
HETATM   39  O   UNL     1      -8.487  10.846  69.219  1.00  0.00    -0.108 OA 
BRANCH  39  40
HETATM   40  C   UNL     1      -8.630   9.440  68.995  1.00  0.00    -0.135 C  
HETATM   41  H1  UNL     1      -6.630   8.895  71.788  1.00  0.00     0.000 HD 
HETATM   42  O   UNL     1      -7.943   9.022  67.811  1.00  0.00    -0.101 OA 
HETATM   43  H2  UNL     1      -7.148  10.344  71.130  1.00  0.00     0.000 HD 
HETATM   44  N   UNL     1      -6.957   9.360  70.941  1.00  0.00    -0.184 NA 
HETATM   45  C   UNL     1      -8.128   8.726  70.295  1.00  0.00    -0.116 C  
HETATM   46  C   UNL     1      -7.925   7.649  67.632  1.00  0.00    -0.121 C  
HETATM   47  C   UNL     1      -7.942   7.216  70.090  1.00  0.00    -0.113 C  
HETATM   48  C   UNL     1      -7.935   6.788  68.661  1.00  0.00    -0.119 C  
BRANCH  46  49
HETATM   49  C   UNL     1      -7.845   7.185  66.195  1.00  0.00    -0.105 C  
BRANCH  49  50
HETATM   50  N   UNL     1      -8.032   8.267  65.224  1.00  0.00    -0.119 NA 
HETATM   51  H   UNL     1      -8.391   9.110  65.670  1.00  0.00     0.000 HD 
BRANCH  50  52
HETATM   52  C   UNL     1      -6.792   8.540  64.475  1.00  0.00    -0.069 C  
BRANCH  52  53
HETATM   53  C   UNL     1      -6.656  10.034  64.171  1.00  0.00    -0.130 C  
HETATM   54  O   UNL     1      -7.872  10.718  64.462  1.00  0.00    -0.358 OA 
HETATM   55  H   UNL     1      -7.788  11.646  64.273  1.00  0.00     0.000 HD 
ENDBRANCH  52  53
ENDBRANCH  50  52
ENDBRANCH  49  50
ENDBRANCH  46  49
ENDBRANCH  39  40
ENDBRANCH  26  39
ENDBRANCH  15  16
ENDBRANCH   6  15
ENDBRANCH   2   4
TORSDOF 13
ENDMDL
MODEL      127
REMARK 921   NORMALIZED FREE ENERGY PREDICTED BY IDOCK:   -2.87 KCAL/MOL
REMARK 922        TOTAL FREE ENERGY PREDICTED BY IDOCK:   -8.51 KCAL/MOL
REMARK 923 INTER-LIGAND FREE ENERGY PREDICTED BY IDOCK:   -8.58 KCAL/MOL
REMARK 924 INTRA-LIGAND FREE ENERGY PREDICTED BY IDOCK:    0.08 KCAL/MOL
REMARK 927      BINDING AFFINITY PREDICTED BY RF-SCORE:    0.00 PKD
ROOT
HETATM    1  C   UNL     1     -10.801  15.589  64.871  1.00  0.00    -0.427 C  
HETATM    2  N   UNL     1     -11.142  14.555  65.842  1.00  0.00    -0.321 NA 
HETATM    3  H   UNL     1     -12.135  14.606  66.073  1.00  0.00     0.000 HD 
ENDROOT
BRANCH   2   4
HETATM    4  C   UNL     1     -10.781  13.159  65.452  1.00  0.00    -0.294 C  
HETATM    5  C   UNL     1      -9.250  12.953  65.335  1.00  0.00     0.519 C  
HETATM    6  C   UNL     1      -8.943  11.457  65.100  1.00  0.00     0.034 C  
HETATM    7  O   UNL     1      -8.573  13.447  66.494  1.00  0.00    -0.431 OA 
HETATM    8  H   UNL     1      -7.634  13.320  66.422  1.00  0.00     0.000 HD 
HETATM    9  O   UNL     1     -11.235  13.324  63.033  1.00  0.00    -0.336 OA 
HETATM   10  O   UNL     1      -9.559  11.045  63.879  1.00  0.00    -0.230 OA 
HETATM   11  H   UNL     1     -11.673  12.949  62.278  1.00  0.00     0.000 HD 
HETATM   12  C   UNL     1     -10.994  11.106  63.947  1.00  0.00    -0.197 C  
HETATM   13  C   UNL     1     -13.023  12.496  64.388  1.00  0.00    -0.248 C  
HETATM   14  C   UNL     1     -11.502  12.541  64.207  1.00  0.00    -0.362 C  
BRANCH   6  15
HETATM   15  O   UNL     1      -9.399  10.667  66.202  1.00  0.00    -0.167 OA 
BRANCH  15  16
HETATM   16  C   UNL     1      -9.483  11.336  67.471  1.00  0.00    -0.169 C  
HETATM   17  H1  UNL     1      -9.742   9.085  71.312  1.00  0.00     0.000 HD 
HETATM   18  C   UNL     1     -10.889  11.307  68.111  1.00  0.00    -0.217 C  
HETATM   19  C   UNL     1      -8.449  10.649  68.406  1.00  0.00    -0.132 C  
HETATM   20  H2  UNL     1     -11.354   9.509  71.061  1.00  0.00     0.000 HD 
HETATM   21  C   UNL     1     -10.300   9.107  69.316  1.00  0.00    -0.216 C  
HETATM   22  C   UNL     1     -11.294   9.852  68.404  1.00  0.00    -0.049 C  
HETATM   23  O   UNL     1      -8.270  11.434  69.605  1.00  0.00    -0.187 OA 
HETATM   24  H   UNL     1      -7.638  11.014  70.177  1.00  0.00     0.000 HD 
HETATM   25  N   UNL     1     -10.399   9.578  70.709  1.00  0.00    -0.298 NA 
HETATM   26  C   UNL     1      -8.851   9.186  68.748  1.00  0.00    -0.132 C  
BRANCH  18  27
HETATM   27  N   UNL     1     -10.962  12.168  69.293  1.00  0.00    -0.416 N  
HETATM   28  H   UNL     1     -10.400  11.923  70.108  1.00  0.00     0.000 HD 
HETATM   29  C   UNL     1     -11.752  13.293  69.357  1.00  0.00    -0.325 C  
HETATM   30  O   UNL     1     -12.446  13.697  68.430  1.00  0.00    -0.085 OA 
BRANCH  29  31
HETATM   31  C   UNL     1     -11.677  14.041  70.698  1.00  0.00    -0.159 C  
HETATM   32  H   UNL     1     -11.245  15.863  71.321  1.00  0.00     0.000 HD 
HETATM   33  O   UNL     1     -11.292  15.401  70.492  1.00  0.00    -0.272 OA 
BRANCH  31  34
HETATM   34  C   UNL     1     -13.028  14.020  71.413  1.00  0.00    -0.427 C  
BRANCH  34  35
HETATM   35  C   UNL     1     -12.952  14.681  72.790  1.00  0.00    -0.470 C  
HETATM   36  H1  UNL     1     -13.687  16.350  73.726  1.00  0.00     0.000 HD 
HETATM   37  H2  UNL     1     -14.701  15.748  72.517  1.00  0.00     0.000 HD 
HETATM   38  N   UNL     1     -13.737  15.909  72.808  1.00  0.00    -0.559 NA 
ENDBRANCH  34  35
ENDBRANCH  31  34
ENDBRANCH  29  31
ENDBRANCH  18  27
BRANCH  26  39
HETATM   39  O   UNL     1      -8.841   8.298  67.632  1.00  0.00    -0.135 OA 
BRANCH  39  40
HETATM   40  C   UNL     1      -8.713   6.894  67.879  1.00  0.00    -0.121 C  
HETATM   41  H1  UNL     1     -11.693   6.420  66.151  1.00  0.00     0.000 HD 
HETATM   42  O   UNL     1      -8.893   6.584  69.264  1.00  0.00    -0.132 OA 
HETATM   43  H2  UNL     1     -10.863   7.842  66.447  1.00  0.00     0.000 HD 
HETATM   44  N   UNL     1     -11.026   6.886  66.765  1.00  0.00    -0.265 NA 
HETATM   45  C   UNL     1      -9.738   6.178  66.937  1.00  0.00    -0.149 C  
HETATM   46  C   UNL     1      -8.927   5.225  69.532  1.00  0.00    -0.103 C  
HETATM   47  C   UNL     1      -9.923   4.699  67.304  1.00  0.00    -0.203 C  
HETATM   48  C   UNL     1      -9.386   4.329  68.645  1.00  0.00    -0.213 C  
BRANCH  46  49
HETATM   49  C   UNL     1      -8.455   4.825  70.911  1.00  0.00    -0.106 C  
BRANCH  49  50
HETATM   50  N   UNL     1      -9.289   3.792  71.533  1.00  0.00    -0.124 NA 
HETATM   51  H   UNL     1      -8.745   2.959  71.758  1.00  0.00     0.000 HD 
BRANCH  50  52
HETATM   52  C   UNL     1      -9.997   4.310  72.717  1.00  0.00    -0.153 C  
BRANCH  52  53
HETATM   53  C   UNL     1      -9.930   5.839  72.766  1.00  0.00    -0.176 C  
HETATM   54  O   UNL     1      -9.322   6.276  73.979  1.00  0.00    -0.131 OA 
HETATM   55  H   UNL     1      -9.281   7.225  74.010  1.00  0.00     0.000 HD 
ENDBRANCH  52  53
ENDBRANCH  50  52
ENDBRANCH  49  50
ENDBRANCH  46  49
ENDBRANCH  39  40
ENDBRANCH  26  39
ENDBRANCH  15  16
ENDBRANCH   6  15
ENDBRANCH   2   4
TORSDOF 13
ENDMDL
MODEL      128
REMARK 921   NORMALIZED FREE ENERGY PREDICTED BY IDOCK:   -2.84 KCAL/MOL
REMARK 922        TOTAL FREE ENERGY PREDICTED BY IDOCK:   -8.45 KCAL/MOL
REMARK 923 INTER-LIGAND FREE ENERGY PREDICTED BY IDOCK:   -6.78 KCAL/MOL
REMARK 924 INTRA-LIGAND FREE ENERGY PREDICTED BY IDOCK:   -1.67 KCAL/MOL
REMARK 927      BINDING AFFINITY PREDICTED BY RF-SCORE:    0.00 PKD
ROOT
HETATM    1  C   UNL     1      -5.196   3.072  67.746  1.00  0.00    -0.012 C  
HETATM    2  N   UNL     1      -5.574   2.865  69.140  1.00  0.00    -0.017 NA 
HETATM    3  H   UNL     1      -4.819   3.169  69.755  1.00  0.00     0.000 HD 
ENDROOT
BRANCH   2   4
HETATM    4  C   UNL     1      -6.861   3.496  69.560  1.00  0.00    -0.041 C  
HETATM    5  C   UNL     1      -6.669   4.541  70.688  1.00  0.00    -0.036 C  
HETATM    6  C   UNL     1      -8.004   5.273  70.951  1.00  0.00    -0.099 C  
HETATM    7  O   UNL     1      -5.624   5.462  70.365  1.00  0.00    -0.007 OA 
HETATM    8  H   UNL     1      -5.507   6.102  71.057  1.00  0.00     0.000 HD 
HETATM    9  O   UNL     1      -7.714   1.678  70.992  1.00  0.00    -0.033 OA 
HETATM   10  O   UNL     1      -8.981   4.318  71.367  1.00  0.00    -0.112 OA 
HETATM   11  H   UNL     1      -8.440   1.103  71.200  1.00  0.00     0.000 HD 
HETATM   12  C   UNL     1      -9.294   3.374  70.328  1.00  0.00    -0.172 C  
HETATM   13  C   UNL     1      -8.449   1.662  68.716  1.00  0.00    -0.080 C  
HETATM   14  C   UNL     1      -8.059   2.549  69.904  1.00  0.00    -0.041 C  
BRANCH   6  15
HETATM   15  O   UNL     1      -8.433   5.978  69.783  1.00  0.00    -0.123 OA 
BRANCH  15  16
HETATM   16  C   UNL     1      -9.807   6.401  69.766  1.00  0.00    -0.165 C  
HETATM   17  H1  UNL     1     -11.229   9.699  67.122  1.00  0.00     0.000 HD 
HETATM   18  C   UNL     1     -10.067   7.743  70.487  1.00  0.00    -0.192 C  
HETATM   19  C   UNL     1     -10.224   6.500  68.273  1.00  0.00    -0.172 C  
HETATM   20  H2  UNL     1     -11.076  10.495  68.601  1.00  0.00     0.000 HD 
HETATM   21  C   UNL     1      -9.655   9.012  68.284  1.00  0.00    -0.145 C  
HETATM   22  C   UNL     1      -9.298   8.870  69.776  1.00  0.00    -0.169 C  
HETATM   23  O   UNL     1     -11.658   6.646  68.169  1.00  0.00    -0.543 OA 
HETATM   24  H   UNL     1     -11.913   6.707  67.256  1.00  0.00     0.000 HD 
HETATM   25  N   UNL     1     -10.993   9.605  68.109  1.00  0.00    -0.183 NA 
HETATM   26  C   UNL     1      -9.488   7.655  67.535  1.00  0.00    -0.140 C  
BRANCH  18  27
HETATM   27  N   UNL     1     -11.499   8.020  70.612  1.00  0.00    -0.357 N  
HETATM   28  H   UNL     1     -12.048   8.131  69.760  1.00  0.00     0.000 HD 
HETATM   29  C   UNL     1     -12.139   8.138  71.825  1.00  0.00    -0.315 C  
HETATM   30  O   UNL     1     -11.585   7.995  72.909  1.00  0.00    -0.397 OA 
BRANCH  29  31
HETATM   31  C   UNL     1     -13.643   8.437  71.717  1.00  0.00    -0.377 C  
HETATM   32  H   UNL     1     -15.142   8.807  72.946  1.00  0.00     0.000 HD 
HETATM   33  O   UNL     1     -14.212   8.622  73.013  1.00  0.00    -0.348 OA 
BRANCH  31  34
HETATM   34  C   UNL     1     -13.892   9.699  70.890  1.00  0.00     0.100 C  
BRANCH  34  35
HETATM   35  C   UNL     1     -12.786  10.735  71.087  1.00  0.00    -0.431 C  
HETATM   36  H1  UNL     1     -12.495  12.484  72.116  1.00  0.00     0.000 HD 
HETATM   37  H2  UNL     1     -13.567  11.420  72.874  1.00  0.00     0.000 HD 
HETATM   38  N   UNL     1     -13.233  11.793  71.985  1.00  0.00    -0.464 NA 
ENDBRANCH  34  35
ENDBRANCH  31  34
ENDBRANCH  29  31
ENDBRANCH  18  27
BRANCH  26  39
HETATM   39  O   UNL     1      -8.079   7.470  67.412  1.00  0.00    -0.113 OA 
BRANCH  39  40
HETATM   40  C   UNL     1      -7.346   8.357  66.563  1.00  0.00    -0.081 C  
HETATM   41  H1  UNL     1      -5.553   5.610  65.409  1.00  0.00     0.000 HD 
HETATM   42  O   UNL     1      -6.490   9.221  67.317  1.00  0.00    -0.059 OA 
HETATM   43  H2  UNL     1      -6.798   5.661  66.525  1.00  0.00     0.000 HD 
HETATM   44  N   UNL     1      -6.050   6.194  66.081  1.00  0.00    -0.028 NA 
HETATM   45  C   UNL     1      -6.582   7.462  65.531  1.00  0.00    -0.045 C  
HETATM   46  C   UNL     1      -5.649   9.996  66.534  1.00  0.00    -0.046 C  
HETATM   47  C   UNL     1      -5.524   8.254  64.750  1.00  0.00    -0.040 C  
HETATM   48  C   UNL     1      -5.195   9.583  65.341  1.00  0.00    -0.040 C  
BRANCH  46  49
HETATM   49  C   UNL     1      -5.239  11.320  67.139  1.00  0.00    -0.063 C  
BRANCH  49  50
HETATM   50  N   UNL     1      -6.024  12.453  66.640  1.00  0.00    -0.450 NA 
HETATM   51  H   UNL     1      -6.347  12.292  65.686  1.00  0.00     0.000 HD 
BRANCH  50  52
HETATM   52  C   UNL     1      -7.144  12.772  67.542  1.00  0.00    -0.148 C  
BRANCH  52  53
HETATM   53  C   UNL     1      -8.445  12.138  67.042  1.00  0.00    -0.183 C  
HETATM   54  O   UNL     1      -8.950  12.851  65.916  1.00  0.00    -0.419 OA 
HETATM   55  H   UNL     1      -9.758  12.457  65.606  1.00  0.00     0.000 HD 
ENDBRANCH  52  53
ENDBRANCH  50  52
ENDBRANCH  49  50
ENDBRANCH  46  49
ENDBRANCH  39  40
ENDBRANCH  26  39
ENDBRANCH  15  16
ENDBRANCH   6  15
ENDBRANCH   2   4
TORSDOF 13
ENDMDL
MODEL      129
REMARK 921   NORMALIZED FREE ENERGY PREDICTED BY IDOCK:   -2.77 KCAL/MOL
REMARK 922        TOTAL FREE ENERGY PREDICTED BY IDOCK:   -8.34 KCAL/MOL
REMARK 923 INTER-LIGAND FREE ENERGY PREDICTED BY IDOCK:   -8.23 KCAL/MOL
REMARK 924 INTRA-LIGAND FREE ENERGY PREDICTED BY IDOCK:   -0.10 KCAL/MOL
REMARK 927      BINDING AFFINITY PREDICTED BY RF-SCORE:    0.00 PKD
ROOT
HETATM    1  C   UNL     1      -6.335  12.255  66.922  1.00  0.00     0.074 C  
HETATM    2  N   UNL     1      -6.064  11.291  65.861  1.00  0.00    -0.384 NA 
HETATM    3  H   UNL     1      -5.087  11.000  65.895  1.00  0.00     0.000 HD 
ENDROOT
BRANCH   2   4
HETATM    4  C   UNL     1      -6.953  10.091  65.838  1.00  0.00    -0.113 C  
HETATM    5  C   UNL     1      -6.426   8.945  66.739  1.00  0.00    -0.064 C  
HETATM    6  C   UNL     1      -7.474   7.811  66.803  1.00  0.00    -0.090 C  
HETATM    7  O   UNL     1      -6.098   9.425  68.044  1.00  0.00    -0.051 OA 
HETATM    8  H   UNL     1      -5.775   8.722  68.596  1.00  0.00     0.000 HD 
HETATM    9  O   UNL     1      -6.219   9.130  63.689  1.00  0.00    -0.087 OA 
HETATM   10  O   UNL     1      -7.686   7.303  65.485  1.00  0.00    -0.095 OA 
HETATM   11  H   UNL     1      -6.475   8.786  62.841  1.00  0.00     0.000 HD 
HETATM   12  C   UNL     1      -8.277   8.282  64.614  1.00  0.00    -0.142 C  
HETATM   13  C   UNL     1      -8.131  10.563  63.604  1.00  0.00    -0.051 C  
HETATM   14  C   UNL     1      -7.376   9.524  64.442  1.00  0.00    -0.115 C  
BRANCH   6  15
HETATM   15  O   UNL     1      -8.695   8.281  67.379  1.00  0.00    -0.123 OA 
BRANCH  15  16
HETATM   16  C   UNL     1      -8.757   9.687  67.676  1.00  0.00    -0.126 C  
HETATM   17  H1  UNL     1     -11.268  11.287  70.996  1.00  0.00     0.000 HD 
HETATM   18  C   UNL     1     -10.066  10.373  67.225  1.00  0.00    -0.200 C  
HETATM   19  C   UNL     1      -8.576   9.825  69.213  1.00  0.00    -0.158 C  
HETATM   20  H2  UNL     1     -12.243  11.599  69.656  1.00  0.00     0.000 HD 
HETATM   21  C   UNL     1     -11.134   9.848  69.510  1.00  0.00    -0.217 C  
HETATM   22  C   UNL     1     -11.259   9.757  67.977  1.00  0.00    -0.059 C  
HETATM   23  O   UNL     1      -8.347  11.209  69.561  1.00  0.00    -0.369 OA 
HETATM   24  H   UNL     1      -8.237  11.293  70.501  1.00  0.00     0.000 HD 
HETATM   25  N   UNL     1     -11.351  11.227  69.982  1.00  0.00    -0.248 NA 
HETATM   26  C   UNL     1      -9.784   9.241  70.000  1.00  0.00    -0.207 C  
BRANCH  18  27
HETATM   27  N   UNL     1      -9.990  11.827  67.370  1.00  0.00    -0.184 N  
HETATM   28  H   UNL     1      -9.293  12.217  68.004  1.00  0.00     0.000 HD 
HETATM   29  C   UNL     1     -10.815  12.695  66.692  1.00  0.00    -0.258 C  
HETATM   30  O   UNL     1     -11.668  12.341  65.885  1.00  0.00    -0.395 OA 
BRANCH  29  31
HETATM   31  C   UNL     1     -10.562  14.179  67.003  1.00  0.00    -0.276 C  
HETATM   32  H   UNL     1      -9.706  15.237  68.433  1.00  0.00     0.000 HD 
HETATM   33  O   UNL     1      -9.862  14.319  68.240  1.00  0.00    -0.221 OA 
BRANCH  31  34
HETATM   34  C   UNL     1      -9.736  14.838  65.898  1.00  0.00    -0.355 C  
BRANCH  34  35
HETATM   35  C   UNL     1      -9.995  16.342  65.815  1.00  0.00    -0.323 C  
HETATM   36  H1  UNL     1     -11.196  17.630  64.764  1.00  0.00     0.000 HD 
HETATM   37  H2  UNL     1     -11.880  16.103  64.999  1.00  0.00     0.000 HD 
HETATM   38  N   UNL     1     -11.023  16.626  64.820  1.00  0.00    -0.743 NA 
ENDBRANCH  34  35
ENDBRANCH  31  34
ENDBRANCH  29  31
ENDBRANCH  18  27
BRANCH  26  39
HETATM   39  O   UNL     1      -9.943   7.830  69.871  1.00  0.00    -0.186 OA 
BRANCH  39  40
HETATM   40  C   UNL     1      -9.687   7.007  71.013  1.00  0.00    -0.173 C  
HETATM   41  H1  UNL     1     -13.079   6.243  71.098  1.00  0.00     0.000 HD 
HETATM   42  O   UNL     1      -9.332   7.790  72.157  1.00  0.00    -0.138 OA 
HETATM   43  H2  UNL     1     -12.244   7.211  70.017  1.00  0.00     0.000 HD 
HETATM   44  N   UNL     1     -12.247   6.816  70.958  1.00  0.00    -0.376 NA 
HETATM   45  C   UNL     1     -10.964   6.128  71.227  1.00  0.00    -0.282 C  
HETATM   46  C   UNL     1      -9.220   7.053  73.325  1.00  0.00    -0.144 C  
HETATM   47  C   UNL     1     -10.953   5.415  72.587  1.00  0.00    -0.321 C  
HETATM   48  C   UNL     1      -9.946   5.947  73.550  1.00  0.00    -0.187 C  
BRANCH  46  49
HETATM   49  C   UNL     1      -8.258   7.608  74.351  1.00  0.00    -0.226 C  
BRANCH  49  50
HETATM   50  N   UNL     1      -7.543   8.801  73.890  1.00  0.00    -0.408 NA 
HETATM   51  H   UNL     1      -7.533   9.529  74.605  1.00  0.00     0.000 HD 
BRANCH  50  52
HETATM   52  C   UNL     1      -6.180   8.472  73.438  1.00  0.00    -0.105 C  
BRANCH  52  53
HETATM   53  C   UNL     1      -5.972   8.895  71.981  1.00  0.00    -0.076 C  
HETATM   54  O   UNL     1      -6.362   7.850  71.094  1.00  0.00    -0.034 OA 
HETATM   55  H   UNL     1      -6.233   8.112  70.190  1.00  0.00     0.000 HD 
ENDBRANCH  52  53
ENDBRANCH  50  52
ENDBRANCH  49  50
ENDBRANCH  46  49
ENDBRANCH  39  40
ENDBRANCH  26  39
ENDBRANCH  15  16
ENDBRANCH   6  15
ENDBRANCH   2   4
TORSDOF 13
ENDMDL
MODEL      130
REMARK 921   NORMALIZED FREE ENERGY PREDICTED BY IDOCK:   -2.76 KCAL/MOL
REMARK 922        TOTAL FREE ENERGY PREDICTED BY IDOCK:   -8.32 KCAL/MOL
REMARK 923 INTER-LIGAND FREE ENERGY PREDICTED BY IDOCK:   -7.86 KCAL/MOL
REMARK 924 INTRA-LIGAND FREE ENERGY PREDICTED BY IDOCK:   -0.46 KCAL/MOL
REMARK 927      BINDING AFFINITY PREDICTED BY RF-SCORE:    0.00 PKD
ROOT
HETATM    1  C   UNL     1     -11.372   6.431  69.859  1.00  0.00    -0.434 C  
HETATM    2  N   UNL     1     -11.531   6.431  68.408  1.00  0.00    -0.501 NA 
HETATM    3  H   UNL     1     -12.367   6.956  68.148  1.00  0.00     0.000 HD 
ENDROOT
BRANCH   2   4
HETATM    4  C   UNL     1     -10.356   6.926  67.630  1.00  0.00    -0.205 C  
HETATM    5  C   UNL     1     -10.622   8.300  66.964  1.00  0.00    -0.258 C  
HETATM    6  C   UNL     1      -9.318   8.829  66.325  1.00  0.00    -0.222 C  
HETATM    7  O   UNL     1     -11.158   9.234  67.904  1.00  0.00    -0.506 OA 
HETATM    8  H   UNL     1     -11.321  10.076  67.495  1.00  0.00     0.000 HD 
HETATM    9  O   UNL     1     -10.654   5.557  65.601  1.00  0.00    -0.410 OA 
HETATM   10  O   UNL     1      -8.886   7.906  65.325  1.00  0.00    -0.070 OA 
HETATM   11  H   UNL     1     -10.256   4.964  64.975  1.00  0.00     0.000 HD 
HETATM   12  C   UNL     1      -8.515   6.634  65.884  1.00  0.00    -0.144 C  
HETATM   13  C   UNL     1      -9.191   4.666  67.268  1.00  0.00    -0.143 C  
HETATM   14  C   UNL     1      -9.700   5.948  66.600  1.00  0.00    -0.157 C  
BRANCH   6  15
HETATM   15  O   UNL     1      -8.310   9.024  67.320  1.00  0.00    -0.110 OA 
BRANCH  15  16
HETATM   16  C   UNL     1      -8.690   8.730  68.675  1.00  0.00    -0.134 C  
HETATM   17  H1  UNL     1      -6.618  10.586  72.161  1.00  0.00     0.000 HD 
HETATM   18  C   UNL     1      -7.711   7.795  69.420  1.00  0.00    -0.106 C  
HETATM   19  C   UNL     1      -8.801  10.094  69.412  1.00  0.00    -0.185 C  
HETATM   20  H2  UNL     1      -5.892   9.065  72.109  1.00  0.00     0.000 HD 
HETATM   21  C   UNL     1      -6.376   9.840  70.242  1.00  0.00    -0.085 C  
HETATM   22  C   UNL     1      -6.334   8.472  69.533  1.00  0.00    -0.040 C  
HETATM   23  O   UNL     1      -9.444   9.912  70.693  1.00  0.00    -0.335 OA 
HETATM   24  H   UNL     1      -9.512  10.746  71.144  1.00  0.00     0.000 HD 
HETATM   25  N   UNL     1      -6.590   9.682  71.692  1.00  0.00    -0.300 NA 
HETATM   26  C   UNL     1      -7.417  10.787  69.573  1.00  0.00    -0.110 C  
BRANCH  18  27
HETATM   27  N   UNL     1      -8.247   7.373  70.714  1.00  0.00    -0.110 N  
HETATM   28  H   UNL     1      -8.849   8.019  71.225  1.00  0.00     0.000 HD 
HETATM   29  C   UNL     1      -7.976   6.146  71.277  1.00  0.00    -0.113 C  
HETATM   30  O   UNL     1      -7.290   5.283  70.741  1.00  0.00    -0.069 OA 
BRANCH  29  31
HETATM   31  C   UNL     1      -8.640   5.920  72.645  1.00  0.00    -0.119 C  
HETATM   32  H   UNL     1      -9.945   6.850  73.797  1.00  0.00     0.000 HD 
HETATM   33  O   UNL     1      -9.535   6.990  72.951  1.00  0.00    -0.140 OA 
BRANCH  31  34
HETATM   34  C   UNL     1      -9.426   4.608  72.662  1.00  0.00    -0.163 C  
BRANCH  34  35
HETATM   35  C   UNL     1      -8.819   3.595  73.633  1.00  0.00    -0.088 C  
HETATM   36  H1  UNL     1      -7.962   1.734  73.562  1.00  0.00     0.000 HD 
HETATM   37  H2  UNL     1      -7.722   2.646  72.160  1.00  0.00     0.000 HD 
HETATM   38  N   UNL     1      -8.366   2.410  72.915  1.00  0.00    -0.062 NA 
ENDBRANCH  34  35
ENDBRANCH  31  34
ENDBRANCH  29  31
ENDBRANCH  18  27
BRANCH  26  39
HETATM   39  O   UNL     1      -6.816  11.190  68.344  1.00  0.00    -0.061 OA 
BRANCH  39  40
HETATM   40  C   UNL     1      -7.181  12.457  67.789  1.00  0.00    -0.119 C  
HETATM   41  H1  UNL     1      -4.309  13.798  69.222  1.00  0.00     0.000 HD 
HETATM   42  O   UNL     1      -8.344  12.995  68.425  1.00  0.00    -0.157 OA 
HETATM   43  H2  UNL     1      -4.865  12.220  69.256  1.00  0.00     0.000 HD 
HETATM   44  N   UNL     1      -5.131  13.198  69.145  1.00  0.00    -0.069 NA 
HETATM   45  C   UNL     1      -5.920  13.377  67.906  1.00  0.00    -0.140 C  
HETATM   46  C   UNL     1      -8.650  14.287  68.028  1.00  0.00    -0.169 C  
HETATM   47  C   UNL     1      -6.252  14.850  67.627  1.00  0.00    -0.123 C  
HETATM   48  C   UNL     1      -7.710  15.163  67.644  1.00  0.00    -0.186 C  
BRANCH  46  49
HETATM   49  C   UNL     1     -10.114  14.657  68.103  1.00  0.00    -0.224 C  
BRANCH  49  50
HETATM   50  N   UNL     1     -10.928  14.022  67.062  1.00  0.00    -0.294 NA 
HETATM   51  H   UNL     1     -10.361  13.752  66.259  1.00  0.00     0.000 HD 
BRANCH  50  52
HETATM   52  C   UNL     1     -11.687  12.877  67.595  1.00  0.00    -0.370 C  
BRANCH  52  53
HETATM   53  C   UNL     1     -11.791  12.953  69.120  1.00  0.00    -0.303 C  
HETATM   54  O   UNL     1     -11.492  11.690  69.708  1.00  0.00    -0.333 OA 
HETATM   55  H   UNL     1     -11.557  11.738  70.655  1.00  0.00     0.000 HD 
ENDBRANCH  52  53
ENDBRANCH  50  52
ENDBRANCH  49  50
ENDBRANCH  46  49
ENDBRANCH  39  40
ENDBRANCH  26  39
ENDBRANCH  15  16
ENDBRANCH   6  15
ENDBRANCH   2   4
TORSDOF 13
ENDMDL
MODEL      131
REMARK 921   NORMALIZED FREE ENERGY PREDICTED BY IDOCK:   -2.76 KCAL/MOL
REMARK 922        TOTAL FREE ENERGY PREDICTED BY IDOCK:   -8.31 KCAL/MOL
REMARK 923 INTER-LIGAND FREE ENERGY PREDICTED BY IDOCK:   -8.66 KCAL/MOL
REMARK 924 INTRA-LIGAND FREE ENERGY PREDICTED BY IDOCK:    0.35 KCAL/MOL
REMARK 927      BINDING AFFINITY PREDICTED BY RF-SCORE:    0.00 PKD
ROOT
HETATM    1  C   UNL     1      -5.324  14.940  67.834  1.00  0.00    -0.089 C  
HETATM    2  N   UNL     1      -5.605  13.790  68.687  1.00  0.00    -0.081 NA 
HETATM    3  H   UNL     1      -5.565  14.065  69.668  1.00  0.00     0.000 HD 
ENDROOT
BRANCH   2   4
HETATM    4  C   UNL     1      -6.889  13.078  68.408  1.00  0.00    -0.097 C  
HETATM    5  C   UNL     1      -8.031  13.522  69.356  1.00  0.00     0.632 C  
HETATM    6  C   UNL     1      -9.361  12.880  68.904  1.00  0.00     0.290 C  
HETATM    7  O   UNL     1      -8.133  14.947  69.410  1.00  0.00    -0.293 OA 
HETATM    8  H   UNL     1      -8.833  15.219  69.992  1.00  0.00     0.000 HD 
HETATM    9  O   UNL     1      -6.383  10.947  69.542  1.00  0.00    -0.059 OA 
HETATM   10  O   UNL     1      -9.233  11.459  68.968  1.00  0.00    -0.079 OA 
HETATM   11  H   UNL     1      -6.359  10.000  69.482  1.00  0.00     0.000 HD 
HETATM   12  C   UNL     1      -8.263  10.958  68.032  1.00  0.00    -0.121 C  
HETATM   13  C   UNL     1      -5.908  11.034  67.200  1.00  0.00    -0.064 C  
HETATM   14  C   UNL     1      -6.850  11.517  68.309  1.00  0.00    -0.066 C  
BRANCH   6  15
HETATM   15  O   UNL     1      -9.709  13.310  67.585  1.00  0.00    -0.209 OA 
BRANCH  15  16
HETATM   16  C   UNL     1     -10.093  14.688  67.448  1.00  0.00    -0.232 C  
HETATM   17  H1  UNL     1     -13.142  16.001  64.469  1.00  0.00     0.000 HD 
HETATM   18  C   UNL     1      -9.517  15.385  66.195  1.00  0.00    -0.336 C  
HETATM   19  C   UNL     1     -11.646  14.716  67.415  1.00  0.00    -0.389 C  
HETATM   20  H2  UNL     1     -11.706  16.395  63.678  1.00  0.00     0.000 HD 
HETATM   21  C   UNL     1     -11.590  14.677  64.840  1.00  0.00    -0.405 C  
HETATM   22  C   UNL     1     -10.052  14.697  64.927  1.00  0.00    -0.231 C  
HETATM   23  O   UNL     1     -12.119  16.074  67.559  1.00  0.00     0.267 OA 
HETATM   24  H   UNL     1     -13.069  16.091  67.539  1.00  0.00     0.000 HD 
HETATM   25  N   UNL     1     -12.124  16.014  64.526  1.00  0.00    -0.162 NA 
HETATM   26  C   UNL     1     -12.217  14.057  66.126  1.00  0.00    -0.465 C  
BRANCH  18  27
HETATM   27  N   UNL     1      -9.773  16.826  66.213  1.00  0.00    -0.285 N  
HETATM   28  H   UNL     1     -10.723  17.148  66.396  1.00  0.00     0.000 HD 
HETATM   29  C   UNL     1      -8.793  17.767  65.994  1.00  0.00     0.012 C  
HETATM   30  O   UNL     1      -7.615  17.496  65.792  1.00  0.00    -0.514 OA 
BRANCH  29  31
HETATM   31  C   UNL     1      -9.291  19.221  66.053  1.00  0.00    -0.145 C  
HETATM   32  H   UNL     1     -11.002  20.179  65.831  1.00  0.00     0.000 HD 
HETATM   33  O   UNL     1     -10.694  19.281  65.794  1.00  0.00    -0.467 OA 
BRANCH  31  34
HETATM   34  C   UNL     1      -9.022  19.836  67.426  1.00  0.00    -0.402 C  
BRANCH  34  35
HETATM   35  C   UNL     1     -10.151  19.538  68.414  1.00  0.00    -0.445 C  
HETATM   36  H1  UNL     1     -10.741  18.007  69.642  1.00  0.00     0.000 HD 
HETATM   37  H2  UNL     1      -9.070  18.084  69.409  1.00  0.00     0.000 HD 
HETATM   38  N   UNL     1      -9.989  18.206  68.984  1.00  0.00    -0.331 NA 
ENDBRANCH  34  35
ENDBRANCH  31  34
ENDBRANCH  29  31
ENDBRANCH  18  27
BRANCH  26  39
HETATM   39  O   UNL     1     -11.968  12.657  66.022  1.00  0.00    -0.420 OA 
BRANCH  39  40
HETATM   40  C   UNL     1     -10.992  12.206  65.078  1.00  0.00    -0.309 C  
HETATM   41  H1  UNL     1     -13.550  11.875  62.745  1.00  0.00     0.000 HD 
HETATM   42  O   UNL     1     -10.476  10.918  65.427  1.00  0.00    -0.265 OA 
HETATM   43  H2  UNL     1     -13.631  12.412  64.328  1.00  0.00     0.000 HD 
HETATM   44  N   UNL     1     -13.103  11.849  63.662  1.00  0.00    -0.638 NA 
HETATM   45  C   UNL     1     -11.678  12.247  63.671  1.00  0.00    -0.504 C  
HETATM   46  C   UNL     1      -9.640  10.372  64.466  1.00  0.00    -0.309 C  
HETATM   47  C   UNL     1     -10.853  11.511  62.606  1.00  0.00     0.629 C  
HETATM   48  C   UNL     1      -9.781  10.634  63.158  1.00  0.00    -0.375 C  
BRANCH  46  49
HETATM   49  C   UNL     1      -8.586   9.422  64.989  1.00  0.00    -0.172 C  
BRANCH  49  50
HETATM   50  N   UNL     1      -9.068   8.046  65.136  1.00  0.00    -0.361 NA 
HETATM   51  H   UNL     1      -8.462   7.385  64.650  1.00  0.00     0.000 HD 
BRANCH  50  52
HETATM   52  C   UNL     1      -9.235   7.681  66.554  1.00  0.00    -0.176 C  
BRANCH  52  53
HETATM   53  C   UNL     1     -10.680   7.905  67.007  1.00  0.00    -0.219 C  
HETATM   54  O   UNL     1     -11.435   6.702  66.890  1.00  0.00    -0.777 OA 
HETATM   55  H   UNL     1     -12.332   6.841  67.171  1.00  0.00     0.000 HD 
ENDBRANCH  52  53
ENDBRANCH  50  52
ENDBRANCH  49  50
ENDBRANCH  46  49
ENDBRANCH  39  40
ENDBRANCH  26  39
ENDBRANCH  15  16
ENDBRANCH   6  15
ENDBRANCH   2   4
TORSDOF 13
ENDMDL
MODEL      132
REMARK 921   NORMALIZED FREE ENERGY PREDICTED BY IDOCK:   -2.73 KCAL/MOL
REMARK 922        TOTAL FREE ENERGY PREDICTED BY IDOCK:   -8.27 KCAL/MOL
REMARK 923 INTER-LIGAND FREE ENERGY PREDICTED BY IDOCK:   -6.60 KCAL/MOL
REMARK 924 INTRA-LIGAND FREE ENERGY PREDICTED BY IDOCK:   -1.67 KCAL/MOL
REMARK 927      BINDING AFFINITY PREDICTED BY RF-SCORE:    0.00 PKD
ROOT
HETATM    1  C   UNL     1      -5.522   4.838  63.066  1.00  0.00    -0.013 C  
HETATM    2  N   UNL     1      -6.540   5.838  63.373  1.00  0.00    -0.032 NA 
HETATM    3  H   UNL     1      -7.084   6.050  62.536  1.00  0.00     0.000 HD 
ENDROOT
BRANCH   2   4
HETATM    4  C   UNL     1      -7.455   5.500  64.504  1.00  0.00    -0.068 C  
HETATM    5  C   UNL     1      -6.741   5.546  65.879  1.00  0.00    -0.056 C  
HETATM    6  C   UNL     1      -7.778   5.358  67.009  1.00  0.00    -0.100 C  
HETATM    7  O   UNL     1      -6.011   6.764  66.040  1.00  0.00    -0.032 OA 
HETATM    8  H   UNL     1      -5.573   6.792  66.882  1.00  0.00     0.000 HD 
HETATM    9  O   UNL     1      -7.453   3.046  64.259  1.00  0.00    -0.067 OA 
HETATM   10  O   UNL     1      -8.403   4.083  66.855  1.00  0.00    -0.100 OA 
HETATM   11  H   UNL     1      -7.970   2.253  64.187  1.00  0.00     0.000 HD 
HETATM   12  C   UNL     1      -9.178   4.000  65.647  1.00  0.00    -0.150 C  
HETATM   13  C   UNL     1      -9.225   4.214  63.158  1.00  0.00    -0.129 C  
HETATM   14  C   UNL     1      -8.308   4.193  64.386  1.00  0.00    -0.101 C  
BRANCH   6  15
HETATM   15  O   UNL     1      -8.743   6.413  66.993  1.00  0.00    -0.114 OA 
BRANCH  15  16
HETATM   16  C   UNL     1      -9.603   6.504  68.141  1.00  0.00    -0.123 C  
HETATM   17  H1  UNL     1      -9.738  10.152  70.703  1.00  0.00     0.000 HD 
HETATM   18  C   UNL     1      -8.869   6.372  69.495  1.00  0.00    -0.136 C  
HETATM   19  C   UNL     1     -10.324   7.877  68.049  1.00  0.00    -0.209 C  
HETATM   20  H2  UNL     1      -8.746   9.137  71.614  1.00  0.00     0.000 HD 
HETATM   21  C   UNL     1      -8.520   8.924  69.559  1.00  0.00    -0.128 C  
HETATM   22  C   UNL     1      -7.870   7.531  69.657  1.00  0.00    -0.119 C  
HETATM   23  O   UNL     1     -11.406   7.932  69.005  1.00  0.00    -0.314 OA 
HETATM   24  H   UNL     1     -11.847   8.771  68.948  1.00  0.00     0.000 HD 
HETATM   25  N   UNL     1      -9.307   9.231  70.767  1.00  0.00    -0.259 NA 
HETATM   26  C   UNL     1      -9.343   9.069  68.243  1.00  0.00    -0.139 C  
BRANCH  18  27
HETATM   27  N   UNL     1      -9.810   6.272  70.611  1.00  0.00    -0.183 N  
HETATM   28  H   UNL     1     -10.791   6.497  70.442  1.00  0.00     0.000 HD 
HETATM   29  C   UNL     1      -9.436   5.887  71.878  1.00  0.00    -0.151 C  
HETATM   30  O   UNL     1      -8.294   5.567  72.189  1.00  0.00    -0.120 OA 
BRANCH  29  31
HETATM   31  C   UNL     1     -10.589   5.858  72.894  1.00  0.00    -0.235 C  
HETATM   32  H   UNL     1     -10.981   6.630  74.668  1.00  0.00     0.000 HD 
HETATM   33  O   UNL     1     -10.268   6.648  74.040  1.00  0.00    -0.312 OA 
BRANCH  31  34
HETATM   34  C   UNL     1     -11.878   6.399  72.276  1.00  0.00    -0.315 C  
BRANCH  34  35
HETATM   35  C   UNL     1     -12.102   7.871  72.624  1.00  0.00    -0.187 C  
HETATM   36  H1  UNL     1     -12.838   9.560  71.723  1.00  0.00     0.000 HD 
HETATM   37  H2  UNL     1     -13.545   8.130  71.166  1.00  0.00     0.000 HD 
HETATM   38  N   UNL     1     -12.689   8.578  71.492  1.00  0.00    -0.317 NA 
ENDBRANCH  34  35
ENDBRANCH  31  34
ENDBRANCH  29  31
ENDBRANCH  18  27
BRANCH  26  39
HETATM   39  O   UNL     1      -8.369   9.203  67.210  1.00  0.00    -0.119 OA 
BRANCH  39  40
HETATM   40  C   UNL     1      -7.865  10.508  66.913  1.00  0.00    -0.117 C  
HETATM   41  H1  UNL     1      -4.703   9.385  67.826  1.00  0.00     0.000 HD 
HETATM   42  O   UNL     1      -8.332  11.480  67.855  1.00  0.00    -0.125 OA 
HETATM   43  H2  UNL     1      -6.149   8.543  67.786  1.00  0.00     0.000 HD 
HETATM   44  N   UNL     1      -5.719   9.465  67.861  1.00  0.00    -0.041 NA 
HETATM   45  C   UNL     1      -6.306  10.385  66.860  1.00  0.00    -0.071 C  
HETATM   46  C   UNL     1      -7.754  12.729  67.700  1.00  0.00    -0.162 C  
HETATM   47  C   UNL     1      -5.618  11.758  66.848  1.00  0.00    -0.128 C  
HETATM   48  C   UNL     1      -6.508  12.892  67.229  1.00  0.00    -0.035 C  
BRANCH  46  49
HETATM   49  C   UNL     1      -8.606  13.896  68.145  1.00  0.00    -0.180 C  
BRANCH  49  50
HETATM   50  N   UNL     1      -9.544  14.356  67.116  1.00  0.00    -0.243 NA 
HETATM   51  H   UNL     1      -9.116  14.346  66.191  1.00  0.00     0.000 HD 
BRANCH  50  52
HETATM   52  C   UNL     1     -10.795  13.577  67.141  1.00  0.00    -0.284 C  
BRANCH  52  53
HETATM   53  C   UNL     1     -11.963  14.405  66.600  1.00  0.00    -0.392 C  
HETATM   54  O   UNL     1     -12.729  13.645  65.670  1.00  0.00    -0.495 OA 
HETATM   55  H   UNL     1     -13.454  14.159  65.334  1.00  0.00     0.000 HD 
ENDBRANCH  52  53
ENDBRANCH  50  52
ENDBRANCH  49  50
ENDBRANCH  46  49
ENDBRANCH  39  40
ENDBRANCH  26  39
ENDBRANCH  15  16
ENDBRANCH   6  15
ENDBRANCH   2   4
TORSDOF 13
ENDMDL
MODEL      133
REMARK 921   NORMALIZED FREE ENERGY PREDICTED BY IDOCK:   -2.73 KCAL/MOL
REMARK 922        TOTAL FREE ENERGY PREDICTED BY IDOCK:   -8.26 KCAL/MOL
REMARK 923 INTER-LIGAND FREE ENERGY PREDICTED BY IDOCK:   -8.68 KCAL/MOL
REMARK 924 INTRA-LIGAND FREE ENERGY PREDICTED BY IDOCK:    0.42 KCAL/MOL
REMARK 927      BINDING AFFINITY PREDICTED BY RF-SCORE:    0.00 PKD
ROOT
HETATM    1  C   UNL     1      -9.241   5.040  66.797  1.00  0.00    -0.120 C  
HETATM    2  N   UNL     1      -8.097   5.616  66.098  1.00  0.00    -0.106 NA 
HETATM    3  H   UNL     1      -8.310   5.721  65.106  1.00  0.00     0.000 HD 
ENDROOT
BRANCH   2   4
HETATM    4  C   UNL     1      -7.588   6.908  66.650  1.00  0.00    -0.089 C  
HETATM    5  C   UNL     1      -7.868   8.106  65.708  1.00  0.00    -0.096 C  
HETATM    6  C   UNL     1      -7.474   9.424  66.412  1.00  0.00    -0.093 C  
HETATM    7  O   UNL     1      -9.235   8.127  65.292  1.00  0.00    -0.395 OA 
HETATM    8  H   UNL     1      -9.406   8.861  64.714  1.00  0.00     0.000 HD 
HETATM    9  O   UNL     1      -5.205   6.640  66.078  1.00  0.00    -0.016 OA 
HETATM   10  O   UNL     1      -6.078   9.388  66.713  1.00  0.00    -0.061 OA 
HETATM   11  H   UNL     1      -4.305   6.667  66.382  1.00  0.00     0.000 HD 
HETATM   12  C   UNL     1      -5.755   8.365  67.670  1.00  0.00    -0.039 C  
HETATM   13  C   UNL     1      -5.847   5.941  68.273  1.00  0.00    -0.012 C  
HETATM   14  C   UNL     1      -6.106   6.953  67.151  1.00  0.00    -0.029 C  
BRANCH   6  15
HETATM   15  O   UNL     1      -8.254   9.619  67.595  1.00  0.00    -0.113 OA 
BRANCH  15  16
HETATM   16  C   UNL     1      -9.016   8.487  68.046  1.00  0.00    -0.141 C  
HETATM   17  H1  UNL     1     -12.749   8.961  70.441  1.00  0.00     0.000 HD 
HETATM   18  C   UNL     1      -8.863   8.179  69.553  1.00  0.00    -0.143 C  
HETATM   19  C   UNL     1     -10.502   8.786  67.705  1.00  0.00    -0.244 C  
HETATM   20  H2  UNL     1     -11.623   8.592  71.641  1.00  0.00     0.000 HD 
HETATM   21  C   UNL     1     -10.856   9.725  70.076  1.00  0.00    -0.278 C  
HETATM   22  C   UNL     1      -9.389   9.365  70.380  1.00  0.00    -0.317 C  
HETATM   23  O   UNL     1     -11.297   7.591  67.869  1.00  0.00    -0.322 OA 
HETATM   24  H   UNL     1     -12.206   7.774  67.660  1.00  0.00     0.000 HD 
HETATM   25  N   UNL     1     -11.778   8.723  70.642  1.00  0.00    -0.221 NA 
HETATM   26  C   UNL     1     -11.073   9.960  68.551  1.00  0.00    -0.129 C  
BRANCH  18  27
HETATM   27  N   UNL     1      -9.496   6.909  69.911  1.00  0.00    -0.157 N  
HETATM   28  H   UNL     1     -10.412   6.695  69.518  1.00  0.00     0.000 HD 
HETATM   29  C   UNL     1      -8.913   5.989  70.754  1.00  0.00    -0.149 C  
HETATM   30  O   UNL     1      -7.805   6.129  71.260  1.00  0.00    -0.107 OA 
BRANCH  29  31
HETATM   31  C   UNL     1      -9.761   4.730  70.995  1.00  0.00    -0.187 C  
HETATM   32  H   UNL     1      -9.771   2.850  70.395  1.00  0.00     0.000 HD 
HETATM   33  O   UNL     1      -9.246   3.628  70.245  1.00  0.00    -0.119 OA 
BRANCH  31  34
HETATM   34  C   UNL     1      -9.770   4.350  72.476  1.00  0.00    -0.204 C  
BRANCH  34  35
HETATM   35  C   UNL     1     -10.812   5.147  73.261  1.00  0.00    -0.295 C  
HETATM   36  H1  UNL     1     -12.469   6.291  72.875  1.00  0.00     0.000 HD 
HETATM   37  H2  UNL     1     -12.207   5.071  71.737  1.00  0.00     0.000 HD 
HETATM   38  N   UNL     1     -11.774   5.759  72.352  1.00  0.00    -0.280 NA 
ENDBRANCH  34  35
ENDBRANCH  31  34
ENDBRANCH  29  31
ENDBRANCH  18  27
BRANCH  26  39
HETATM   39  O   UNL     1     -10.471  11.225  68.282  1.00  0.00    -0.181 OA 
BRANCH  39  40
HETATM   40  C   UNL     1     -11.297  12.279  67.777  1.00  0.00    -0.301 C  
HETATM   41  H1  UNL     1     -10.306  11.380  64.567  1.00  0.00     0.000 HD 
HETATM   42  O   UNL     1     -10.770  13.567  68.111  1.00  0.00    -0.239 OA 
HETATM   43  H2  UNL     1      -9.885  10.688  66.031  1.00  0.00     0.000 HD 
HETATM   44  N   UNL     1     -10.215  11.536  65.570  1.00  0.00    -0.247 NA 
HETATM   45  C   UNL     1     -11.437  12.039  66.236  1.00  0.00    -0.345 C  
HETATM   46  C   UNL     1     -11.450  14.618  67.518  1.00  0.00    -0.361 C  
HETATM   47  C   UNL     1     -12.044  13.251  65.516  1.00  0.00    -0.480 C  
HETATM   48  C   UNL     1     -12.057  14.503  66.327  1.00  0.00    -0.311 C  
BRANCH  46  49
HETATM   49  C   UNL     1     -11.420  15.922  68.284  1.00  0.00    -0.320 C  
BRANCH  49  50
HETATM   50  N   UNL     1     -10.107  16.573  68.271  1.00  0.00    -0.249 NA 
HETATM   51  H   UNL     1      -9.438  16.051  67.705  1.00  0.00     0.000 HD 
BRANCH  50  52
HETATM   52  C   UNL     1     -10.205  17.976  67.833  1.00  0.00    -0.378 C  
BRANCH  52  53
HETATM   53  C   UNL     1      -9.151  18.290  66.768  1.00  0.00    -0.284 C  
HETATM   54  O   UNL     1      -9.027  17.208  65.849  1.00  0.00    -0.519 OA 
HETATM   55  H   UNL     1      -8.372  17.403  65.189  1.00  0.00     0.000 HD 
ENDBRANCH  52  53
ENDBRANCH  50  52
ENDBRANCH  49  50
ENDBRANCH  46  49
ENDBRANCH  39  40
ENDBRANCH  26  39
ENDBRANCH  15  16
ENDBRANCH   6  15
ENDBRANCH   2   4
TORSDOF 13
ENDMDL
MODEL      134
REMARK 921   NORMALIZED FREE ENERGY PREDICTED BY IDOCK:   -2.71 KCAL/MOL
REMARK 922        TOTAL FREE ENERGY PREDICTED BY IDOCK:   -8.23 KCAL/MOL
REMARK 923 INTER-LIGAND FREE ENERGY PREDICTED BY IDOCK:   -5.86 KCAL/MOL
REMARK 924 INTRA-LIGAND FREE ENERGY PREDICTED BY IDOCK:   -2.38 KCAL/MOL
REMARK 927      BINDING AFFINITY PREDICTED BY RF-SCORE:    0.00 PKD
ROOT
HETATM    1  C   UNL     1     -11.088   4.063  64.569  1.00  0.00     0.123 C  
HETATM    2  N   UNL     1      -9.842   3.352  64.841  1.00  0.00    -0.304 NA 
HETATM    3  H   UNL     1      -9.293   3.270  63.985  1.00  0.00     0.000 HD 
ENDROOT
BRANCH   2   4
HETATM    4  C   UNL     1      -9.000   3.921  65.935  1.00  0.00    -0.132 C  
HETATM    5  C   UNL     1      -8.019   5.007  65.425  1.00  0.00    -0.108 C  
HETATM    6  C   UNL     1      -7.308   5.670  66.626  1.00  0.00    -0.083 C  
HETATM    7  O   UNL     1      -8.696   5.976  64.621  1.00  0.00    -0.346 OA 
HETATM    8  H   UNL     1      -8.094   6.642  64.308  1.00  0.00     0.000 HD 
HETATM    9  O   UNL     1      -7.347   2.100  66.114  1.00  0.00    -0.059 OA 
HETATM   10  O   UNL     1      -6.568   4.673  67.332  1.00  0.00    -0.044 OA 
HETATM   11  H   UNL     1      -6.892   1.491  66.683  1.00  0.00     0.000 HD 
HETATM   12  C   UNL     1      -7.422   3.684  67.930  1.00  0.00    -0.062 C  
HETATM   13  C   UNL     1      -9.217   1.976  67.599  1.00  0.00    -0.190 C  
HETATM   14  C   UNL     1      -8.249   2.918  66.874  1.00  0.00    -0.085 C  
BRANCH   6  15
HETATM   15  O   UNL     1      -8.254   6.316  67.481  1.00  0.00    -0.112 OA 
BRANCH  15  16
HETATM   16  C   UNL     1      -8.098   7.736  67.642  1.00  0.00    -0.124 C  
HETATM   17  H1  UNL     1      -8.048   9.664  71.664  1.00  0.00     0.000 HD 
HETATM   18  C   UNL     1      -9.400   8.478  68.021  1.00  0.00    -0.136 C  
HETATM   19  C   UNL     1      -7.018   7.945  68.740  1.00  0.00    -0.066 C  
HETATM   20  H2  UNL     1      -9.631   9.964  71.166  1.00  0.00     0.000 HD 
HETATM   21  C   UNL     1      -8.869   8.142  70.520  1.00  0.00    -0.144 C  
HETATM   22  C   UNL     1      -9.901   7.978  69.387  1.00  0.00    -0.181 C  
HETATM   23  O   UNL     1      -6.602   9.327  68.766  1.00  0.00    -0.052 OA 
HETATM   24  H   UNL     1      -5.942   9.455  69.438  1.00  0.00     0.000 HD 
HETATM   25  N   UNL     1      -8.731   9.555  70.915  1.00  0.00    -0.243 NA 
HETATM   26  C   UNL     1      -7.510   7.480  70.141  1.00  0.00    -0.086 C  
BRANCH  18  27
HETATM   27  N   UNL     1      -9.227   9.930  67.974  1.00  0.00    -0.124 N  
HETATM   28  H   UNL     1      -8.295  10.314  68.133  1.00  0.00     0.000 HD 
HETATM   29  C   UNL     1     -10.261  10.804  67.726  1.00  0.00    -0.182 C  
HETATM   30  O   UNL     1     -11.413  10.454  67.493  1.00  0.00    -0.386 OA 
BRANCH  29  31
HETATM   31  C   UNL     1      -9.850  12.285  67.730  1.00  0.00    -0.201 C  
HETATM   32  H   UNL     1      -8.322  13.365  68.357  1.00  0.00     0.000 HD 
HETATM   33  O   UNL     1      -8.576  12.450  68.354  1.00  0.00    -0.173 OA 
BRANCH  31  34
HETATM   34  C   UNL     1      -9.770  12.835  66.306  1.00  0.00    -0.262 C  
BRANCH  34  35
HETATM   35  C   UNL     1     -10.553  14.140  66.156  1.00  0.00    -0.293 C  
HETATM   36  H1  UNL     1     -10.218  16.057  65.512  1.00  0.00     0.000 HD 
HETATM   37  H2  UNL     1      -9.260  14.903  64.735  1.00  0.00     0.000 HD 
HETATM   38  N   UNL     1      -9.696  15.187  65.612  1.00  0.00    -0.340 NA 
ENDBRANCH  34  35
ENDBRANCH  31  34
ENDBRANCH  29  31
ENDBRANCH  18  27
BRANCH  26  39
HETATM   39  O   UNL     1      -7.739   6.076  70.247  1.00  0.00    -0.092 OA 
BRANCH  39  40
HETATM   40  C   UNL     1      -7.875   5.504  71.551  1.00  0.00    -0.111 C  
HETATM   41  H1  UNL     1      -4.547   4.513  71.353  1.00  0.00     0.000 HD 
HETATM   42  O   UNL     1      -8.730   4.357  71.537  1.00  0.00    -0.112 OA 
HETATM   43  H2  UNL     1      -5.460   5.365  70.239  1.00  0.00     0.000 HD 
HETATM   44  N   UNL     1      -5.491   4.711  71.022  1.00  0.00    -0.010 NA 
HETATM   45  C   UNL     1      -6.426   5.199  72.060  1.00  0.00    -0.039 C  
HETATM   46  C   UNL     1      -8.775   3.679  72.745  1.00  0.00    -0.094 C  
HETATM   47  C   UNL     1      -6.429   4.313  73.314  1.00  0.00    -0.045 C  
HETATM   48  C   UNL     1      -7.735   3.648  73.591  1.00  0.00    -0.071 C  
BRANCH  46  49
HETATM   49  C   UNL     1     -10.062   2.936  73.023  1.00  0.00    -0.136 C  
BRANCH  49  50
HETATM   50  N   UNL     1     -10.931   3.619  73.985  1.00  0.00    -0.190 NA 
HETATM   51  H   UNL     1     -10.694   3.369  74.945  1.00  0.00     0.000 HD 
BRANCH  50  52
HETATM   52  C   UNL     1     -10.911   5.079  73.788  1.00  0.00    -0.304 C  
BRANCH  52  53
HETATM   53  C   UNL     1     -11.988   5.510  72.789  1.00  0.00    -0.024 C  
HETATM   54  O   UNL     1     -11.407   5.819  71.525  1.00  0.00    -0.231 OA 
HETATM   55  H   UNL     1     -12.076   6.086  70.905  1.00  0.00     0.000 HD 
ENDBRANCH  52  53
ENDBRANCH  50  52
ENDBRANCH  49  50
ENDBRANCH  46  49
ENDBRANCH  39  40
ENDBRANCH  26  39
ENDBRANCH  15  16
ENDBRANCH   6  15
ENDBRANCH   2   4
TORSDOF 13
ENDMDL
MODEL      135
REMARK 921   NORMALIZED FREE ENERGY PREDICTED BY IDOCK:   -2.68 KCAL/MOL
REMARK 922        TOTAL FREE ENERGY PREDICTED BY IDOCK:   -8.18 KCAL/MOL
REMARK 923 INTER-LIGAND FREE ENERGY PREDICTED BY IDOCK:   -7.16 KCAL/MOL
REMARK 924 INTRA-LIGAND FREE ENERGY PREDICTED BY IDOCK:   -1.02 KCAL/MOL
REMARK 927      BINDING AFFINITY PREDICTED BY RF-SCORE:    0.00 PKD
ROOT
HETATM    1  C   UNL     1     -10.641   3.618  63.053  1.00  0.00    -0.218 C  
HETATM    2  N   UNL     1      -9.332   4.076  63.507  1.00  0.00    -0.136 NA 
HETATM    3  H   UNL     1      -9.126   4.993  63.109  1.00  0.00     0.000 HD 
ENDROOT
BRANCH   2   4
HETATM    4  C   UNL     1      -9.137   4.108  64.987  1.00  0.00    -0.143 C  
HETATM    5  C   UNL     1      -8.283   5.316  65.448  1.00  0.00    -0.127 C  
HETATM    6  C   UNL     1      -8.267   5.382  66.992  1.00  0.00    -0.104 C  
HETATM    7  O   UNL     1      -8.766   6.535  64.879  1.00  0.00    -0.348 OA 
HETATM    8  H   UNL     1      -8.242   7.276  65.162  1.00  0.00     0.000 HD 
HETATM    9  O   UNL     1      -7.355   2.411  65.160  1.00  0.00    -0.060 OA 
HETATM   10  O   UNL     1      -7.682   4.182  67.499  1.00  0.00    -0.079 OA 
HETATM   11  H   UNL     1      -7.051   1.617  65.582  1.00  0.00     0.000 HD 
HETATM   12  C   UNL     1      -8.479   3.022  67.204  1.00  0.00    -0.095 C  
HETATM   13  C   UNL     1      -9.593   1.624  65.459  1.00  0.00     0.281 C  
HETATM   14  C   UNL     1      -8.635   2.799  65.684  1.00  0.00    -0.107 C  
BRANCH   6  15
HETATM   15  O   UNL     1      -9.588   5.572  67.505  1.00  0.00    -0.115 OA 
BRANCH  15  16
HETATM   16  C   UNL     1      -9.701   5.711  68.931  1.00  0.00    -0.138 C  
HETATM   17  H1  UNL     1     -10.102   9.698  70.888  1.00  0.00     0.000 HD 
HETATM   18  C   UNL     1      -8.417   6.226  69.622  1.00  0.00    -0.129 C  
HETATM   19  C   UNL     1     -10.882   6.686  69.191  1.00  0.00    -0.283 C  
HETATM   20  H2  UNL     1      -8.464   9.372  71.120  1.00  0.00     0.000 HD 
HETATM   21  C   UNL     1      -9.227   8.653  69.325  1.00  0.00    -0.150 C  
HETATM   22  C   UNL     1      -8.087   7.639  69.112  1.00  0.00    -0.125 C  
HETATM   23  O   UNL     1     -11.242   6.663  70.590  1.00  0.00    -0.273 OA 
HETATM   24  H   UNL     1     -11.965   7.260  70.749  1.00  0.00     0.000 HD 
HETATM   25  N   UNL     1      -9.348   9.027  70.747  1.00  0.00    -0.227 NA 
HETATM   26  C   UNL     1     -10.564   8.133  68.717  1.00  0.00    -0.121 C  
BRANCH  18  27
HETATM   27  N   UNL     1      -8.524   6.156  71.080  1.00  0.00    -0.127 N  
HETATM   28  H   UNL     1      -8.689   7.020  71.596  1.00  0.00     0.000 HD 
HETATM   29  C   UNL     1      -8.413   4.981  71.787  1.00  0.00    -0.124 C  
HETATM   30  O   UNL     1      -8.243   3.882  71.269  1.00  0.00    -0.067 OA 
BRANCH  29  31
HETATM   31  C   UNL     1      -8.552   5.146  73.309  1.00  0.00    -0.113 C  
HETATM   32  H   UNL     1      -7.522   4.661  74.922  1.00  0.00     0.000 HD 
HETATM   33  O   UNL     1      -7.436   4.559  73.981  1.00  0.00    -0.078 OA 
BRANCH  31  34
HETATM   34  C   UNL     1      -8.631   6.623  73.695  1.00  0.00    -0.137 C  
BRANCH  34  35
HETATM   35  C   UNL     1      -7.385   7.080  74.454  1.00  0.00    -0.101 C  
HETATM   36  H1  UNL     1      -6.441   8.838  74.924  1.00  0.00     0.000 HD 
HETATM   37  H2  UNL     1      -8.116   8.989  74.763  1.00  0.00     0.000 HD 
HETATM   38  N   UNL     1      -7.272   8.533  74.417  1.00  0.00    -0.304 NA 
ENDBRANCH  34  35
ENDBRANCH  31  34
ENDBRANCH  29  31
ENDBRANCH  18  27
BRANCH  26  39
HETATM   39  O   UNL     1     -10.406   8.267  67.306  1.00  0.00    -0.249 OA 
BRANCH  39  40
HETATM   40  C   UNL     1     -10.757   9.512  66.696  1.00  0.00    -0.016 C  
HETATM   41  H1  UNL     1      -7.812   9.327  64.855  1.00  0.00     0.000 HD 
HETATM   42  O   UNL     1     -10.686  10.595  67.629  1.00  0.00    -0.226 OA 
HETATM   43  H2  UNL     1      -8.428   8.240  65.969  1.00  0.00     0.000 HD 
HETATM   44  N   UNL     1      -8.427   9.213  65.661  1.00  0.00    -0.131 NA 
HETATM   45  C   UNL     1      -9.814   9.687  65.458  1.00  0.00    -0.281 C  
HETATM   46  C   UNL     1     -10.871  11.841  67.053  1.00  0.00    -0.263 C  
HETATM   47  C   UNL     1      -9.872  11.110  64.885  1.00  0.00    -0.316 C  
HETATM   48  C   UNL     1     -10.516  12.108  65.787  1.00  0.00    -0.287 C  
BRANCH  46  49
HETATM   49  C   UNL     1     -11.457  12.895  67.965  1.00  0.00    -0.319 C  
BRANCH  49  50
HETATM   50  N   UNL     1     -11.883  14.105  67.255  1.00  0.00    -0.401 NA 
HETATM   51  H   UNL     1     -12.806  14.411  67.561  1.00  0.00     0.000 HD 
BRANCH  50  52
HETATM   52  C   UNL     1     -10.887  15.184  67.384  1.00  0.00    -0.302 C  
BRANCH  52  53
HETATM   53  C   UNL     1     -11.332  16.214  68.426  1.00  0.00    -0.345 C  
HETATM   54  O   UNL     1     -10.202  16.860  69.008  1.00  0.00    -0.277 OA 
HETATM   55  H   UNL     1     -10.478  17.499  69.655  1.00  0.00     0.000 HD 
ENDBRANCH  52  53
ENDBRANCH  50  52
ENDBRANCH  49  50
ENDBRANCH  46  49
ENDBRANCH  39  40
ENDBRANCH  26  39
ENDBRANCH  15  16
ENDBRANCH   6  15
ENDBRANCH   2   4
TORSDOF 13
ENDMDL
MODEL      136
REMARK 921   NORMALIZED FREE ENERGY PREDICTED BY IDOCK:   -2.66 KCAL/MOL
REMARK 922        TOTAL FREE ENERGY PREDICTED BY IDOCK:   -8.14 KCAL/MOL
REMARK 923 INTER-LIGAND FREE ENERGY PREDICTED BY IDOCK:   -6.53 KCAL/MOL
REMARK 924 INTRA-LIGAND FREE ENERGY PREDICTED BY IDOCK:   -1.60 KCAL/MOL
REMARK 927      BINDING AFFINITY PREDICTED BY RF-SCORE:    0.00 PKD
ROOT
HETATM    1  C   UNL     1     -11.293  15.959  64.291  1.00  0.00    -0.171 C  
HETATM    2  N   UNL     1     -11.715  14.586  64.028  1.00  0.00    -0.665 NA 
HETATM    3  H   UNL     1     -11.392  14.293  63.106  1.00  0.00     0.000 HD 
ENDROOT
BRANCH   2   4
HETATM    4  C   UNL     1     -11.310  13.579  65.055  1.00  0.00    -0.320 C  
HETATM    5  C   UNL     1     -11.715  12.136  64.662  1.00  0.00    -0.332 C  
HETATM    6  C   UNL     1     -11.118  11.135  65.676  1.00  0.00    -0.008 C  
HETATM    7  O   UNL     1     -11.307  11.831  63.327  1.00  0.00    -0.630 OA 
HETATM    8  H   UNL     1     -11.556  10.946  63.087  1.00  0.00     0.000 HD 
HETATM    9  O   UNL     1     -13.126  13.959  66.679  1.00  0.00    -0.219 OA 
HETATM   10  O   UNL     1     -11.639  11.425  66.974  1.00  0.00    -0.510 OA 
HETATM   11  H   UNL     1     -13.363  14.129  67.583  1.00  0.00     0.000 HD 
HETATM   12  C   UNL     1     -11.214  12.711  67.455  1.00  0.00    -0.288 C  
HETATM   13  C   UNL     1     -11.103  15.176  67.057  1.00  0.00    -0.328 C  
HETATM   14  C   UNL     1     -11.700  13.860  66.544  1.00  0.00    -0.393 C  
BRANCH   6  15
HETATM   15  O   UNL     1      -9.689  11.195  65.667  1.00  0.00    -0.205 OA 
BRANCH  15  16
HETATM   16  C   UNL     1      -9.001   9.994  66.055  1.00  0.00    -0.148 C  
HETATM   17  H1  UNL     1      -4.782  10.057  67.500  1.00  0.00     0.000 HD 
HETATM   18  C   UNL     1      -7.957   9.502  65.027  1.00  0.00    -0.119 C  
HETATM   19  C   UNL     1      -8.318  10.293  67.418  1.00  0.00    -0.118 C  
HETATM   20  H2  UNL     1      -4.582   9.570  65.897  1.00  0.00     0.000 HD 
HETATM   21  C   UNL     1      -6.141  10.913  66.189  1.00  0.00    -0.135 C  
HETATM   22  C   UNL     1      -6.850  10.559  64.867  1.00  0.00     0.032 C  
HETATM   23  O   UNL     1      -7.840   9.065  68.011  1.00  0.00    -0.099 OA 
HETATM   24  H   UNL     1      -7.422   9.248  68.845  1.00  0.00     0.000 HD 
HETATM   25  N   UNL     1      -5.250   9.822  66.625  1.00  0.00    -0.040 NA 
HETATM   26  C   UNL     1      -7.169  11.334  67.282  1.00  0.00    -0.114 C  
BRANCH  18  27
HETATM   27  N   UNL     1      -7.436   8.180  65.377  1.00  0.00    -0.079 N  
HETATM   28  H   UNL     1      -7.035   8.046  66.306  1.00  0.00     0.000 HD 
HETATM   29  C   UNL     1      -7.462   7.108  64.514  1.00  0.00    -0.099 C  
HETATM   30  O   UNL     1      -7.945   7.147  63.388  1.00  0.00    -0.122 OA 
BRANCH  29  31
HETATM   31  C   UNL     1      -6.856   5.819  65.092  1.00  0.00    -0.051 C  
HETATM   32  H   UNL     1      -5.081   5.187  65.681  1.00  0.00     0.000 HD 
HETATM   33  O   UNL     1      -5.456   5.984  65.324  1.00  0.00    -0.016 OA 
BRANCH  31  34
HETATM   34  C   UNL     1      -7.527   5.441  66.412  1.00  0.00    -0.087 C  
BRANCH  34  35
HETATM   35  C   UNL     1      -6.503   5.180  67.516  1.00  0.00    -0.045 C  
HETATM   36  H1  UNL     1      -5.433   6.257  68.894  1.00  0.00     0.000 HD 
HETATM   37  H2  UNL     1      -6.925   6.946  68.504  1.00  0.00     0.000 HD 
HETATM   38  N   UNL     1      -6.116   6.431  68.157  1.00  0.00    -0.026 NA 
ENDBRANCH  34  35
ENDBRANCH  31  34
ENDBRANCH  29  31
ENDBRANCH  18  27
BRANCH  26  39
HETATM   39  O   UNL     1      -7.601  12.639  66.902  1.00  0.00    -0.040 OA 
BRANCH  39  40
HETATM   40  C   UNL     1      -6.870  13.768  67.389  1.00  0.00    -0.018 C  
HETATM   41  H1  UNL     1      -8.607  13.472  70.388  1.00  0.00     0.000 HD 
HETATM   42  O   UNL     1      -7.252  14.973  66.717  1.00  0.00    -0.001 OA 
HETATM   43  H2  UNL     1      -8.709  12.523  69.013  1.00  0.00     0.000 HD 
HETATM   44  N   UNL     1      -8.459  13.442  69.379  1.00  0.00     0.777 NA 
HETATM   45  C   UNL     1      -7.097  13.815  68.937  1.00  0.00    -0.107 C  
HETATM   46  C   UNL     1      -6.682  16.116  67.255  1.00  0.00    -0.198 C  
HETATM   47  C   UNL     1      -6.620  15.139  69.551  1.00  0.00    -0.163 C  
HETATM   48  C   UNL     1      -6.369  16.221  68.555  1.00  0.00    -0.121 C  
BRANCH  46  49
HETATM   49  C   UNL     1      -6.481  17.257  66.283  1.00  0.00    -0.197 C  
BRANCH  49  50
HETATM   50  N   UNL     1      -6.763  18.572  66.866  1.00  0.00    -0.185 NA 
HETATM   51  H   UNL     1      -6.166  19.294  66.463  1.00  0.00     0.000 HD 
BRANCH  50  52
HETATM   52  C   UNL     1      -8.189  18.922  66.745  1.00  0.00    -0.279 C  
BRANCH  52  53
HETATM   53  C   UNL     1      -8.842  19.037  68.125  1.00  0.00    -0.316 C  
HETATM   54  O   UNL     1     -10.219  18.676  68.061  1.00  0.00    -0.352 OA 
HETATM   55  H   UNL     1     -10.624  18.748  68.917  1.00  0.00     0.000 HD 
ENDBRANCH  52  53
ENDBRANCH  50  52
ENDBRANCH  49  50
ENDBRANCH  46  49
ENDBRANCH  39  40
ENDBRANCH  26  39
ENDBRANCH  15  16
ENDBRANCH   6  15
ENDBRANCH   2   4
TORSDOF 13
ENDMDL
MODEL      137
REMARK 921   NORMALIZED FREE ENERGY PREDICTED BY IDOCK:   -2.65 KCAL/MOL
REMARK 922        TOTAL FREE ENERGY PREDICTED BY IDOCK:   -8.12 KCAL/MOL
REMARK 923 INTER-LIGAND FREE ENERGY PREDICTED BY IDOCK:   -5.76 KCAL/MOL
REMARK 924 INTRA-LIGAND FREE ENERGY PREDICTED BY IDOCK:   -2.36 KCAL/MOL
REMARK 927      BINDING AFFINITY PREDICTED BY RF-SCORE:    0.00 PKD
ROOT
HETATM    1  C   UNL     1     -10.852  13.452  68.658  1.00  0.00    -0.263 C  
HETATM    2  N   UNL     1      -9.978  13.538  67.491  1.00  0.00    -0.227 NA 
HETATM    3  H   UNL     1      -9.038  13.810  67.778  1.00  0.00     0.000 HD 
ENDROOT
BRANCH   2   4
HETATM    4  C   UNL     1      -9.917  12.311  66.641  1.00  0.00    -0.215 C  
HETATM    5  C   UNL     1      -8.469  11.789  66.457  1.00  0.00    -0.125 C  
HETATM    6  C   UNL     1      -8.496  10.432  65.718  1.00  0.00    -0.166 C  
HETATM    7  O   UNL     1      -7.795  11.684  67.713  1.00  0.00    -0.116 OA 
HETATM    8  H   UNL     1      -6.908  11.364  67.600  1.00  0.00     0.000 HD 
HETATM    9  O   UNL     1     -10.120  13.385  64.430  1.00  0.00    -0.613 OA 
HETATM   10  O   UNL     1      -9.087  10.619  64.431  1.00  0.00    -0.196 OA 
HETATM   11  H   UNL     1     -10.568  13.404  63.593  1.00  0.00     0.000 HD 
HETATM   12  C   UNL     1     -10.471  11.001  64.519  1.00  0.00    -0.342 C  
HETATM   13  C   UNL     1     -12.156  12.612  65.418  1.00  0.00    -0.516 C  
HETATM   14  C   UNL     1     -10.655  12.343  65.261  1.00  0.00    -0.290 C  
BRANCH   6  15
HETATM   15  O   UNL     1      -9.210   9.455  66.479  1.00  0.00    -0.145 OA 
BRANCH  15  16
HETATM   16  C   UNL     1      -9.080   8.091  66.042  1.00  0.00    -0.142 C  
HETATM   17  H1  UNL     1      -6.276   5.238  68.013  1.00  0.00     0.000 HD 
HETATM   18  C   UNL     1      -7.787   7.801  65.247  1.00  0.00    -0.117 C  
HETATM   19  C   UNL     1      -9.141   7.207  67.318  1.00  0.00    -0.123 C  
HETATM   20  H2  UNL     1      -5.395   5.686  66.647  1.00  0.00     0.000 HD 
HETATM   21  C   UNL     1      -6.568   7.209  67.438  1.00  0.00    -0.059 C  
HETATM   22  C   UNL     1      -6.562   8.046  66.145  1.00  0.00    -0.047 C  
HETATM   23  O   UNL     1      -9.298   5.819  66.949  1.00  0.00    -0.121 OA 
HETATM   24  H   UNL     1      -9.335   5.278  67.730  1.00  0.00     0.000 HD 
HETATM   25  N   UNL     1      -6.272   5.792  67.158  1.00  0.00    -0.033 NA 
HETATM   26  C   UNL     1      -7.896   7.408  68.230  1.00  0.00    -0.122 C  
BRANCH  18  27
HETATM   27  N   UNL     1      -7.804   6.460  64.660  1.00  0.00    -0.107 N  
HETATM   28  H   UNL     1      -7.599   5.663  65.263  1.00  0.00     0.000 HD 
HETATM   29  C   UNL     1      -8.084   6.223  63.333  1.00  0.00    -0.048 C  
HETATM   30  O   UNL     1      -8.371   7.100  62.526  1.00  0.00    -0.090 OA 
BRANCH  29  31
HETATM   31  C   UNL     1      -8.039   4.739  62.935  1.00  0.00    -0.085 C  
HETATM   32  H   UNL     1      -6.670   3.333  62.725  1.00  0.00     0.000 HD 
HETATM   33  O   UNL     1      -6.697   4.251  62.971  1.00  0.00    -0.033 OA 
BRANCH  31  34
HETATM   34  C   UNL     1      -8.891   3.892  63.880  1.00  0.00    -0.112 C  
BRANCH  34  35
HETATM   35  C   UNL     1     -10.327   3.746  63.375  1.00  0.00    -0.218 C  
HETATM   36  H1  UNL     1     -12.230   4.079  64.061  1.00  0.00     0.000 HD 
HETATM   37  H2  UNL     1     -11.078   5.124  64.721  1.00  0.00     0.000 HD 
HETATM   38  N   UNL     1     -11.272   4.177  64.398  1.00  0.00    -0.200 NA 
ENDBRANCH  34  35
ENDBRANCH  31  34
ENDBRANCH  29  31
ENDBRANCH  18  27
BRANCH  26  39
HETATM   39  O   UNL     1      -7.794   8.709  68.805  1.00  0.00    -0.102 OA 
BRANCH  39  40
HETATM   40  C   UNL     1      -7.873   8.834  70.228  1.00  0.00    -0.095 C  
HETATM   41  H1  UNL     1      -4.553   9.869  70.222  1.00  0.00     0.000 HD 
HETATM   42  O   UNL     1      -7.988   7.556  70.863  1.00  0.00    -0.094 OA 
HETATM   43  H2  UNL     1      -5.529   9.454  68.927  1.00  0.00     0.000 HD 
HETATM   44  N   UNL     1      -5.374   9.339  69.929  1.00  0.00    -0.032 NA 
HETATM   45  C   UNL     1      -6.613   9.646  70.677  1.00  0.00    -0.114 C  
HETATM   46  C   UNL     1      -7.917   7.612  72.245  1.00  0.00    -0.106 C  
HETATM   47  C   UNL     1      -6.409   9.600  72.198  1.00  0.00     0.456 C  
HETATM   48  C   UNL     1      -7.207   8.548  72.892  1.00  0.00    -0.053 C  
BRANCH  46  49
HETATM   49  C   UNL     1      -8.659   6.515  72.976  1.00  0.00    -0.118 C  
BRANCH  49  50
HETATM   50  N   UNL     1      -9.934   6.158  72.348  1.00  0.00    -0.169 NA 
HETATM   51  H   UNL     1     -10.186   6.820  71.614  1.00  0.00     0.000 HD 
BRANCH  50  52
HETATM   52  C   UNL     1      -9.918   4.774  71.844  1.00  0.00    -0.190 C  
BRANCH  52  53
HETATM   53  C   UNL     1      -9.304   4.710  70.444  1.00  0.00    -0.148 C  
HETATM   54  O   UNL     1     -10.323   4.619  69.452  1.00  0.00    -0.127 OA 
HETATM   55  H   UNL     1      -9.942   4.579  68.582  1.00  0.00     0.000 HD 
ENDBRANCH  52  53
ENDBRANCH  50  52
ENDBRANCH  49  50
ENDBRANCH  46  49
ENDBRANCH  39  40
ENDBRANCH  26  39
ENDBRANCH  15  16
ENDBRANCH   6  15
ENDBRANCH   2   4
TORSDOF 13
ENDMDL
MODEL      138
REMARK 921   NORMALIZED FREE ENERGY PREDICTED BY IDOCK:   -2.63 KCAL/MOL
REMARK 922        TOTAL FREE ENERGY PREDICTED BY IDOCK:   -8.10 KCAL/MOL
REMARK 923 INTER-LIGAND FREE ENERGY PREDICTED BY IDOCK:   -7.27 KCAL/MOL
REMARK 924 INTRA-LIGAND FREE ENERGY PREDICTED BY IDOCK:   -0.82 KCAL/MOL
REMARK 927      BINDING AFFINITY PREDICTED BY RF-SCORE:    0.00 PKD
ROOT
HETATM    1  C   UNL     1     -11.914  13.212  70.875  1.00  0.00     0.045 C  
HETATM    2  N   UNL     1     -12.466  11.975  70.329  1.00  0.00    -0.156 NA 
HETATM    3  H   UNL     1     -13.393  12.148  69.941  1.00  0.00     0.000 HD 
ENDROOT
BRANCH   2   4
HETATM    4  C   UNL     1     -11.612  11.280  69.319  1.00  0.00    -0.322 C  
HETATM    5  C   UNL     1     -10.480  10.447  69.972  1.00  0.00    -0.182 C  
HETATM    6  C   UNL     1      -9.750   9.623  68.888  1.00  0.00    -0.162 C  
HETATM    7  O   UNL     1     -10.991   9.606  71.009  1.00  0.00    -0.315 OA 
HETATM    8  H   UNL     1     -10.297   9.096  71.409  1.00  0.00     0.000 HD 
HETATM    9  O   UNL     1     -10.211  13.192  68.641  1.00  0.00    -0.307 OA 
HETATM   10  O   UNL     1      -9.175  10.519  67.936  1.00  0.00    -0.138 OA 
HETATM   11  H   UNL     1      -9.863  13.710  67.925  1.00  0.00     0.000 HD 
HETATM   12  C   UNL     1     -10.174  11.254  67.208  1.00  0.00    -0.194 C  
HETATM   13  C   UNL     1     -12.150  12.780  67.304  1.00  0.00    -0.228 C  
HETATM   14  C   UNL     1     -11.039  12.133  68.138  1.00  0.00    -0.248 C  
BRANCH   6  15
HETATM   15  O   UNL     1     -10.648   8.705  68.258  1.00  0.00    -0.202 OA 
BRANCH  15  16
HETATM   16  C   UNL     1     -10.131   7.989  67.124  1.00  0.00    -0.263 C  
HETATM   17  H1  UNL     1      -8.381   3.906  67.509  1.00  0.00     0.000 HD 
HETATM   18  C   UNL     1      -8.588   7.937  67.056  1.00  0.00    -0.128 C  
HETATM   19  C   UNL     1     -10.718   6.553  67.199  1.00  0.00    -0.368 C  
HETATM   20  H2  UNL     1      -6.993   4.862  67.448  1.00  0.00     0.000 HD 
HETATM   21  C   UNL     1      -8.598   5.754  68.424  1.00  0.00    -0.112 C  
HETATM   22  C   UNL     1      -8.042   7.184  68.281  1.00  0.00    -0.124 C  
HETATM   23  O   UNL     1     -10.476   5.855  65.957  1.00  0.00    -0.442 OA 
HETATM   24  H   UNL     1     -10.835   4.976  66.003  1.00  0.00     0.000 HD 
HETATM   25  N   UNL     1      -8.013   4.851  67.415  1.00  0.00    -0.095 NA 
HETATM   26  C   UNL     1     -10.156   5.753  68.410  1.00  0.00    -0.170 C  
BRANCH  18  27
HETATM   27  N   UNL     1      -8.122   7.376  65.787  1.00  0.00    -0.121 N  
HETATM   28  H   UNL     1      -7.668   6.462  65.798  1.00  0.00     0.000 HD 
HETATM   29  C   UNL     1      -8.267   8.021  64.581  1.00  0.00    -0.106 C  
HETATM   30  O   UNL     1      -8.821   9.107  64.446  1.00  0.00    -0.191 OA 
BRANCH  29  31
HETATM   31  C   UNL     1      -7.699   7.248  63.380  1.00  0.00    -0.124 C  
HETATM   32  H   UNL     1      -6.140   7.378  62.176  1.00  0.00     0.000 HD 
HETATM   33  O   UNL     1      -6.492   7.857  62.918  1.00  0.00    -0.077 OA 
BRANCH  31  34
HETATM   34  C   UNL     1      -7.400   5.797  63.754  1.00  0.00    -0.060 C  
BRANCH  34  35
HETATM   35  C   UNL     1      -8.494   4.847  63.266  1.00  0.00    -0.117 C  
HETATM   36  H1  UNL     1      -9.627   3.309  64.011  1.00  0.00     0.000 HD 
HETATM   37  H2  UNL     1      -9.180   4.449  65.175  1.00  0.00     0.000 HD 
HETATM   38  N   UNL     1      -8.897   3.943  64.337  1.00  0.00    -0.119 NA 
ENDBRANCH  34  35
ENDBRANCH  31  34
ENDBRANCH  29  31
ENDBRANCH  18  27
BRANCH  26  39
HETATM   39  O   UNL     1     -10.538   6.271  69.683  1.00  0.00    -0.211 OA 
BRANCH  39  40
HETATM   40  C   UNL     1     -10.377   5.436  70.834  1.00  0.00    -0.242 C  
HETATM   41  H1  UNL     1     -12.934   7.228  72.366  1.00  0.00     0.000 HD 
HETATM   42  O   UNL     1      -9.135   5.689  71.498  1.00  0.00    -0.139 OA 
HETATM   43  H2  UNL     1     -12.296   7.409  70.830  1.00  0.00     0.000 HD 
HETATM   44  N   UNL     1     -12.117   7.072  71.776  1.00  0.00    -0.319 NA 
HETATM   45  C   UNL     1     -11.632   5.675  71.740  1.00  0.00     0.037 C  
HETATM   46  C   UNL     1      -8.998   5.014  72.701  1.00  0.00    -0.125 C  
HETATM   47  C   UNL     1     -11.454   5.076  73.142  1.00  0.00    -0.362 C  
HETATM   48  C   UNL     1     -10.048   4.707  73.477  1.00  0.00    -0.195 C  
BRANCH  46  49
HETATM   49  C   UNL     1      -7.577   4.690  73.102  1.00  0.00    -0.087 C  
BRANCH  49  50
HETATM   50  N   UNL     1      -6.721   5.874  73.218  1.00  0.00    -0.073 NA 
HETATM   51  H   UNL     1      -6.692   6.400  72.344  1.00  0.00     0.000 HD 
BRANCH  50  52
HETATM   52  C   UNL     1      -7.130   6.727  74.347  1.00  0.00    -0.090 C  
BRANCH  52  53
HETATM   53  C   UNL     1      -7.325   8.176  73.893  1.00  0.00    -0.162 C  
HETATM   54  O   UNL     1      -6.299   9.011  74.424  1.00  0.00    -0.277 OA 
HETATM   55  H   UNL     1      -6.421   9.911  74.142  1.00  0.00     0.000 HD 
ENDBRANCH  52  53
ENDBRANCH  50  52
ENDBRANCH  49  50
ENDBRANCH  46  49
ENDBRANCH  39  40
ENDBRANCH  26  39
ENDBRANCH  15  16
ENDBRANCH   6  15
ENDBRANCH   2   4
TORSDOF 13
ENDMDL
MODEL      139
REMARK 921   NORMALIZED FREE ENERGY PREDICTED BY IDOCK:   -2.55 KCAL/MOL
REMARK 922        TOTAL FREE ENERGY PREDICTED BY IDOCK:   -7.95 KCAL/MOL
REMARK 923 INTER-LIGAND FREE ENERGY PREDICTED BY IDOCK:   -5.87 KCAL/MOL
REMARK 924 INTRA-LIGAND FREE ENERGY PREDICTED BY IDOCK:   -2.08 KCAL/MOL
REMARK 927      BINDING AFFINITY PREDICTED BY RF-SCORE:    0.00 PKD
ROOT
HETATM    1  C   UNL     1     -10.554  16.820  67.888  1.00  0.00    -0.350 C  
HETATM    2  N   UNL     1      -9.856  15.937  66.959  1.00  0.00    -0.228 NA 
HETATM    3  H   UNL     1      -9.629  16.442  66.102  1.00  0.00     0.000 HD 
ENDROOT
BRANCH   2   4
HETATM    4  C   UNL     1      -8.633  15.271  67.499  1.00  0.00    -0.177 C  
HETATM    5  C   UNL     1      -8.933  14.398  68.743  1.00  0.00    -0.131 C  
HETATM    6  C   UNL     1      -7.666  13.608  69.141  1.00  0.00     0.182 C  
HETATM    7  O   UNL     1     -10.038  13.523  68.505  1.00  0.00    -0.234 OA 
HETATM    8  H   UNL     1     -10.222  12.988  69.268  1.00  0.00     0.000 HD 
HETATM    9  O   UNL     1      -7.675  17.190  68.716  1.00  0.00    -0.250 OA 
HETATM   10  O   UNL     1      -6.628  14.534  69.466  1.00  0.00    -0.124 OA 
HETATM   11  H   UNL     1      -6.911  17.731  68.875  1.00  0.00     0.000 HD 
HETATM   12  C   UNL     1      -6.217  15.310  68.328  1.00  0.00    -0.120 C  
HETATM   13  C   UNL     1      -6.886  16.858  66.484  1.00  0.00    -0.249 C  
HETATM   14  C   UNL     1      -7.373  16.163  67.760  1.00  0.00    -0.135 C  
BRANCH   6  15
HETATM   15  O   UNL     1      -7.265  12.728  68.088  1.00  0.00    -0.093 OA 
BRANCH  15  16
HETATM   16  C   UNL     1      -6.774  11.438  68.491  1.00  0.00    -0.069 C  
HETATM   17  H1  UNL     1      -7.812   7.718  66.261  1.00  0.00     0.000 HD 
HETATM   18  C   UNL     1      -7.830  10.544  69.179  1.00  0.00    -0.138 C  
HETATM   19  C   UNL     1      -6.234  10.748  67.208  1.00  0.00    -0.061 C  
HETATM   20  H2  UNL     1      -8.881   7.640  67.563  1.00  0.00     0.000 HD 
HETATM   21  C   UNL     1      -8.501   9.570  66.890  1.00  0.00    -0.127 C  
HETATM   22  C   UNL     1      -8.973  10.242  68.194  1.00  0.00    -0.130 C  
HETATM   23  O   UNL     1      -5.474   9.572  67.564  1.00  0.00    -0.037 OA 
HETATM   24  H   UNL     1      -5.143   9.149  66.779  1.00  0.00     0.000 HD 
HETATM   25  N   UNL     1      -8.124   8.163  67.123  1.00  0.00    -0.115 NA 
HETATM   26  C   UNL     1      -7.372  10.398  66.207  1.00  0.00    -0.128 C  
BRANCH  18  27
HETATM   27  N   UNL     1      -7.229   9.335  69.742  1.00  0.00    -0.060 N  
HETATM   28  H   UNL     1      -6.583   8.799  69.163  1.00  0.00     0.000 HD 
HETATM   29  C   UNL     1      -7.494   8.886  71.016  1.00  0.00    -0.110 C  
HETATM   30  O   UNL     1      -8.230   9.465  71.807  1.00  0.00    -0.200 OA 
BRANCH  29  31
HETATM   31  C   UNL     1      -6.756   7.592  71.394  1.00  0.00    -0.049 C  
HETATM   32  H   UNL     1      -6.054   6.747  73.034  1.00  0.00     0.000 HD 
HETATM   33  O   UNL     1      -6.510   7.548  72.801  1.00  0.00    -0.058 OA 
BRANCH  31  34
HETATM   34  C   UNL     1      -7.574   6.361  71.004  1.00  0.00    -0.090 C  
BRANCH  34  35
HETATM   35  C   UNL     1      -8.898   6.294  71.765  1.00  0.00    -0.137 C  
HETATM   36  H1  UNL     1     -10.903   6.432  71.359  1.00  0.00     0.000 HD 
HETATM   37  H2  UNL     1      -9.992   5.812  70.079  1.00  0.00     0.000 HD 
HETATM   38  N   UNL     1     -10.020   6.477  70.852  1.00  0.00    -0.184 NA 
ENDBRANCH  34  35
ENDBRANCH  31  34
ENDBRANCH  29  31
ENDBRANCH  18  27
BRANCH  26  39
HETATM   39  O   UNL     1      -8.031  11.533  65.648  1.00  0.00     0.216 OA 
BRANCH  39  40
HETATM   40  C   UNL     1      -9.417  11.419  65.312  1.00  0.00    -0.209 C  
HETATM   41  H1  UNL     1      -8.491  11.276  61.963  1.00  0.00     0.000 HD 
HETATM   42  O   UNL     1     -10.125  12.635  65.575  1.00  0.00    -0.273 OA 
HETATM   43  H2  UNL     1      -7.520  11.400  63.320  1.00  0.00     0.000 HD 
HETATM   44  N   UNL     1      -8.450  11.570  62.939  1.00  0.00     0.075 NA 
HETATM   45  C   UNL     1      -9.480  10.968  63.815  1.00  0.00    -0.258 C  
HETATM   46  C   UNL     1     -11.436  12.625  65.128  1.00  0.00    -0.326 C  
HETATM   47  C   UNL     1     -10.895  11.094  63.233  1.00  0.00    -0.115 C  
HETATM   48  C   UNL     1     -11.826  11.917  64.057  1.00  0.00    -0.458 C  
BRANCH  46  49
HETATM   49  C   UNL     1     -12.390  13.507  65.901  1.00  0.00    -0.456 C  
BRANCH  49  50
HETATM   50  N   UNL     1     -13.281  14.292  65.042  1.00  0.00    -0.472 NA 
HETATM   51  H   UNL     1     -14.258  14.169  65.306  1.00  0.00     0.000 HD 
BRANCH  50  52
HETATM   52  C   UNL     1     -12.902  15.716  65.029  1.00  0.00     1.188 C  
BRANCH  52  53
HETATM   53  C   UNL     1     -11.590  15.924  64.268  1.00  0.00    -0.178 C  
HETATM   54  O   UNL     1     -10.957  17.133  64.679  1.00  0.00    -1.005 OA 
HETATM   55  H   UNL     1     -10.143  17.262  64.206  1.00  0.00     0.000 HD 
ENDBRANCH  52  53
ENDBRANCH  50  52
ENDBRANCH  49  50
ENDBRANCH  46  49
ENDBRANCH  39  40
ENDBRANCH  26  39
ENDBRANCH  15  16
ENDBRANCH   6  15
ENDBRANCH   2   4
TORSDOF 13
ENDMDL
MODEL      140
REMARK 921   NORMALIZED FREE ENERGY PREDICTED BY IDOCK:   -2.54 KCAL/MOL
REMARK 922        TOTAL FREE ENERGY PREDICTED BY IDOCK:   -7.94 KCAL/MOL
REMARK 923 INTER-LIGAND FREE ENERGY PREDICTED BY IDOCK:   -5.58 KCAL/MOL
REMARK 924 INTRA-LIGAND FREE ENERGY PREDICTED BY IDOCK:   -2.35 KCAL/MOL
REMARK 927      BINDING AFFINITY PREDICTED BY RF-SCORE:    0.00 PKD
ROOT
HETATM    1  C   UNL     1      -9.452   5.117  69.099  1.00  0.00    -0.134 C  
HETATM    2  N   UNL     1      -9.953   5.278  67.738  1.00  0.00    -0.156 NA 
HETATM    3  H   UNL     1     -10.937   5.550  67.759  1.00  0.00     0.000 HD 
ENDROOT
BRANCH   2   4
HETATM    4  C   UNL     1      -9.181   6.220  66.873  1.00  0.00    -0.130 C  
HETATM    5  C   UNL     1      -9.966   7.519  66.563  1.00  0.00    -0.138 C  
HETATM    6  C   UNL     1      -9.050   8.514  65.816  1.00  0.00    -0.167 C  
HETATM    7  O   UNL     1     -10.498   8.098  67.757  1.00  0.00    -0.248 OA 
HETATM    8  H   UNL     1     -10.980   8.895  67.567  1.00  0.00     0.000 HD 
HETATM    9  O   UNL     1      -9.566   5.123  64.698  1.00  0.00    -0.354 OA 
HETATM   10  O   UNL     1      -8.632   7.921  64.585  1.00  0.00    -0.021 OA 
HETATM   11  H   UNL     1      -9.181   4.777  63.902  1.00  0.00     0.000 HD 
HETATM   12  C   UNL     1      -7.803   6.765  64.793  1.00  0.00    -0.119 C  
HETATM   13  C   UNL     1      -7.559   4.512  65.847  1.00  0.00    -0.086 C  
HETATM   14  C   UNL     1      -8.546   5.650  65.561  1.00  0.00    -0.151 C  
BRANCH   6  15
HETATM   15  O   UNL     1      -7.927   8.875  66.624  1.00  0.00    -0.102 OA 
BRANCH  15  16
HETATM   16  C   UNL     1      -7.483  10.238  66.521  1.00  0.00    -0.113 C  
HETATM   17  H1  UNL     1      -6.339  12.625  70.110  1.00  0.00     0.000 HD 
HETATM   18  C   UNL     1      -8.532  11.283  66.965  1.00  0.00    -0.150 C  
HETATM   19  C   UNL     1      -6.201  10.356  67.390  1.00  0.00    -0.057 C  
HETATM   20  H2  UNL     1      -7.902  13.187  69.816  1.00  0.00     0.000 HD 
HETATM   21  C   UNL     1      -7.625  11.175  69.374  1.00  0.00    -0.008 C  
HETATM   22  C   UNL     1      -8.859  11.086  68.456  1.00  0.00    -0.159 C  
HETATM   23  O   UNL     1      -5.536  11.610  67.123  1.00  0.00    -0.079 OA 
HETATM   24  H   UNL     1      -4.752  11.682  67.655  1.00  0.00     0.000 HD 
HETATM   25  N   UNL     1      -7.155  12.567  69.502  1.00  0.00     0.165 NA 
HETATM   26  C   UNL     1      -6.506  10.195  68.908  1.00  0.00    -0.048 C  
BRANCH  18  27
HETATM   27  N   UNL     1      -8.102  12.646  66.651  1.00  0.00    -0.404 N  
HETATM   28  H   UNL     1      -7.162  12.786  66.281  1.00  0.00     0.000 HD 
HETATM   29  C   UNL     1      -8.906  13.749  66.832  1.00  0.00    -0.188 C  
HETATM   30  O   UNL     1     -10.060  13.696  67.242  1.00  0.00    -0.235 OA 
BRANCH  29  31
HETATM   31  C   UNL     1      -8.245  15.081  66.441  1.00  0.00     0.317 C  
HETATM   32  H   UNL     1      -8.813  16.943  66.120  1.00  0.00     0.000 HD 
HETATM   33  O   UNL     1      -9.222  16.120  66.361  1.00  0.00    -0.248 OA 
BRANCH  31  34
HETATM   34  C   UNL     1      -7.185  15.487  67.464  1.00  0.00    -0.222 C  
BRANCH  34  35
HETATM   35  C   UNL     1      -7.803  16.172  68.683  1.00  0.00    -0.188 C  
HETATM   36  H1  UNL     1      -7.625  17.947  69.692  1.00  0.00     0.000 HD 
HETATM   37  H2  UNL     1      -7.286  18.068  68.042  1.00  0.00     0.000 HD 
HETATM   38  N   UNL     1      -7.213  17.490  68.879  1.00  0.00    -0.256 NA 
ENDBRANCH  34  35
ENDBRANCH  31  34
ENDBRANCH  29  31
ENDBRANCH  18  27
BRANCH  26  39
HETATM   39  O   UNL     1      -6.969   8.899  69.280  1.00  0.00    -0.056 OA 
BRANCH  39  40
HETATM   40  C   UNL     1      -7.620   8.744  70.545  1.00  0.00    -0.085 C  
HETATM   41  H1  UNL     1      -5.147   6.463  71.425  1.00  0.00     0.000 HD 
HETATM   42  O   UNL     1      -8.879   8.077  70.412  1.00  0.00    -0.138 OA 
HETATM   43  H2  UNL     1      -5.317   7.337  70.008  1.00  0.00     0.000 HD 
HETATM   44  N   UNL     1      -5.805   6.949  70.816  1.00  0.00    -0.027 NA 
HETATM   45  C   UNL     1      -6.610   7.998  71.480  1.00  0.00    -0.045 C  
HETATM   46  C   UNL     1      -9.478   7.770  71.622  1.00  0.00    -0.144 C  
HETATM   47  C   UNL     1      -7.278   7.500  72.770  1.00  0.00    -0.080 C  
HETATM   48  C   UNL     1      -8.769   7.509  72.731  1.00  0.00    -0.174 C  
BRANCH  46  49
HETATM   49  C   UNL     1     -10.989   7.702  71.598  1.00  0.00    -0.233 C  
BRANCH  49  50
HETATM   50  N   UNL     1     -11.631   9.011  71.744  1.00  0.00    -0.352 NA 
HETATM   51  H   UNL     1     -11.106   9.616  72.375  1.00  0.00     0.000 HD 
BRANCH  50  52
HETATM   52  C   UNL     1     -11.849   9.654  70.436  1.00  0.00    -0.155 C  
BRANCH  52  53
HETATM   53  C   UNL     1     -11.314  11.088  70.438  1.00  0.00    -0.132 C  
HETATM   54  O   UNL     1     -12.056  11.903  69.534  1.00  0.00    -0.282 OA 
HETATM   55  H   UNL     1     -11.724  12.793  69.535  1.00  0.00     0.000 HD 
ENDBRANCH  52  53
ENDBRANCH  50  52
ENDBRANCH  49  50
ENDBRANCH  46  49
ENDBRANCH  39  40
ENDBRANCH  26  39
ENDBRANCH  15  16
ENDBRANCH   6  15
ENDBRANCH   2   4
TORSDOF 13
ENDMDL
MODEL      141
REMARK 921   NORMALIZED FREE ENERGY PREDICTED BY IDOCK:   -2.46 KCAL/MOL
REMARK 922        TOTAL FREE ENERGY PREDICTED BY IDOCK:   -7.78 KCAL/MOL
REMARK 923 INTER-LIGAND FREE ENERGY PREDICTED BY IDOCK:   -5.96 KCAL/MOL
REMARK 924 INTRA-LIGAND FREE ENERGY PREDICTED BY IDOCK:   -1.82 KCAL/MOL
REMARK 927      BINDING AFFINITY PREDICTED BY RF-SCORE:    0.00 PKD
ROOT
HETATM    1  C   UNL     1      -8.266   3.467  72.648  1.00  0.00    -0.081 C  
HETATM    2  N   UNL     1      -7.424   4.540  73.168  1.00  0.00    -0.083 NA 
HETATM    3  H   UNL     1      -6.440   4.281  73.090  1.00  0.00     0.000 HD 
ENDROOT
BRANCH   2   4
HETATM    4  C   UNL     1      -7.647   5.887  72.560  1.00  0.00    -0.100 C  
HETATM    5  C   UNL     1      -6.494   6.309  71.614  1.00  0.00    -0.053 C  
HETATM    6  C   UNL     1      -6.869   7.623  70.892  1.00  0.00    -0.042 C  
HETATM    7  O   UNL     1      -6.188   5.271  70.680  1.00  0.00    -0.021 OA 
HETATM    8  H   UNL     1      -5.481   5.530  70.100  1.00  0.00     0.000 HD 
HETATM    9  O   UNL     1      -6.966   7.275  74.482  1.00  0.00    -0.098 OA 
HETATM   10  O   UNL     1      -7.064   8.647  71.869  1.00  0.00    -0.095 OA 
HETATM   11  H   UNL     1      -7.188   7.991  75.064  1.00  0.00     0.000 HD 
HETATM   12  C   UNL     1      -8.190   8.377  72.721  1.00  0.00    -0.121 C  
HETATM   13  C   UNL     1      -9.302   6.794  74.303  1.00  0.00    -0.261 C  
HETATM   14  C   UNL     1      -8.013   7.068  73.520  1.00  0.00    -0.106 C  
BRANCH   6  15
HETATM   15  O   UNL     1      -8.039   7.444  70.089  1.00  0.00    -0.125 OA 
BRANCH  15  16
HETATM   16  C   UNL     1      -7.845   6.791  68.823  1.00  0.00    -0.111 C  
HETATM   17  H1  UNL     1      -9.167   8.646  64.988  1.00  0.00     0.000 HD 
HETATM   18  C   UNL     1      -9.132   6.184  68.219  1.00  0.00    -0.112 C  
HETATM   19  C   UNL     1      -7.247   7.855  67.861  1.00  0.00    -0.091 C  
HETATM   20  H2  UNL     1     -10.416   7.551  65.282  1.00  0.00     0.000 HD 
HETATM   21  C   UNL     1      -9.611   8.402  66.999  1.00  0.00    -0.190 C  
HETATM   22  C   UNL     1     -10.149   7.304  67.936  1.00  0.00    -0.217 C  
HETATM   23  O   UNL     1      -6.765   7.217  66.658  1.00  0.00    -0.056 OA 
HETATM   24  H   UNL     1      -6.399   7.867  66.069  1.00  0.00     0.000 HD 
HETATM   25  N   UNL     1      -9.523   7.919  65.608  1.00  0.00     0.177 NA 
HETATM   26  C   UNL     1      -8.265   8.983  67.528  1.00  0.00    -0.109 C  
BRANCH  18  27
HETATM   27  N   UNL     1      -8.842   5.366  67.041  1.00  0.00    -0.111 N  
HETATM   28  H   UNL     1      -8.559   5.837  66.181  1.00  0.00     0.000 HD 
HETATM   29  C   UNL     1      -8.931   3.993  67.038  1.00  0.00    -0.132 C  
HETATM   30  O   UNL     1      -9.232   3.323  68.019  1.00  0.00    -0.158 OA 
BRANCH  29  31
HETATM   31  C   UNL     1      -8.587   3.342  65.688  1.00  0.00    -0.116 C  
HETATM   32  H   UNL     1      -9.539   2.835  64.036  1.00  0.00     0.000 HD 
HETATM   33  O   UNL     1      -9.753   3.238  64.870  1.00  0.00    -0.160 OA 
BRANCH  31  34
HETATM   34  C   UNL     1      -7.536   4.161  64.937  1.00  0.00    -0.077 C  
BRANCH  34  35
HETATM   35  C   UNL     1      -7.921   4.374  63.473  1.00  0.00    -0.086 C  
HETATM   36  H1  UNL     1      -6.985   4.716  61.682  1.00  0.00     0.000 HD 
HETATM   37  H2  UNL     1      -6.061   3.811  62.768  1.00  0.00     0.000 HD 
HETATM   38  N   UNL     1      -6.729   4.574  62.658  1.00  0.00    -0.030 NA 
ENDBRANCH  34  35
ENDBRANCH  31  34
ENDBRANCH  29  31
ENDBRANCH  18  27
BRANCH  26  39
HETATM   39  O   UNL     1      -8.626   9.796  68.643  1.00  0.00    -0.116 OA 
BRANCH  39  40
HETATM   40  C   UNL     1      -9.738  10.686  68.506  1.00  0.00    -0.174 C  
HETATM   41  H1  UNL     1      -7.481  13.331  68.413  1.00  0.00     0.000 HD 
HETATM   42  O   UNL     1     -10.515  10.746  69.706  1.00  0.00    -0.198 OA 
HETATM   43  H2  UNL     1      -7.176  11.690  68.542  1.00  0.00     0.000 HD 
HETATM   44  N   UNL     1      -7.862  12.429  68.698  1.00  0.00    -0.092 NA 
HETATM   45  C   UNL     1      -9.152  12.070  68.068  1.00  0.00    -0.188 C  
HETATM   46  C   UNL     1     -11.514  11.706  69.676  1.00  0.00    -0.288 C  
HETATM   47  C   UNL     1     -10.192  13.196  68.173  1.00  0.00    -0.239 C  
HETATM   48  C   UNL     1     -11.401  12.841  68.971  1.00  0.00    -0.346 C  
BRANCH  46  49
HETATM   49  C   UNL     1     -12.724  11.407  70.533  1.00  0.00    -0.137 C  
BRANCH  49  50
HETATM   50  N   UNL     1     -12.573  11.843  71.923  1.00  0.00    -0.069 NA 
HETATM   51  H   UNL     1     -11.633  12.198  72.103  1.00  0.00     0.000 HD 
BRANCH  50  52
HETATM   52  C   UNL     1     -13.602  12.831  72.294  1.00  0.00    -0.465 C  
BRANCH  52  53
HETATM   53  C   UNL     1     -13.087  14.258  72.087  1.00  0.00    -0.382 C  
HETATM   54  O   UNL     1     -13.965  14.991  71.237  1.00  0.00    -0.499 OA 
HETATM   55  H   UNL     1     -13.646  15.876  71.108  1.00  0.00     0.000 HD 
ENDBRANCH  52  53
ENDBRANCH  50  52
ENDBRANCH  49  50
ENDBRANCH  46  49
ENDBRANCH  39  40
ENDBRANCH  26  39
ENDBRANCH  15  16
ENDBRANCH   6  15
ENDBRANCH   2   4
TORSDOF 13
ENDMDL
MODEL      142
REMARK 921   NORMALIZED FREE ENERGY PREDICTED BY IDOCK:   -2.44 KCAL/MOL
REMARK 922        TOTAL FREE ENERGY PREDICTED BY IDOCK:   -7.76 KCAL/MOL
REMARK 923 INTER-LIGAND FREE ENERGY PREDICTED BY IDOCK:   -8.15 KCAL/MOL
REMARK 924 INTRA-LIGAND FREE ENERGY PREDICTED BY IDOCK:    0.39 KCAL/MOL
REMARK 927      BINDING AFFINITY PREDICTED BY RF-SCORE:    0.00 PKD
ROOT
HETATM    1  C   UNL     1      -9.758  11.535  67.134  1.00  0.00    -0.183 C  
HETATM    2  N   UNL     1      -9.210  11.760  68.468  1.00  0.00    -0.304 NA 
HETATM    3  H   UNL     1      -9.965  11.937  69.131  1.00  0.00     0.000 HD 
ENDROOT
BRANCH   2   4
HETATM    4  C   UNL     1      -8.317  10.682  68.989  1.00  0.00    -0.152 C  
HETATM    5  C   UNL     1      -8.961   9.889  70.154  1.00  0.00    -0.114 C  
HETATM    6  C   UNL     1      -8.061   8.689  70.525  1.00  0.00    -0.113 C  
HETATM    7  O   UNL     1     -10.284   9.464  69.818  1.00  0.00    -0.196 OA 
HETATM    8  H   UNL     1     -10.679   8.977  70.533  1.00  0.00     0.000 HD 
HETATM    9  O   UNL     1      -6.828  12.076  70.376  1.00  0.00    -0.321 OA 
HETATM   10  O   UNL     1      -6.789   9.180  70.949  1.00  0.00    -0.077 OA 
HETATM   11  H   UNL     1      -5.935  12.311  70.597  1.00  0.00     0.000 HD 
HETATM   12  C   UNL     1      -6.079   9.837  69.885  1.00  0.00    -0.045 C  
HETATM   13  C   UNL     1      -6.084  11.633  68.148  1.00  0.00    -0.046 C  
HETATM   14  C   UNL     1      -6.844  11.069  69.353  1.00  0.00    -0.119 C  
BRANCH   6  15
HETATM   15  O   UNL     1      -7.929   7.793  69.419  1.00  0.00    -0.119 OA 
BRANCH  15  16
HETATM   16  C   UNL     1      -8.576   8.192  68.198  1.00  0.00    -0.129 C  
HETATM   17  H1  UNL     1     -10.821   5.292  65.662  1.00  0.00     0.000 HD 
HETATM   18  C   UNL     1      -7.838   7.746  66.915  1.00  0.00    -0.107 C  
HETATM   19  C   UNL     1     -10.007   7.590  68.235  1.00  0.00    -0.173 C  
HETATM   20  H2  UNL     1      -9.354   5.395  64.836  1.00  0.00     0.000 HD 
HETATM   21  C   UNL     1      -9.180   5.547  66.902  1.00  0.00    -0.119 C  
HETATM   22  C   UNL     1      -7.789   6.210  66.853  1.00  0.00    -0.104 C  
HETATM   23  O   UNL     1     -10.814   8.169  67.186  1.00  0.00    -0.464 OA 
HETATM   24  H   UNL     1     -11.689   7.800  67.208  1.00  0.00     0.000 HD 
HETATM   25  N   UNL     1      -9.902   5.730  65.629  1.00  0.00     0.191 NA 
HETATM   26  C   UNL     1      -9.992   6.037  68.139  1.00  0.00    -0.147 C  
BRANCH  18  27
HETATM   27  N   UNL     1      -8.427   8.347  65.718  1.00  0.00    -0.147 N  
HETATM   28  H   UNL     1      -9.377   8.081  65.458  1.00  0.00     0.000 HD 
HETATM   29  C   UNL     1      -7.760   9.253  64.925  1.00  0.00    -0.110 C  
HETATM   30  O   UNL     1      -6.629   9.665  65.156  1.00  0.00    -0.083 OA 
BRANCH  29  31
HETATM   31  C   UNL     1      -8.570   9.748  63.716  1.00  0.00    -0.200 C  
HETATM   32  H   UNL     1      -9.269   8.994  62.031  1.00  0.00     0.000 HD 
HETATM   33  O   UNL     1      -8.769   8.688  62.778  1.00  0.00    -0.145 OA 
BRANCH  31  34
HETATM   34  C   UNL     1      -9.937  10.276  64.151  1.00  0.00    -0.246 C  
BRANCH  34  35
HETATM   35  C   UNL     1     -10.273  11.606  63.475  1.00  0.00    -0.436 C  
HETATM   36  H1  UNL     1     -11.931  12.751  63.097  1.00  0.00     0.000 HD 
HETATM   37  H2  UNL     1     -12.051  11.828  64.507  1.00  0.00     0.000 HD 
HETATM   38  N   UNL     1     -11.707  11.865  63.548  1.00  0.00    -0.467 NA 
ENDBRANCH  34  35
ENDBRANCH  31  34
ENDBRANCH  29  31
ENDBRANCH  18  27
BRANCH  26  39
HETATM   39  O   UNL     1      -9.393   5.385  69.257  1.00  0.00    -0.113 OA 
BRANCH  39  40
HETATM   40  C   UNL     1      -9.900   5.670  70.564  1.00  0.00    -0.191 C  
HETATM   41  H1  UNL     1      -9.694   2.273  71.277  1.00  0.00     0.000 HD 
HETATM   42  O   UNL     1     -11.270   6.081  70.520  1.00  0.00    -0.323 OA 
HETATM   43  H2  UNL     1      -9.275   3.081  69.874  1.00  0.00     0.000 HD 
HETATM   44  N   UNL     1      -9.853   3.108  70.714  1.00  0.00    -0.071 NA 
HETATM   45  C   UNL     1      -9.657   4.389  71.429  1.00  0.00    -0.165 C  
HETATM   46  C   UNL     1     -11.850   6.224  71.770  1.00  0.00    -0.286 C  
HETATM   47  C   UNL     1     -10.415   4.440  72.763  1.00  0.00    -0.253 C  
HETATM   48  C   UNL     1     -11.471   5.491  72.828  1.00  0.00    -0.339 C  
BRANCH  46  49
HETATM   49  C   UNL     1     -12.974   7.233  71.850  1.00  0.00    -0.250 C  
BRANCH  49  50
HETATM   50  N   UNL     1     -12.752   8.417  71.016  1.00  0.00    -0.502 NA 
HETATM   51  H   UNL     1     -12.783   8.185  70.023  1.00  0.00     0.000 HD 
BRANCH  50  52
HETATM   52  C   UNL     1     -13.699   9.496  71.348  1.00  0.00    -0.226 C  
BRANCH  52  53
HETATM   53  C   UNL     1     -12.966  10.700  71.946  1.00  0.00    -0.437 C  
HETATM   54  O   UNL     1     -12.120  11.307  70.973  1.00  0.00    -0.319 OA 
HETATM   55  H   UNL     1     -11.665  12.054  71.345  1.00  0.00     0.000 HD 
ENDBRANCH  52  53
ENDBRANCH  50  52
ENDBRANCH  49  50
ENDBRANCH  46  49
ENDBRANCH  39  40
ENDBRANCH  26  39
ENDBRANCH  15  16
ENDBRANCH   6  15
ENDBRANCH   2   4
TORSDOF 13
ENDMDL
MODEL      143
REMARK 921   NORMALIZED FREE ENERGY PREDICTED BY IDOCK:   -2.39 KCAL/MOL
REMARK 922        TOTAL FREE ENERGY PREDICTED BY IDOCK:   -7.68 KCAL/MOL
REMARK 923 INTER-LIGAND FREE ENERGY PREDICTED BY IDOCK:   -7.68 KCAL/MOL
REMARK 924 INTRA-LIGAND FREE ENERGY PREDICTED BY IDOCK:    0.01 KCAL/MOL
REMARK 927      BINDING AFFINITY PREDICTED BY RF-SCORE:    0.00 PKD
ROOT
HETATM    1  C   UNL     1      -5.676   4.858  64.075  1.00  0.00    -0.017 C  
HETATM    2  N   UNL     1      -6.017   6.214  64.494  1.00  0.00    -0.025 NA 
HETATM    3  H   UNL     1      -6.443   6.722  63.719  1.00  0.00     0.000 HD 
ENDROOT
BRANCH   2   4
HETATM    4  C   UNL     1      -6.882   6.315  65.708  1.00  0.00    -0.053 C  
HETATM    5  C   UNL     1      -6.065   6.557  67.001  1.00  0.00    -0.025 C  
HETATM    6  C   UNL     1      -7.026   6.822  68.182  1.00  0.00    -0.080 C  
HETATM    7  O   UNL     1      -5.139   7.633  66.832  1.00  0.00    -0.022 OA 
HETATM    8  H   UNL     1      -4.637   7.781  67.625  1.00  0.00     0.000 HD 
HETATM    9  O   UNL     1      -7.291   3.910  66.070  1.00  0.00    -0.070 OA 
HETATM   10  O   UNL     1      -7.856   5.675  68.368  1.00  0.00    -0.091 OA 
HETATM   11  H   UNL     1      -7.933   3.224  66.213  1.00  0.00     0.000 HD 
HETATM   12  C   UNL     1      -8.727   5.448  67.247  1.00  0.00    -0.107 C  
HETATM   13  C   UNL     1      -8.935   5.077  64.784  1.00  0.00    -0.095 C  
HETATM   14  C   UNL     1      -7.940   5.185  65.945  1.00  0.00    -0.108 C  
BRANCH   6  15
HETATM   15  O   UNL     1      -7.808   7.995  67.944  1.00  0.00    -0.121 OA 
BRANCH  15  16
HETATM   16  C   UNL     1      -9.208   7.899  68.259  1.00  0.00    -0.137 C  
HETATM   17  H1  UNL     1     -11.776  11.516  68.716  1.00  0.00     0.000 HD 
HETATM   18  C   UNL     1      -9.555   8.266  69.720  1.00  0.00    -0.171 C  
HETATM   19  C   UNL     1      -9.952   8.842  67.273  1.00  0.00    -0.220 C  
HETATM   20  H2  UNL     1     -11.459  11.123  70.325  1.00  0.00     0.000 HD 
HETATM   21  C   UNL     1      -9.885  10.726  69.028  1.00  0.00    -0.194 C  
HETATM   22  C   UNL     1      -9.191   9.738  69.984  1.00  0.00    -0.266 C  
HETATM   23  O   UNL     1     -11.374   8.596  67.334  1.00  0.00    -0.102 OA 
HETATM   24  H   UNL     1     -11.829   9.173  66.731  1.00  0.00     0.000 HD 
HETATM   25  N   UNL     1     -11.317  10.863  69.349  1.00  0.00    -0.254 NA 
HETATM   26  C   UNL     1      -9.629  10.340  67.539  1.00  0.00    -0.156 C  
BRANCH  18  27
HETATM   27  N   UNL     1     -10.951   7.959  70.036  1.00  0.00    -0.328 N  
HETATM   28  H   UNL     1     -11.683   8.512  69.589  1.00  0.00     0.000 HD 
HETATM   29  C   UNL     1     -11.323   6.961  70.907  1.00  0.00    -0.304 C  
HETATM   30  O   UNL     1     -10.532   6.219  71.478  1.00  0.00    -0.212 OA 
BRANCH  29  31
HETATM   31  C   UNL     1     -12.843   6.821  71.093  1.00  0.00    -0.140 C  
HETATM   32  H   UNL     1     -14.080   6.155  72.478  1.00  0.00     0.000 HD 
HETATM   33  O   UNL     1     -13.141   6.241  72.363  1.00  0.00     0.036 OA 
BRANCH  31  34
HETATM   34  C   UNL     1     -13.533   8.182  71.005  1.00  0.00     0.078 C  
BRANCH  34  35
HETATM   35  C   UNL     1     -13.366   8.989  72.293  1.00  0.00    -0.467 C  
HETATM   36  H1  UNL     1     -13.056  10.939  72.845  1.00  0.00     0.000 HD 
HETATM   37  H2  UNL     1     -13.916  10.771  71.401  1.00  0.00     0.000 HD 
HETATM   38  N   UNL     1     -13.168  10.401  71.987  1.00  0.00    -0.451 NA 
ENDBRANCH  34  35
ENDBRANCH  31  34
ENDBRANCH  29  31
ENDBRANCH  18  27
BRANCH  26  39
HETATM   39  O   UNL     1      -8.272  10.702  67.290  1.00  0.00    -0.115 OA 
BRANCH  39  40
HETATM   40  C   UNL     1      -7.979  12.063  66.960  1.00  0.00    -0.150 C  
HETATM   41  H1  UNL     1      -5.498  12.014  69.397  1.00  0.00     0.000 HD 
HETATM   42  O   UNL     1      -9.038  12.941  67.355  1.00  0.00    -0.180 OA 
HETATM   43  H2  UNL     1      -6.526  10.784  68.916  1.00  0.00     0.000 HD 
HETATM   44  N   UNL     1      -6.394  11.795  68.962  1.00  0.00    -0.071 NA 
HETATM   45  C   UNL     1      -6.604  12.400  67.628  1.00  0.00    -0.131 C  
HETATM   46  C   UNL     1      -8.739  14.284  67.194  1.00  0.00    -0.227 C  
HETATM   47  C   UNL     1      -6.307  13.906  67.611  1.00  0.00    -0.140 C  
HETATM   48  C   UNL     1      -7.489  14.760  67.295  1.00  0.00    -0.173 C  
BRANCH  46  49
HETATM   49  C   UNL     1      -9.926  15.186  66.943  1.00  0.00    -0.239 C  
BRANCH  49  50
HETATM   50  N   UNL     1     -11.105  14.470  66.447  1.00  0.00    -0.324 NA 
HETATM   51  H   UNL     1     -11.969  14.933  66.728  1.00  0.00     0.000 HD 
BRANCH  50  52
HETATM   52  C   UNL     1     -11.045  14.279  64.987  1.00  0.00    -0.373 C  
BRANCH  52  53
HETATM   53  C   UNL     1     -12.239  13.456  64.496  1.00  0.00    -0.398 C  
HETATM   54  O   UNL     1     -12.643  13.883  63.197  1.00  0.00    -1.057 OA 
HETATM   55  H   UNL     1     -13.384  13.373  62.893  1.00  0.00     0.000 HD 
ENDBRANCH  52  53
ENDBRANCH  50  52
ENDBRANCH  49  50
ENDBRANCH  46  49
ENDBRANCH  39  40
ENDBRANCH  26  39
ENDBRANCH  15  16
ENDBRANCH   6  15
ENDBRANCH   2   4
TORSDOF 13
ENDMDL
MODEL      144
REMARK 921   NORMALIZED FREE ENERGY PREDICTED BY IDOCK:   -2.39 KCAL/MOL
REMARK 922        TOTAL FREE ENERGY PREDICTED BY IDOCK:   -7.67 KCAL/MOL
REMARK 923 INTER-LIGAND FREE ENERGY PREDICTED BY IDOCK:   -6.68 KCAL/MOL
REMARK 924 INTRA-LIGAND FREE ENERGY PREDICTED BY IDOCK:   -0.99 KCAL/MOL
REMARK 927      BINDING AFFINITY PREDICTED BY RF-SCORE:    0.00 PKD
ROOT
HETATM    1  C   UNL     1     -11.979  15.310  66.525  1.00  0.00     0.295 C  
HETATM    2  N   UNL     1     -11.386  15.447  67.851  1.00  0.00    -0.334 NA 
HETATM    3  H   UNL     1     -11.874  16.170  68.380  1.00  0.00     0.000 HD 
ENDROOT
BRANCH   2   4
HETATM    4  C   UNL     1     -11.310  14.190  68.656  1.00  0.00    -0.277 C  
HETATM    5  C   UNL     1     -11.613  12.926  67.812  1.00  0.00    -0.343 C  
HETATM    6  C   UNL     1     -11.350  11.661  68.659  1.00  0.00    -0.267 C  
HETATM    7  O   UNL     1     -10.845  12.915  66.607  1.00  0.00    -0.263 OA 
HETATM    8  H   UNL     1     -11.031  12.140  66.089  1.00  0.00     0.000 HD 
HETATM    9  O   UNL     1     -13.508  14.331  69.766  1.00  0.00     0.241 OA 
HETATM   10  O   UNL     1     -12.215  11.677  69.795  1.00  0.00    -0.275 OA 
HETATM   11  H   UNL     1     -13.991  14.300  70.583  1.00  0.00     0.000 HD 
HETATM   12  C   UNL     1     -11.922  12.766  70.686  1.00  0.00    -0.109 C  
HETATM   13  C   UNL     1     -11.655  15.234  70.978  1.00  0.00    -0.399 C  
HETATM   14  C   UNL     1     -12.105  14.139  70.004  1.00  0.00    -0.346 C  
BRANCH   6  15
HETATM   15  O   UNL     1      -9.977  11.593  69.055  1.00  0.00    -0.120 OA 
BRANCH  15  16
HETATM   16  C   UNL     1      -9.271  10.395  68.690  1.00  0.00    -0.164 C  
HETATM   17  H1  UNL     1      -5.132  10.511  67.031  1.00  0.00     0.000 HD 
HETATM   18  C   UNL     1      -9.176  10.154  67.166  1.00  0.00    -0.138 C  
HETATM   19  C   UNL     1      -7.850  10.511  69.307  1.00  0.00    -0.144 C  
HETATM   20  H2  UNL     1      -6.051  10.311  65.631  1.00  0.00     0.000 HD 
HETATM   21  C   UNL     1      -6.967  11.476  67.089  1.00  0.00    -0.138 C  
HETATM   22  C   UNL     1      -8.383  11.297  66.509  1.00  0.00    -0.168 C  
HETATM   23  O   UNL     1      -7.171   9.238  69.227  1.00  0.00    -0.063 OA 
HETATM   24  H   UNL     1      -6.302   9.309  69.605  1.00  0.00     0.000 HD 
HETATM   25  N   UNL     1      -6.069  10.392  66.648  1.00  0.00    -0.063 NA 
HETATM   26  C   UNL     1      -7.010  11.637  68.639  1.00  0.00    -0.088 C  
BRANCH  18  27
HETATM   27  N   UNL     1      -8.628   8.831  66.862  1.00  0.00    -0.114 N  
HETATM   28  H   UNL     1      -8.306   8.249  67.636  1.00  0.00     0.000 HD 
HETATM   29  C   UNL     1      -8.527   8.334  65.583  1.00  0.00    -0.158 C  
HETATM   30  O   UNL     1      -8.908   8.933  64.583  1.00  0.00    -0.158 OA 
BRANCH  29  31
HETATM   31  C   UNL     1      -7.914   6.927  65.500  1.00  0.00    -0.126 C  
HETATM   32  H   UNL     1      -7.181   5.743  64.101  1.00  0.00     0.000 HD 
HETATM   33  O   UNL     1      -7.559   6.613  64.152  1.00  0.00    -0.090 OA 
BRANCH  31  34
HETATM   34  C   UNL     1      -6.662   6.822  66.370  1.00  0.00    -0.049 C  
BRANCH  34  35
HETATM   35  C   UNL     1      -6.855   5.841  67.527  1.00  0.00    -0.060 C  
HETATM   36  H1  UNL     1      -8.102   5.601  69.136  1.00  0.00     0.000 HD 
HETATM   37  H2  UNL     1      -8.829   6.376  67.823  1.00  0.00     0.000 HD 
HETATM   38  N   UNL     1      -7.974   6.255  68.364  1.00  0.00    -0.104 NA 
ENDBRANCH  34  35
ENDBRANCH  31  34
ENDBRANCH  29  31
ENDBRANCH  18  27
BRANCH  26  39
HETATM   39  O   UNL     1      -7.512  12.954  68.860  1.00  0.00    -0.080 OA 
BRANCH  39  40
HETATM   40  C   UNL     1      -7.140  13.988  67.944  1.00  0.00    -0.160 C  
HETATM   41  H1  UNL     1      -4.414  14.682  69.989  1.00  0.00     0.000 HD 
HETATM   42  O   UNL     1      -8.068  15.078  67.975  1.00  0.00    -0.121 OA 
HETATM   43  H2  UNL     1      -5.593  13.508  70.168  1.00  0.00     0.000 HD 
HETATM   44  N   UNL     1      -5.370  14.413  69.754  1.00  0.00    -0.092 NA 
HETATM   45  C   UNL     1      -5.674  14.402  68.305  1.00  0.00    -0.118 C  
HETATM   46  C   UNL     1      -7.673  16.168  67.217  1.00  0.00    -0.180 C  
HETATM   47  C   UNL     1      -5.252  15.701  67.604  1.00  0.00    -0.085 C  
HETATM   48  C   UNL     1      -6.382  16.477  67.018  1.00  0.00    -0.207 C  
BRANCH  46  49
HETATM   49  C   UNL     1      -8.798  17.016  66.668  1.00  0.00    -0.254 C  
BRANCH  49  50
HETATM   50  N   UNL     1      -9.639  17.611  67.711  1.00  0.00    -0.262 NA 
HETATM   51  H   UNL     1      -9.730  16.990  68.515  1.00  0.00     0.000 HD 
BRANCH  50  52
HETATM   52  C   UNL     1      -9.145  18.941  68.109  1.00  0.00    -0.313 C  
BRANCH  52  53
HETATM   53  C   UNL     1      -8.980  19.849  66.889  1.00  0.00    -0.347 C  
HETATM   54  O   UNL     1     -10.063  19.671  65.980  1.00  0.00    -0.439 OA 
HETATM   55  H   UNL     1      -9.961  20.234  65.221  1.00  0.00     0.000 HD 
ENDBRANCH  52  53
ENDBRANCH  50  52
ENDBRANCH  49  50
ENDBRANCH  46  49
ENDBRANCH  39  40
ENDBRANCH  26  39
ENDBRANCH  15  16
ENDBRANCH   6  15
ENDBRANCH   2   4
TORSDOF 13
ENDMDL
MODEL      145
REMARK 921   NORMALIZED FREE ENERGY PREDICTED BY IDOCK:   -2.38 KCAL/MOL
REMARK 922        TOTAL FREE ENERGY PREDICTED BY IDOCK:   -7.66 KCAL/MOL
REMARK 923 INTER-LIGAND FREE ENERGY PREDICTED BY IDOCK:   -7.11 KCAL/MOL
REMARK 924 INTRA-LIGAND FREE ENERGY PREDICTED BY IDOCK:   -0.55 KCAL/MOL
REMARK 927      BINDING AFFINITY PREDICTED BY RF-SCORE:    0.00 PKD
ROOT
HETATM    1  C   UNL     1     -11.511   7.085  71.885  1.00  0.00    -0.268 C  
HETATM    2  N   UNL     1     -11.712   7.526  70.508  1.00  0.00    -0.459 NA 
HETATM    3  H   UNL     1     -12.582   8.054  70.434  1.00  0.00     0.000 HD 
ENDROOT
BRANCH   2   4
HETATM    4  C   UNL     1     -10.588   8.309  69.912  1.00  0.00    -0.232 C  
HETATM    5  C   UNL     1      -9.202   7.845  70.429  1.00  0.00    -0.158 C  
HETATM    6  C   UNL     1      -8.086   8.574  69.647  1.00  0.00    -0.113 C  
HETATM    7  O   UNL     1      -9.065   6.426  70.331  1.00  0.00    -0.153 OA 
HETATM    8  H   UNL     1      -8.215   6.141  70.648  1.00  0.00     0.000 HD 
HETATM    9  O   UNL     1     -10.759  10.328  71.317  1.00  0.00    -0.088 OA 
HETATM   10  O   UNL     1      -8.213   9.980  69.864  1.00  0.00    -0.176 OA 
HETATM   11  H   UNL     1     -10.817  11.276  71.346  1.00  0.00     0.000 HD 
HETATM   12  C   UNL     1      -9.432  10.506  69.312  1.00  0.00    -0.173 C  
HETATM   13  C   UNL     1     -11.927  10.393  69.232  1.00  0.00    -0.105 C  
HETATM   14  C   UNL     1     -10.682   9.871  69.958  1.00  0.00    -0.292 C  
BRANCH   6  15
HETATM   15  O   UNL     1      -8.152   8.256  68.255  1.00  0.00    -0.120 OA 
BRANCH  15  16
HETATM   16  C   UNL     1      -7.712   6.939  67.883  1.00  0.00    -0.112 C  
HETATM   17  H1  UNL     1      -6.874   5.842  63.642  1.00  0.00     0.000 HD 
HETATM   18  C   UNL     1      -8.802   6.073  67.210  1.00  0.00    -0.107 C  
HETATM   19  C   UNL     1      -6.504   7.127  66.925  1.00  0.00    -0.054 C  
HETATM   20  H2  UNL     1      -8.414   5.190  63.861  1.00  0.00     0.000 HD 
HETATM   21  C   UNL     1      -8.086   6.960  64.900  1.00  0.00    -0.109 C  
HETATM   22  C   UNL     1      -9.243   6.730  65.891  1.00  0.00    -0.001 C  
HETATM   23  O   UNL     1      -5.830   5.864  66.726  1.00  0.00    -0.016 OA 
HETATM   24  H   UNL     1      -5.091   5.979  66.139  1.00  0.00     0.000 HD 
HETATM   25  N   UNL     1      -7.640   5.690  64.298  1.00  0.00    -0.074 NA 
HETATM   26  C   UNL     1      -6.925   7.758  65.567  1.00  0.00    -0.053 C  
BRANCH  18  27
HETATM   27  N   UNL     1      -8.360   4.688  67.038  1.00  0.00    -0.106 N  
HETATM   28  H   UNL     1      -7.565   4.504  66.426  1.00  0.00     0.000 HD 
HETATM   29  C   UNL     1      -8.967   3.622  67.663  1.00  0.00    -0.139 C  
HETATM   30  O   UNL     1      -9.909   3.728  68.439  1.00  0.00    -0.081 OA 
BRANCH  29  31
HETATM   31  C   UNL     1      -8.340   2.258  67.331  1.00  0.00    -0.079 C  
HETATM   32  H   UNL     1      -8.586   0.837  65.983  1.00  0.00     0.000 HD 
HETATM   33  O   UNL     1      -8.973   1.681  66.188  1.00  0.00    -0.120 OA 
BRANCH  31  34
HETATM   34  C   UNL     1      -6.846   2.397  67.042  1.00  0.00    -0.040 C  
BRANCH  34  35
HETATM   35  C   UNL     1      -6.043   2.664  68.315  1.00  0.00    -0.025 C  
HETATM   36  H1  UNL     1      -5.624   1.716  70.084  1.00  0.00     0.000 HD 
HETATM   37  H2  UNL     1      -5.891   0.659  68.794  1.00  0.00     0.000 HD 
HETATM   38  N   UNL     1      -6.159   1.538  69.235  1.00  0.00    -0.023 NA 
ENDBRANCH  34  35
ENDBRANCH  31  34
ENDBRANCH  29  31
ENDBRANCH  18  27
BRANCH  26  39
HETATM   39  O   UNL     1      -7.406   9.097  65.665  1.00  0.00    -0.085 OA 
BRANCH  39  40
HETATM   40  C   UNL     1      -8.620   9.438  64.990  1.00  0.00    -0.172 C  
HETATM   41  H1  UNL     1      -6.698  10.752  62.407  1.00  0.00     0.000 HD 
HETATM   42  O   UNL     1      -9.321  10.487  65.664  1.00  0.00    -0.180 OA 
HETATM   43  H2  UNL     1      -6.196  10.009  63.820  1.00  0.00     0.000 HD 
HETATM   44  N   UNL     1      -6.953  10.523  63.368  1.00  0.00    -0.017 NA 
HETATM   45  C   UNL     1      -8.230   9.790  63.516  1.00  0.00    -0.156 C  
HETATM   46  C   UNL     1     -10.426  10.955  64.970  1.00  0.00    -0.261 C  
HETATM   47  C   UNL     1      -9.384  10.459  62.757  1.00  0.00    -0.341 C  
HETATM   48  C   UNL     1     -10.490  10.947  63.630  1.00  0.00    -0.301 C  
BRANCH  46  49
HETATM   49  C   UNL     1     -11.536  11.522  65.827  1.00  0.00    -0.006 C  
BRANCH  49  50
HETATM   50  N   UNL     1     -12.278  12.605  65.174  1.00  0.00    -0.466 NA 
HETATM   51  H   UNL     1     -13.228  12.678  65.537  1.00  0.00     0.000 HD 
BRANCH  50  52
HETATM   52  C   UNL     1     -11.561  13.888  65.276  1.00  0.00    -0.327 C  
BRANCH  52  53
HETATM   53  C   UNL     1     -12.094  14.894  64.252  1.00  0.00    -0.353 C  
HETATM   54  O   UNL     1     -12.408  14.242  63.024  1.00  0.00    -0.967 OA 
HETATM   55  H   UNL     1     -12.739  14.866  62.389  1.00  0.00     0.000 HD 
ENDBRANCH  52  53
ENDBRANCH  50  52
ENDBRANCH  49  50
ENDBRANCH  46  49
ENDBRANCH  39  40
ENDBRANCH  26  39
ENDBRANCH  15  16
ENDBRANCH   6  15
ENDBRANCH   2   4
TORSDOF 13
ENDMDL
MODEL      146
REMARK 921   NORMALIZED FREE ENERGY PREDICTED BY IDOCK:   -2.35 KCAL/MOL
REMARK 922        TOTAL FREE ENERGY PREDICTED BY IDOCK:   -7.60 KCAL/MOL
REMARK 923 INTER-LIGAND FREE ENERGY PREDICTED BY IDOCK:   -8.45 KCAL/MOL
REMARK 924 INTRA-LIGAND FREE ENERGY PREDICTED BY IDOCK:    0.85 KCAL/MOL
REMARK 927      BINDING AFFINITY PREDICTED BY RF-SCORE:    0.00 PKD
ROOT
HETATM    1  C   UNL     1     -12.210  10.085  71.375  1.00  0.00    -0.416 C  
HETATM    2  N   UNL     1     -10.762  10.162  71.210  1.00  0.00    -0.057 NA 
HETATM    3  H   UNL     1     -10.350   9.234  71.303  1.00  0.00     0.000 HD 
ENDROOT
BRANCH   2   4
HETATM    4  C   UNL     1     -10.290  10.806  69.948  1.00  0.00     0.075 C  
HETATM    5  C   UNL     1     -11.288  11.863  69.412  1.00  0.00    -0.261 C  
HETATM    6  C   UNL     1     -10.662  12.606  68.210  1.00  0.00    -0.230 C  
HETATM    7  O   UNL     1     -11.677  12.774  70.442  1.00  0.00    -0.532 OA 
HETATM    8  H   UNL     1     -12.290  13.422  70.113  1.00  0.00     0.000 HD 
HETATM    9  O   UNL     1     -10.895   9.010  68.370  1.00  0.00    -0.415 OA 
HETATM   10  O   UNL     1     -10.388  11.662  67.175  1.00  0.00    -0.209 OA 
HETATM   11  H   UNL     1     -10.611   8.442  67.664  1.00  0.00     0.000 HD 
HETATM   12  C   UNL     1      -9.385  10.707  67.561  1.00  0.00    -0.146 C  
HETATM   13  C   UNL     1      -8.654   8.971  69.203  1.00  0.00    -0.133 C  
HETATM   14  C   UNL     1      -9.822   9.870  68.784  1.00  0.00    -0.171 C  
BRANCH   6  15
HETATM   15  O   UNL     1      -9.476  13.300  68.605  1.00  0.00    -0.141 OA 
BRANCH  15  16
HETATM   16  C   UNL     1      -9.570  14.733  68.669  1.00  0.00    -0.218 C  
HETATM   17  H1  UNL     1      -9.732  17.251  64.991  1.00  0.00     0.000 HD 
HETATM   18  C   UNL     1      -8.255  15.470  68.330  1.00  0.00    -0.142 C  
HETATM   19  C   UNL     1     -10.693  15.150  67.679  1.00  0.00    -0.285 C  
HETATM   20  H2  UNL     1      -8.113  17.408  65.435  1.00  0.00     0.000 HD 
HETATM   21  C   UNL     1      -8.929  15.540  65.844  1.00  0.00    -0.098 C  
HETATM   22  C   UNL     1      -7.849  15.164  66.877  1.00  0.00    -0.110 C  
HETATM   23  O   UNL     1     -11.043  16.536  67.884  1.00  0.00    -0.319 OA 
HETATM   24  H   UNL     1     -11.730  16.791  67.279  1.00  0.00     0.000 HD 
HETATM   25  N   UNL     1      -9.018  17.002  65.674  1.00  0.00    -0.386 NA 
HETATM   26  C   UNL     1     -10.298  14.884  66.198  1.00  0.00    -0.301 C  
BRANCH  18  27
HETATM   27  N   UNL     1      -8.354  16.904  68.604  1.00  0.00    -0.253 N  
HETATM   28  H   UNL     1      -9.262  17.358  68.498  1.00  0.00     0.000 HD 
HETATM   29  C   UNL     1      -7.281  17.671  68.997  1.00  0.00    -0.214 C  
HETATM   30  O   UNL     1      -6.153  17.228  69.182  1.00  0.00    -0.192 OA 
BRANCH  29  31
HETATM   31  C   UNL     1      -7.616  19.155  69.222  1.00  0.00    -0.154 C  
HETATM   32  H   UNL     1      -6.749  20.731  70.035  1.00  0.00     0.000 HD 
HETATM   33  O   UNL     1      -6.542  19.814  69.896  1.00  0.00    -0.336 OA 
BRANCH  31  34
HETATM   34  C   UNL     1      -7.868  19.867  67.894  1.00  0.00    -0.327 C  
BRANCH  34  35
HETATM   35  C   UNL     1      -9.362  20.003  67.597  1.00  0.00    -0.360 C  
HETATM   36  H1  UNL     1     -11.146  19.683  68.555  1.00  0.00     0.000 HD 
HETATM   37  H2  UNL     1      -9.882  20.102  69.595  1.00  0.00     0.000 HD 
HETATM   38  N   UNL     1     -10.150  19.593  68.753  1.00  0.00    -0.459 NA 
ENDBRANCH  34  35
ENDBRANCH  31  34
ENDBRANCH  29  31
ENDBRANCH  18  27
BRANCH  26  39
HETATM   39  O   UNL     1     -10.143  13.505  65.870  1.00  0.00    -0.293 OA 
BRANCH  39  40
HETATM   40  C   UNL     1     -10.440  13.084  64.535  1.00  0.00    -0.392 C  
HETATM   41  H1  UNL     1     -13.755  12.678  65.507  1.00  0.00     0.000 HD 
HETATM   42  O   UNL     1      -9.855  11.811  64.241  1.00  0.00    -0.247 OA 
HETATM   43  H2  UNL     1     -12.450  13.212  66.410  1.00  0.00     0.000 HD 
HETATM   44  N   UNL     1     -12.739  12.664  65.598  1.00  0.00    -0.437 NA 
HETATM   45  C   UNL     1     -11.999  13.105  64.395  1.00  0.00    -0.397 C  
HETATM   46  C   UNL     1     -10.237  11.292  63.015  1.00  0.00    -0.244 C  
HETATM   47  C   UNL     1     -12.474  12.395  63.119  1.00  0.00    -0.281 C  
HETATM   48  C   UNL     1     -11.433  11.550  62.465  1.00  0.00     1.368 C  
BRANCH  46  49
HETATM   49  C   UNL     1      -9.231  10.373  62.360  1.00  0.00    -0.277 C  
BRANCH  49  50
HETATM   50  N   UNL     1      -8.512   9.524  63.314  1.00  0.00    -0.185 NA 
HETATM   51  H   UNL     1      -8.788   8.547  63.226  1.00  0.00     0.000 HD 
BRANCH  50  52
HETATM   52  C   UNL     1      -7.053   9.686  63.187  1.00  0.00    -0.107 C  
BRANCH  52  53
HETATM   53  C   UNL     1      -6.400   9.844  64.562  1.00  0.00    -0.119 C  
HETATM   54  O   UNL     1      -6.293   8.582  65.217  1.00  0.00    -0.052 OA 
HETATM   55  H   UNL     1      -5.888   8.681  66.070  1.00  0.00     0.000 HD 
ENDBRANCH  52  53
ENDBRANCH  50  52
ENDBRANCH  49  50
ENDBRANCH  46  49
ENDBRANCH  39  40
ENDBRANCH  26  39
ENDBRANCH  15  16
ENDBRANCH   6  15
ENDBRANCH   2   4
TORSDOF 13
ENDMDL
MODEL      147
REMARK 921   NORMALIZED FREE ENERGY PREDICTED BY IDOCK:   -2.32 KCAL/MOL
REMARK 922        TOTAL FREE ENERGY PREDICTED BY IDOCK:   -7.54 KCAL/MOL
REMARK 923 INTER-LIGAND FREE ENERGY PREDICTED BY IDOCK:   -6.33 KCAL/MOL
REMARK 924 INTRA-LIGAND FREE ENERGY PREDICTED BY IDOCK:   -1.20 KCAL/MOL
REMARK 927      BINDING AFFINITY PREDICTED BY RF-SCORE:    0.00 PKD
ROOT
HETATM    1  C   UNL     1      -5.778  16.951  70.344  1.00  0.00    -0.114 C  
HETATM    2  N   UNL     1      -6.586  15.779  70.663  1.00  0.00     0.459 NA 
HETATM    3  H   UNL     1      -7.418  16.058  71.184  1.00  0.00     0.000 HD 
ENDROOT
BRANCH   2   4
HETATM    4  C   UNL     1      -6.976  14.929  69.498  1.00  0.00    -0.180 C  
HETATM    5  C   UNL     1      -5.856  13.943  69.081  1.00  0.00    -0.085 C  
HETATM    6  C   UNL     1      -6.386  12.984  67.991  1.00  0.00    -0.115 C  
HETATM    7  O   UNL     1      -5.357  13.223  70.210  1.00  0.00    -0.097 OA 
HETATM    8  H   UNL     1      -4.669  12.618  69.954  1.00  0.00     0.000 HD 
HETATM    9  O   UNL     1      -6.598  16.573  67.699  1.00  0.00    -0.126 OA 
HETATM   10  O   UNL     1      -6.775  13.751  66.851  1.00  0.00     0.177 OA 
HETATM   11  H   UNL     1      -6.951  17.009  66.932  1.00  0.00     0.000 HD 
HETATM   12  C   UNL     1      -7.888  14.616  67.132  1.00  0.00    -0.124 C  
HETATM   13  C   UNL     1      -8.827  16.442  68.557  1.00  0.00    -0.224 C  
HETATM   14  C   UNL     1      -7.557  15.647  68.234  1.00  0.00    -0.119 C  
BRANCH   6  15
HETATM   15  O   UNL     1      -7.477  12.206  68.489  1.00  0.00    -0.108 OA 
BRANCH  15  16
HETATM   16  C   UNL     1      -7.597  10.872  67.964  1.00  0.00    -0.092 C  
HETATM   17  H1  UNL     1     -11.144   8.309  68.823  1.00  0.00     0.000 HD 
HETATM   18  C   UNL     1      -7.353   9.757  69.006  1.00  0.00    -0.078 C  
HETATM   19  C   UNL     1      -9.028  10.754  67.371  1.00  0.00    -0.139 C  
HETATM   20  H2  UNL     1     -10.016   7.701  69.920  1.00  0.00     0.000 HD 
HETATM   21  C   UNL     1      -9.862   9.748  69.590  1.00  0.00    -0.221 C  
HETATM   22  C   UNL     1      -8.417   9.843  70.115  1.00  0.00    -0.144 C  
HETATM   23  O   UNL     1      -9.136   9.550  66.580  1.00  0.00    -0.142 OA 
HETATM   24  H   UNL     1     -10.012   9.477  66.218  1.00  0.00     0.000 HD 
HETATM   25  N   UNL     1     -10.188   8.372  69.171  1.00  0.00    -0.207 NA 
HETATM   26  C   UNL     1     -10.125  10.803  68.473  1.00  0.00    -0.176 C  
BRANCH  18  27
HETATM   27  N   UNL     1      -7.289   8.437  68.378  1.00  0.00    -0.092 N  
HETATM   28  H   UNL     1      -7.925   8.235  67.606  1.00  0.00     0.000 HD 
HETATM   29  C   UNL     1      -6.413   7.454  68.780  1.00  0.00    -0.044 C  
HETATM   30  O   UNL     1      -5.588   7.596  69.675  1.00  0.00    -0.023 OA 
BRANCH  29  31
HETATM   31  C   UNL     1      -6.527   6.145  67.983  1.00  0.00    -0.049 C  
HETATM   32  H   UNL     1      -7.965   4.950  67.350  1.00  0.00     0.000 HD 
HETATM   33  O   UNL     1      -7.895   5.759  67.843  1.00  0.00    -0.096 OA 
BRANCH  31  34
HETATM   34  C   UNL     1      -5.919   6.298  66.588  1.00  0.00    -0.025 C  
BRANCH  34  35
HETATM   35  C   UNL     1      -6.001   4.999  65.786  1.00  0.00    -0.022 C  
HETATM   36  H1  UNL     1      -6.560   3.049  66.089  1.00  0.00     0.000 HD 
HETATM   37  H2  UNL     1      -7.398   4.153  67.054  1.00  0.00     0.000 HD 
HETATM   38  N   UNL     1      -6.505   3.916  66.623  1.00  0.00    -0.040 NA 
ENDBRANCH  34  35
ENDBRANCH  31  34
ENDBRANCH  29  31
ENDBRANCH  18  27
BRANCH  26  39
HETATM   39  O   UNL     1     -10.216  12.051  69.156  1.00  0.00    -0.028 OA 
BRANCH  39  40
HETATM   40  C   UNL     1     -10.601  13.210  68.411  1.00  0.00    -0.251 C  
HETATM   41  H1  UNL     1     -12.757  14.042  71.010  1.00  0.00     0.000 HD 
HETATM   42  O   UNL     1     -11.352  12.860  67.243  1.00  0.00    -0.278 OA 
HETATM   43  H2  UNL     1     -11.713  12.741  70.884  1.00  0.00     0.000 HD 
HETATM   44  N   UNL     1     -12.251  13.435  70.365  1.00  0.00    -0.356 NA 
HETATM   45  C   UNL     1     -11.379  14.141  69.400  1.00  0.00    -0.272 C  
HETATM   46  C   UNL     1     -11.875  13.951  66.569  1.00  0.00    -0.414 C  
HETATM   47  C   UNL     1     -12.108  15.278  68.670  1.00  0.00    -0.160 C  
HETATM   48  C   UNL     1     -12.224  15.085  67.196  1.00  0.00     0.276 C  
BRANCH  46  49
HETATM   49  C   UNL     1     -12.072  13.759  65.082  1.00  0.00    -0.399 C  
BRANCH  49  50
HETATM   50  N   UNL     1     -12.913  12.606  64.752  1.00  0.00    -0.867 NA 
HETATM   51  H   UNL     1     -13.898  12.866  64.694  1.00  0.00     0.000 HD 
BRANCH  50  52
HETATM   52  C   UNL     1     -12.458  11.942  63.517  1.00  0.00    -0.492 C  
BRANCH  52  53
HETATM   53  C   UNL     1     -10.934  11.803  63.503  1.00  0.00    -0.424 C  
HETATM   54  O   UNL     1     -10.531  10.605  64.162  1.00  0.00    -0.426 OA 
HETATM   55  H   UNL     1      -9.585  10.520  64.153  1.00  0.00     0.000 HD 
ENDBRANCH  52  53
ENDBRANCH  50  52
ENDBRANCH  49  50
ENDBRANCH  46  49
ENDBRANCH  39  40
ENDBRANCH  26  39
ENDBRANCH  15  16
ENDBRANCH   6  15
ENDBRANCH   2   4
TORSDOF 13
ENDMDL
MODEL      148
REMARK 921   NORMALIZED FREE ENERGY PREDICTED BY IDOCK:   -2.31 KCAL/MOL
REMARK 922        TOTAL FREE ENERGY PREDICTED BY IDOCK:   -7.52 KCAL/MOL
REMARK 923 INTER-LIGAND FREE ENERGY PREDICTED BY IDOCK:   -8.02 KCAL/MOL
REMARK 924 INTRA-LIGAND FREE ENERGY PREDICTED BY IDOCK:    0.50 KCAL/MOL
REMARK 927      BINDING AFFINITY PREDICTED BY RF-SCORE:    0.00 PKD
ROOT
HETATM    1  C   UNL     1      -5.185  16.080  71.388  1.00  0.00    -0.008 C  
HETATM    2  N   UNL     1      -5.181  14.702  70.906  1.00  0.00    -0.124 NA 
HETATM    3  H   UNL     1      -5.296  14.058  71.688  1.00  0.00     0.000 HD 
ENDROOT
BRANCH   2   4
HETATM    4  C   UNL     1      -6.176  14.391  69.836  1.00  0.00    -0.149 C  
HETATM    5  C   UNL     1      -5.941  13.001  69.193  1.00  0.00    -0.086 C  
HETATM    6  C   UNL     1      -7.100  12.673  68.225  1.00  0.00    -0.105 C  
HETATM    7  O   UNL     1      -5.794  11.989  70.191  1.00  0.00    -0.134 OA 
HETATM    8  H   UNL     1      -5.649  11.137  69.797  1.00  0.00     0.000 HD 
HETATM    9  O   UNL     1      -5.188  15.725  68.013  1.00  0.00    -0.107 OA 
HETATM   10  O   UNL     1      -7.133  13.661  67.193  1.00  0.00    -0.067 OA 
HETATM   11  H   UNL     1      -5.329  16.377  67.337  1.00  0.00     0.000 HD 
HETATM   12  C   UNL     1      -7.455  14.966  67.702  1.00  0.00    -0.185 C  
HETATM   13  C   UNL     1      -6.891  16.800  69.303  1.00  0.00    -0.225 C  
HETATM   14  C   UNL     1      -6.409  15.465  68.722  1.00  0.00    -0.101 C  
BRANCH   6  15
HETATM   15  O   UNL     1      -8.344  12.615  68.926  1.00  0.00     0.078 OA 
BRANCH  15  16
HETATM   16  C   UNL     1      -9.520  12.440  68.118  1.00  0.00    -0.214 C  
HETATM   17  H1  UNL     1     -11.031   8.396  66.995  1.00  0.00     0.000 HD 
HETATM   18  C   UNL     1      -9.230  12.022  66.658  1.00  0.00    -0.211 C  
HETATM   19  C   UNL     1     -10.391  11.364  68.825  1.00  0.00    -0.204 C  
HETATM   20  H2  UNL     1     -10.219   8.855  65.590  1.00  0.00     0.000 HD 
HETATM   21  C   UNL     1      -9.337   9.541  67.343  1.00  0.00    -0.130 C  
HETATM   22  C   UNL     1      -8.531  10.651  66.641  1.00  0.00    -0.137 C  
HETATM   23  O   UNL     1     -11.709  11.330  68.235  1.00  0.00    -0.427 OA 
HETATM   24  H   UNL     1     -12.241  10.671  68.667  1.00  0.00     0.000 HD 
HETATM   25  N   UNL     1     -10.498   9.131  66.531  1.00  0.00    -0.188 NA 
HETATM   26  C   UNL     1      -9.725   9.958  68.793  1.00  0.00    -0.160 C  
BRANCH  18  27
HETATM   27  N   UNL     1     -10.441  12.055  65.837  1.00  0.00    -0.247 N  
HETATM   28  H   UNL     1     -10.904  11.172  65.619  1.00  0.00     0.000 HD 
HETATM   29  C   UNL     1     -10.985  13.219  65.345  1.00  0.00    -0.284 C  
HETATM   30  O   UNL     1     -10.530  14.336  65.567  1.00  0.00    -0.309 OA 
BRANCH  29  31
HETATM   31  C   UNL     1     -12.254  13.015  64.502  1.00  0.00    -0.416 C  
HETATM   32  H   UNL     1     -13.456  14.123  63.395  1.00  0.00     0.000 HD 
HETATM   33  O   UNL     1     -12.671  14.249  63.916  1.00  0.00    -0.749 OA 
BRANCH  31  34
HETATM   34  C   UNL     1     -12.011  12.003  63.382  1.00  0.00    -0.571 C  
BRANCH  34  35
HETATM   35  C   UNL     1     -10.534  11.929  62.993  1.00  0.00    -0.112 C  
HETATM   36  H1  UNL     1      -9.028  10.538  62.970  1.00  0.00     0.000 HD 
HETATM   37  H2  UNL     1     -10.566   9.876  62.754  1.00  0.00     0.000 HD 
HETATM   38  N   UNL     1     -10.013  10.588  63.229  1.00  0.00    -0.254 NA 
ENDBRANCH  34  35
ENDBRANCH  31  34
ENDBRANCH  29  31
ENDBRANCH  18  27
BRANCH  26  39
HETATM   39  O   UNL     1      -8.514   9.865  69.542  1.00  0.00    -0.146 OA 
BRANCH  39  40
HETATM   40  C   UNL     1      -8.583   9.402  70.894  1.00  0.00    -0.073 C  
HETATM   41  H1  UNL     1      -5.597   7.701  70.358  1.00  0.00     0.000 HD 
HETATM   42  O   UNL     1      -9.653   8.470  71.078  1.00  0.00    -0.168 OA 
HETATM   43  H2  UNL     1      -6.458   8.675  69.304  1.00  0.00     0.000 HD 
HETATM   44  N   UNL     1      -6.516   8.084  70.133  1.00  0.00    -0.036 NA 
HETATM   45  C   UNL     1      -7.173   8.815  71.239  1.00  0.00    -0.095 C  
HETATM   46  C   UNL     1      -9.669   7.880  72.332  1.00  0.00    -0.213 C  
HETATM   47  C   UNL     1      -7.186   8.015  72.549  1.00  0.00    -0.112 C  
HETATM   48  C   UNL     1      -8.550   7.665  73.040  1.00  0.00    -0.197 C  
BRANCH  46  49
HETATM   49  C   UNL     1     -11.031   7.449  72.827  1.00  0.00    -0.339 C  
BRANCH  49  50
HETATM   50  N   UNL     1     -11.345   6.050  72.521  1.00  0.00    -0.293 NA 
HETATM   51  H   UNL     1     -10.816   5.717  71.715  1.00  0.00     0.000 HD 
BRANCH  50  52
HETATM   52  C   UNL     1     -11.142   5.183  73.695  1.00  0.00    -0.234 C  
BRANCH  52  53
HETATM   53  C   UNL     1     -10.016   4.177  73.442  1.00  0.00    -0.130 C  
HETATM   54  O   UNL     1     -10.483   3.088  72.650  1.00  0.00    -0.155 OA 
HETATM   55  H   UNL     1      -9.784   2.464  72.494  1.00  0.00     0.000 HD 
ENDBRANCH  52  53
ENDBRANCH  50  52
ENDBRANCH  49  50
ENDBRANCH  46  49
ENDBRANCH  39  40
ENDBRANCH  26  39
ENDBRANCH  15  16
ENDBRANCH   6  15
ENDBRANCH   2   4
TORSDOF 13
ENDMDL
MODEL      149
REMARK 921   NORMALIZED FREE ENERGY PREDICTED BY IDOCK:   -2.31 KCAL/MOL
REMARK 922        TOTAL FREE ENERGY PREDICTED BY IDOCK:   -7.52 KCAL/MOL
REMARK 923 INTER-LIGAND FREE ENERGY PREDICTED BY IDOCK:   -7.84 KCAL/MOL
REMARK 924 INTRA-LIGAND FREE ENERGY PREDICTED BY IDOCK:    0.32 KCAL/MOL
REMARK 927      BINDING AFFINITY PREDICTED BY RF-SCORE:    0.00 PKD
ROOT
HETATM    1  C   UNL     1     -11.650  11.597  63.984  1.00  0.00    -0.280 C  
HETATM    2  N   UNL     1     -11.764  11.368  65.421  1.00  0.00     0.002 NA 
HETATM    3  H   UNL     1     -11.146  10.607  65.704  1.00  0.00     0.000 HD 
ENDROOT
BRANCH   2   4
HETATM    4  C   UNL     1     -11.530  12.563  66.286  1.00  0.00    -0.370 C  
HETATM    5  C   UNL     1     -12.053  12.362  67.731  1.00  0.00    -0.006 C  
HETATM    6  C   UNL     1     -11.627  13.559  68.609  1.00  0.00    -0.330 C  
HETATM    7  O   UNL     1     -11.592  11.124  68.278  1.00  0.00    -0.344 OA 
HETATM    8  H   UNL     1     -11.913  11.001  69.164  1.00  0.00     0.000 HD 
HETATM    9  O   UNL     1     -13.400  13.962  65.494  1.00  0.00    -0.662 OA 
HETATM   10  O   UNL     1     -12.199  14.752  68.073  1.00  0.00    -0.200 OA 
HETATM   11  H   UNL     1     -13.677  14.808  65.163  1.00  0.00     0.000 HD 
HETATM   12  C   UNL     1     -11.678  15.067  66.770  1.00  0.00    -0.154 C  
HETATM   13  C   UNL     1     -11.293  14.312  64.419  1.00  0.00    -0.284 C  
HETATM   14  C   UNL     1     -11.985  13.958  65.740  1.00  0.00    -0.400 C  
BRANCH   6  15
HETATM   15  O   UNL     1     -10.202  13.654  68.679  1.00  0.00    -0.232 OA 
BRANCH  15  16
HETATM   16  C   UNL     1      -9.604  14.761  67.982  1.00  0.00    -0.209 C  
HETATM   17  H1  UNL     1      -5.184  15.173  67.561  1.00  0.00     0.000 HD 
HETATM   18  C   UNL     1      -8.962  15.820  68.907  1.00  0.00    -0.226 C  
HETATM   19  C   UNL     1      -8.538  14.161  67.025  1.00  0.00    -0.184 C  
HETATM   20  H2  UNL     1      -5.502  16.236  68.831  1.00  0.00     0.000 HD 
HETATM   21  C   UNL     1      -6.721  14.553  68.807  1.00  0.00    -0.091 C  
HETATM   22  C   UNL     1      -7.807  15.182  69.700  1.00  0.00    -0.125 C  
HETATM   23  O   UNL     1      -8.089  15.168  66.092  1.00  0.00    -0.146 OA 
HETATM   24  H   UNL     1      -7.437  14.801  65.506  1.00  0.00     0.000 HD 
HETATM   25  N   UNL     1      -5.903  15.590  68.152  1.00  0.00    -0.119 NA 
HETATM   26  C   UNL     1      -7.340  13.538  67.798  1.00  0.00    -0.163 C  
BRANCH  18  27
HETATM   27  N   UNL     1      -8.552  17.010  68.160  1.00  0.00    -0.221 N  
HETATM   28  H   UNL     1      -8.094  16.883  67.257  1.00  0.00     0.000 HD 
HETATM   29  C   UNL     1      -8.754  18.292  68.618  1.00  0.00    -0.271 C  
HETATM   30  O   UNL     1      -9.317  18.562  69.673  1.00  0.00     0.358 OA 
BRANCH  29  31
HETATM   31  C   UNL     1      -8.236  19.388  67.672  1.00  0.00    -0.294 C  
HETATM   32  H   UNL     1      -6.491  20.036  67.018  1.00  0.00     0.000 HD 
HETATM   33  O   UNL     1      -6.810  19.358  67.603  1.00  0.00    -0.216 OA 
BRANCH  31  34
HETATM   34  C   UNL     1      -8.796  19.203  66.262  1.00  0.00    -0.308 C  
BRANCH  34  35
HETATM   35  C   UNL     1     -10.053  20.044  66.034  1.00  0.00    -0.450 C  
HETATM   36  H1  UNL     1     -11.970  20.150  66.751  1.00  0.00     0.000 HD 
HETATM   37  H2  UNL     1     -10.853  19.582  67.883  1.00  0.00     0.000 HD 
HETATM   38  N   UNL     1     -11.132  19.590  66.903  1.00  0.00    -0.308 NA 
ENDBRANCH  34  35
ENDBRANCH  31  34
ENDBRANCH  29  31
ENDBRANCH  18  27
BRANCH  26  39
HETATM   39  O   UNL     1      -7.677  12.395  68.582  1.00  0.00    -0.118 OA 
BRANCH  39  40
HETATM   40  C   UNL     1      -7.580  11.102  67.978  1.00  0.00    -0.100 C  
HETATM   41  H1  UNL     1      -7.098   9.766  71.152  1.00  0.00     0.000 HD 
HETATM   42  O   UNL     1      -6.384  10.970  67.203  1.00  0.00    -0.063 OA 
HETATM   43  H2  UNL     1      -7.362  11.357  70.709  1.00  0.00     0.000 HD 
HETATM   44  N   UNL     1      -7.024  10.447  70.397  1.00  0.00    -0.296 NA 
HETATM   45  C   UNL     1      -7.695  10.056  69.137  1.00  0.00    -0.104 C  
HETATM   46  C   UNL     1      -6.170   9.689  66.721  1.00  0.00    -0.065 C  
HETATM   47  C   UNL     1      -7.310   8.642  68.679  1.00  0.00    -0.081 C  
HETATM   48  C   UNL     1      -6.593   8.596  67.372  1.00  0.00    -0.058 C  
BRANCH  46  49
HETATM   49  C   UNL     1      -5.383   9.606  65.432  1.00  0.00    -0.048 C  
BRANCH  49  50
HETATM   50  N   UNL     1      -5.916  10.466  64.371  1.00  0.00    -0.254 NA 
HETATM   51  H   UNL     1      -5.188  10.735  63.709  1.00  0.00     0.000 HD 
BRANCH  50  52
HETATM   52  C   UNL     1      -7.059   9.834  63.688  1.00  0.00    -0.116 C  
BRANCH  52  53
HETATM   53  C   UNL     1      -8.375  10.494  64.105  1.00  0.00    -0.095 C  
HETATM   54  O   UNL     1      -9.134   9.620  64.937  1.00  0.00    -0.206 OA 
HETATM   55  H   UNL     1      -9.951  10.029  65.196  1.00  0.00     0.000 HD 
ENDBRANCH  52  53
ENDBRANCH  50  52
ENDBRANCH  49  50
ENDBRANCH  46  49
ENDBRANCH  39  40
ENDBRANCH  26  39
ENDBRANCH  15  16
ENDBRANCH   6  15
ENDBRANCH   2   4
TORSDOF 13
ENDMDL
MODEL      150
REMARK 921   NORMALIZED FREE ENERGY PREDICTED BY IDOCK:   -2.28 KCAL/MOL
REMARK 922        TOTAL FREE ENERGY PREDICTED BY IDOCK:   -7.47 KCAL/MOL
REMARK 923 INTER-LIGAND FREE ENERGY PREDICTED BY IDOCK:   -6.14 KCAL/MOL
REMARK 924 INTRA-LIGAND FREE ENERGY PREDICTED BY IDOCK:   -1.34 KCAL/MOL
REMARK 927      BINDING AFFINITY PREDICTED BY RF-SCORE:    0.00 PKD
ROOT
HETATM    1  C   UNL     1     -12.348  11.429  69.160  1.00  0.00    -0.031 C  
HETATM    2  N   UNL     1     -11.631  11.430  67.889  1.00  0.00    -0.496 NA 
HETATM    3  H   UNL     1     -11.394  12.386  67.623  1.00  0.00     0.000 HD 
ENDROOT
BRANCH   2   4
HETATM    4  C   UNL     1     -10.411  10.569  67.837  1.00  0.00    -0.210 C  
HETATM    5  C   UNL     1      -9.547  10.685  69.118  1.00  0.00    -0.177 C  
HETATM    6  C   UNL     1      -8.404   9.647  69.070  1.00  0.00    -0.122 C  
HETATM    7  O   UNL     1     -10.345  10.526  70.294  1.00  0.00    -0.434 OA 
HETATM    8  H   UNL     1      -9.815  10.598  71.079  1.00  0.00     0.000 HD 
HETATM    9  O   UNL     1      -9.006  12.008  66.409  1.00  0.00    -0.222 OA 
HETATM   10  O   UNL     1      -7.583   9.917  67.933  1.00  0.00    -0.089 OA 
HETATM   11  H   UNL     1      -8.455  12.069  65.638  1.00  0.00     0.000 HD 
HETATM   12  C   UNL     1      -8.288   9.724  66.695  1.00  0.00    -0.124 C  
HETATM   13  C   UNL     1     -10.265  10.314  65.285  1.00  0.00    -0.308 C  
HETATM   14  C   UNL     1      -9.502  10.669  66.566  1.00  0.00    -0.169 C  
BRANCH   6  15
HETATM   15  O   UNL     1      -8.928   8.317  69.026  1.00  0.00    -0.146 OA 
BRANCH  15  16
HETATM   16  C   UNL     1      -8.419   7.401  70.010  1.00  0.00    -0.138 C  
HETATM   17  H1  UNL     1      -9.242   3.023  69.808  1.00  0.00     0.000 HD 
HETATM   18  C   UNL     1      -9.479   6.895  71.014  1.00  0.00    -0.163 C  
HETATM   19  C   UNL     1      -7.799   6.209  69.231  1.00  0.00    -0.104 C  
HETATM   20  H2  UNL     1     -10.367   3.524  70.959  1.00  0.00     0.000 HD 
HETATM   21  C   UNL     1     -10.014   4.915  69.455  1.00  0.00    -0.212 C  
HETATM   22  C   UNL     1     -10.566   6.105  70.263  1.00  0.00    -0.319 C  
HETATM   23  O   UNL     1      -7.022   5.384  70.126  1.00  0.00    -0.053 OA 
HETATM   24  H   UNL     1      -6.643   4.654  69.649  1.00  0.00     0.000 HD 
HETATM   25  N   UNL     1      -9.607   3.810  70.343  1.00  0.00    -0.188 NA 
HETATM   26  C   UNL     1      -8.879   5.370  68.489  1.00  0.00    -0.100 C  
BRANCH  18  27
HETATM   27  N   UNL     1      -8.870   6.132  72.104  1.00  0.00    -0.138 N  
HETATM   28  H   UNL     1      -8.526   5.192  71.906  1.00  0.00     0.000 HD 
HETATM   29  C   UNL     1      -8.738   6.621  73.383  1.00  0.00    -0.123 C  
HETATM   30  O   UNL     1      -9.090   7.744  73.727  1.00  0.00    -0.256 OA 
BRANCH  29  31
HETATM   31  C   UNL     1      -8.074   5.644  74.367  1.00  0.00    -0.103 C  
HETATM   32  H   UNL     1      -8.468   3.872  75.141  1.00  0.00     0.000 HD 
HETATM   33  O   UNL     1      -8.879   4.476  74.533  1.00  0.00    -0.107 OA 
BRANCH  31  34
HETATM   34  C   UNL     1      -6.694   5.218  73.867  1.00  0.00    -0.075 C  
BRANCH  34  35
HETATM   35  C   UNL     1      -5.751   6.411  73.714  1.00  0.00    -0.054 C  
HETATM   36  H1  UNL     1      -4.963   7.551  72.203  1.00  0.00     0.000 HD 
HETATM   37  H2  UNL     1      -6.489   6.920  71.851  1.00  0.00     0.000 HD 
HETATM   38  N   UNL     1      -5.592   6.756  72.306  1.00  0.00    -0.037 NA 
ENDBRANCH  34  35
ENDBRANCH  31  34
ENDBRANCH  29  31
ENDBRANCH  18  27
BRANCH  26  39
HETATM   39  O   UNL     1      -9.544   6.067  67.437  1.00  0.00    -0.110 OA 
BRANCH  39  40
HETATM   40  C   UNL     1      -8.939   6.084  66.141  1.00  0.00    -0.152 C  
HETATM   41  H1  UNL     1     -10.087   2.835  65.672  1.00  0.00     0.000 HD 
HETATM   42  O   UNL     1      -7.511   6.092  66.226  1.00  0.00    -0.083 OA 
HETATM   43  H2  UNL     1     -10.299   3.847  66.988  1.00  0.00     0.000 HD 
HETATM   44  N   UNL     1      -9.713   3.637  66.179  1.00  0.00    -0.131 NA 
HETATM   45  C   UNL     1      -9.513   4.854  65.362  1.00  0.00    -0.123 C  
HETATM   46  C   UNL     1      -6.878   5.958  65.001  1.00  0.00    -0.048 C  
HETATM   47  C   UNL     1      -8.733   4.574  64.069  1.00  0.00    -0.139 C  
HETATM   48  C   UNL     1      -7.419   5.273  63.983  1.00  0.00    -0.059 C  
BRANCH  46  49
HETATM   49  C   UNL     1      -5.510   6.597  64.906  1.00  0.00    -0.026 C  
BRANCH  49  50
HETATM   50  N   UNL     1      -5.552   8.062  64.914  1.00  0.00    -0.043 NA 
HETATM   51  H   UNL     1      -4.834   8.452  65.524  1.00  0.00     0.000 HD 
BRANCH  50  52
HETATM   52  C   UNL     1      -5.459   8.612  63.551  1.00  0.00    -0.063 C  
BRANCH  52  53
HETATM   53  C   UNL     1      -6.652   9.522  63.247  1.00  0.00    -0.101 C  
HETATM   54  O   UNL     1      -6.522  10.766  63.928  1.00  0.00    -0.360 OA 
HETATM   55  H   UNL     1      -7.263  11.331  63.740  1.00  0.00     0.000 HD 
ENDBRANCH  52  53
ENDBRANCH  50  52
ENDBRANCH  49  50
ENDBRANCH  46  49
ENDBRANCH  39  40
ENDBRANCH  26  39
ENDBRANCH  15  16
ENDBRANCH   6  15
ENDBRANCH   2   4
TORSDOF 13
ENDMDL
MODEL      151
REMARK 921   NORMALIZED FREE ENERGY PREDICTED BY IDOCK:   -2.27 KCAL/MOL
REMARK 922        TOTAL FREE ENERGY PREDICTED BY IDOCK:   -7.46 KCAL/MOL
REMARK 923 INTER-LIGAND FREE ENERGY PREDICTED BY IDOCK:   -8.60 KCAL/MOL
REMARK 924 INTRA-LIGAND FREE ENERGY PREDICTED BY IDOCK:    1.14 KCAL/MOL
REMARK 927      BINDING AFFINITY PREDICTED BY RF-SCORE:    0.00 PKD
ROOT
HETATM    1  C   UNL     1     -11.598  11.848  64.063  1.00  0.00    -0.389 C  
HETATM    2  N   UNL     1     -11.654  11.537  65.488  1.00  0.00    -0.134 NA 
HETATM    3  H   UNL     1     -11.062  10.733  65.694  1.00  0.00     0.000 HD 
ENDROOT
BRANCH   2   4
HETATM    4  C   UNL     1     -11.320  12.666  66.408  1.00  0.00    -0.331 C  
HETATM    5  C   UNL     1     -11.829  12.425  67.852  1.00  0.00    -0.308 C  
HETATM    6  C   UNL     1     -11.303  13.541  68.782  1.00  0.00    -0.290 C  
HETATM    7  O   UNL     1     -11.447  11.131  68.324  1.00  0.00    -0.269 OA 
HETATM    8  H   UNL     1     -11.760  10.983  69.209  1.00  0.00     0.000 HD 
HETATM    9  O   UNL     1     -13.101  14.232  65.732  1.00  0.00    -0.540 OA 
HETATM   10  O   UNL     1     -11.800  14.799  68.320  1.00  0.00    -0.320 OA 
HETATM   11  H   UNL     1     -13.323  15.112  65.450  1.00  0.00     0.000 HD 
HETATM   12  C   UNL     1     -11.282  15.145  67.024  1.00  0.00    -0.308 C  
HETATM   13  C   UNL     1     -10.995  14.491  64.630  1.00  0.00    -0.351 C  
HETATM   14  C   UNL     1     -11.686  14.116  65.946  1.00  0.00    -0.365 C  
BRANCH   6  15
HETATM   15  O   UNL     1      -9.874  13.533  68.825  1.00  0.00    -0.165 OA 
BRANCH  15  16
HETATM   16  C   UNL     1      -9.216  14.695  68.292  1.00  0.00    -0.198 C  
HETATM   17  H1  UNL     1      -4.771  15.041  68.171  1.00  0.00     0.000 HD 
HETATM   18  C   UNL     1      -8.610  15.628  69.365  1.00  0.00    -0.248 C  
HETATM   19  C   UNL     1      -8.106  14.179  67.335  1.00  0.00    -0.189 C  
HETATM   20  H2  UNL     1      -5.144  15.964  69.533  1.00  0.00     0.000 HD 
HETATM   21  C   UNL     1      -6.391  14.325  69.250  1.00  0.00    -0.110 C  
HETATM   22  C   UNL     1      -7.516  14.878  70.145  1.00  0.00     0.265 C  
HETATM   23  O   UNL     1      -7.584  15.272  66.549  1.00  0.00    -0.234 OA 
HETATM   24  H   UNL     1      -6.905  14.956  65.963  1.00  0.00     0.000 HD 
HETATM   25  N   UNL     1      -5.516  15.407  68.763  1.00  0.00    -0.092 NA 
HETATM   26  C   UNL     1      -6.968  13.445  68.101  1.00  0.00    -0.116 C  
BRANCH  18  27
HETATM   27  N   UNL     1      -8.134  16.883  68.781  1.00  0.00    -0.253 N  
HETATM   28  H   UNL     1      -7.219  16.893  68.330  1.00  0.00     0.000 HD 
HETATM   29  C   UNL     1      -8.862  18.051  68.812  1.00  0.00    -0.199 C  
HETATM   30  O   UNL     1      -9.982  18.147  69.302  1.00  0.00    -0.246 OA 
BRANCH  29  31
HETATM   31  C   UNL     1      -8.164  19.247  68.144  1.00  0.00    -0.318 C  
HETATM   32  H   UNL     1      -6.535  20.323  68.432  1.00  0.00     0.000 HD 
HETATM   33  O   UNL     1      -6.967  19.584  68.845  1.00  0.00    -0.322 OA 
BRANCH  31  34
HETATM   34  C   UNL     1      -7.807  18.931  66.692  1.00  0.00    -0.271 C  
BRANCH  34  35
HETATM   35  C   UNL     1      -8.899  19.389  65.725  1.00  0.00     0.200 C  
HETATM   36  H1  UNL     1     -10.839  18.906  65.272  1.00  0.00     0.000 HD 
HETATM   37  H2  UNL     1     -10.428  18.622  66.886  1.00  0.00     0.000 HD 
HETATM   38  N   UNL     1     -10.111  18.601  65.917  1.00  0.00    -0.547 NA 
ENDBRANCH  34  35
ENDBRANCH  31  34
ENDBRANCH  29  31
ENDBRANCH  18  27
BRANCH  26  39
HETATM   39  O   UNL     1      -7.371  12.230  68.730  1.00  0.00    -0.109 OA 
BRANCH  39  40
HETATM   40  C   UNL     1      -7.230  11.006  68.004  1.00  0.00    -0.086 C  
HETATM   41  H1  UNL     1      -4.414  12.355  66.473  1.00  0.00     0.000 HD 
HETATM   42  O   UNL     1      -8.279  10.839  67.044  1.00  0.00    -0.121 OA 
HETATM   43  H2  UNL     1      -5.411  13.036  67.632  1.00  0.00     0.000 HD 
HETATM   44  N   UNL     1      -5.347  12.345  66.885  1.00  0.00    -0.343 NA 
HETATM   45  C   UNL     1      -5.798  11.022  67.372  1.00  0.00    -0.049 C  
HETATM   46  C   UNL     1      -8.105   9.744  66.213  1.00  0.00    -0.113 C  
HETATM   47  C   UNL     1      -5.617   9.915  66.323  1.00  0.00    -0.052 C  
HETATM   48  C   UNL     1      -6.891   9.287  65.870  1.00  0.00    -0.088 C  
BRANCH  46  49
HETATM   49  C   UNL     1      -9.379   9.129  65.678  1.00  0.00    -0.235 C  
BRANCH  49  50
HETATM   50  N   UNL     1     -10.402   8.928  66.708  1.00  0.00    -0.268 NA 
HETATM   51  H   UNL     1     -11.340   8.935  66.308  1.00  0.00     0.000 HD 
BRANCH  50  52
HETATM   52  C   UNL     1     -10.155   7.698  67.481  1.00  0.00    -0.202 C  
BRANCH  52  53
HETATM   53  C   UNL     1      -9.723   8.030  68.911  1.00  0.00    -0.159 C  
HETATM   54  O   UNL     1      -8.341   7.737  69.100  1.00  0.00    -0.130 OA 
HETATM   55  H   UNL     1      -8.073   7.943  69.988  1.00  0.00     0.000 HD 
ENDBRANCH  52  53
ENDBRANCH  50  52
ENDBRANCH  49  50
ENDBRANCH  46  49
ENDBRANCH  39  40
ENDBRANCH  26  39
ENDBRANCH  15  16
ENDBRANCH   6  15
ENDBRANCH   2   4
TORSDOF 13
ENDMDL
MODEL      152
REMARK 921   NORMALIZED FREE ENERGY PREDICTED BY IDOCK:   -2.25 KCAL/MOL
REMARK 922        TOTAL FREE ENERGY PREDICTED BY IDOCK:   -7.43 KCAL/MOL
REMARK 923 INTER-LIGAND FREE ENERGY PREDICTED BY IDOCK:   -6.54 KCAL/MOL
REMARK 924 INTRA-LIGAND FREE ENERGY PREDICTED BY IDOCK:   -0.88 KCAL/MOL
REMARK 927      BINDING AFFINITY PREDICTED BY RF-SCORE:    0.00 PKD
ROOT
HETATM    1  C   UNL     1      -8.208   7.121  69.213  1.00  0.00    -0.128 C  
HETATM    2  N   UNL     1      -9.267   7.511  70.139  1.00  0.00    -0.154 NA 
HETATM    3  H   UNL     1      -8.890   7.601  71.082  1.00  0.00     0.000 HD 
ENDROOT
BRANCH   2   4
HETATM    4  C   UNL     1     -10.023   8.745  69.770  1.00  0.00    -0.190 C  
HETATM    5  C   UNL     1      -9.108   9.990  69.659  1.00  0.00    -0.210 C  
HETATM    6  C   UNL     1      -9.920  11.185  69.110  1.00  0.00    -0.082 C  
HETATM    7  O   UNL     1      -7.966   9.719  68.843  1.00  0.00    -0.086 OA 
HETATM    8  H   UNL     1      -7.404  10.482  68.775  1.00  0.00     0.000 HD 
HETATM    9  O   UNL     1     -10.964   9.276  71.987  1.00  0.00    -0.315 OA 
HETATM   10  O   UNL     1     -10.985  11.474  70.017  1.00  0.00    -0.030 OA 
HETATM   11  H   UNL     1     -11.740   9.486  72.493  1.00  0.00     0.000 HD 
HETATM   12  C   UNL     1     -11.940  10.402  70.092  1.00  0.00    -0.276 C  
HETATM   13  C   UNL     1     -12.352   7.978  70.536  1.00  0.00     0.287 C  
HETATM   14  C   UNL     1     -11.302   9.092  70.604  1.00  0.00    -0.273 C  
BRANCH   6  15
HETATM   15  O   UNL     1     -10.417  10.901  67.800  1.00  0.00    -0.184 OA 
BRANCH  15  16
HETATM   16  C   UNL     1      -9.467  10.367  66.863  1.00  0.00    -0.168 C  
HETATM   17  H1  UNL     1      -8.577  12.396  62.992  1.00  0.00     0.000 HD 
HETATM   18  C   UNL     1     -10.106   9.703  65.621  1.00  0.00    -0.161 C  
HETATM   19  C   UNL     1      -8.553  11.547  66.434  1.00  0.00    -0.159 C  
HETATM   20  H2  UNL     1      -9.640  11.183  62.500  1.00  0.00     0.000 HD 
HETATM   21  C   UNL     1     -10.053  11.961  64.382  1.00  0.00    -0.279 C  
HETATM   22  C   UNL     1     -10.901  10.753  64.825  1.00  0.00    -0.046 C  
HETATM   23  O   UNL     1      -7.405  11.046  65.714  1.00  0.00    -0.341 OA 
HETATM   24  H   UNL     1      -6.846  11.768  65.451  1.00  0.00     0.000 HD 
HETATM   25  N   UNL     1      -9.138  11.597  63.285  1.00  0.00    -0.047 NA 
HETATM   26  C   UNL     1      -9.321  12.610  65.596  1.00  0.00     0.131 C  
BRANCH  18  27
HETATM   27  N   UNL     1      -9.109   9.006  64.809  1.00  0.00    -0.438 N  
HETATM   28  H   UNL     1      -8.703   9.496  64.011  1.00  0.00     0.000 HD 
HETATM   29  C   UNL     1      -8.691   7.721  65.069  1.00  0.00     0.137 C  
HETATM   30  O   UNL     1      -9.089   7.049  66.014  1.00  0.00    -0.148 OA 
BRANCH  29  31
HETATM   31  C   UNL     1      -7.642   7.187  64.081  1.00  0.00    -0.109 C  
HETATM   32  H   UNL     1      -7.276   5.501  63.121  1.00  0.00     0.000 HD 
HETATM   33  O   UNL     1      -7.926   5.831  63.732  1.00  0.00    -0.112 OA 
BRANCH  31  34
HETATM   34  C   UNL     1      -7.616   8.025  62.803  1.00  0.00    -0.123 C  
BRANCH  34  35
HETATM   35  C   UNL     1      -6.247   8.662  62.568  1.00  0.00    -0.091 C  
HETATM   36  H1  UNL     1      -5.065  10.103  63.423  1.00  0.00     0.000 HD 
HETATM   37  H2  UNL     1      -6.067   9.305  64.525  1.00  0.00     0.000 HD 
HETATM   38  N   UNL     1      -5.979   9.678  63.580  1.00  0.00    -0.098 NA 
ENDBRANCH  34  35
ENDBRANCH  31  34
ENDBRANCH  29  31
ENDBRANCH  18  27
BRANCH  26  39
HETATM   39  O   UNL     1     -10.339  13.301  66.316  1.00  0.00    -0.278 OA 
BRANCH  39  40
HETATM   40  C   UNL     1     -10.116  14.670  66.667  1.00  0.00    -0.273 C  
HETATM   41  H1  UNL     1     -12.463  15.565  64.262  1.00  0.00     0.000 HD 
HETATM   42  O   UNL     1      -8.813  15.110  66.269  1.00  0.00    -0.278 OA 
HETATM   43  H2  UNL     1     -11.948  14.038  64.714  1.00  0.00     0.000 HD 
HETATM   44  N   UNL     1     -11.704  15.028  64.682  1.00  0.00    -0.414 NA 
HETATM   45  C   UNL     1     -11.280  15.494  66.021  1.00  0.00    -0.107 C  
HETATM   46  C   UNL     1      -8.603  16.468  66.451  1.00  0.00    -0.312 C  
HETATM   47  C   UNL     1     -11.010  17.005  66.061  1.00  0.00     0.161 C  
HETATM   48  C   UNL     1      -9.596  17.366  66.372  1.00  0.00    -0.291 C  
BRANCH  46  49
HETATM   49  C   UNL     1      -7.168  16.873  66.697  1.00  0.00    -0.259 C  
BRANCH  49  50
HETATM   50  N   UNL     1      -6.320  15.765  67.146  1.00  0.00    -0.321 NA 
HETATM   51  H   UNL     1      -5.331  16.007  67.095  1.00  0.00     0.000 HD 
BRANCH  50  52
HETATM   52  C   UNL     1      -6.695  15.312  68.497  1.00  0.00    -0.112 C  
BRANCH  52  53
HETATM   53  C   UNL     1      -6.216  13.879  68.745  1.00  0.00    -0.088 C  
HETATM   54  O   UNL     1      -5.758  13.286  67.532  1.00  0.00    -0.279 OA 
HETATM   55  H   UNL     1      -5.461  12.397  67.686  1.00  0.00     0.000 HD 
ENDBRANCH  52  53
ENDBRANCH  50  52
ENDBRANCH  49  50
ENDBRANCH  46  49
ENDBRANCH  39  40
ENDBRANCH  26  39
ENDBRANCH  15  16
ENDBRANCH   6  15
ENDBRANCH   2   4
TORSDOF 13
ENDMDL
MODEL      153
REMARK 921   NORMALIZED FREE ENERGY PREDICTED BY IDOCK:   -2.24 KCAL/MOL
REMARK 922        TOTAL FREE ENERGY PREDICTED BY IDOCK:   -7.41 KCAL/MOL
REMARK 923 INTER-LIGAND FREE ENERGY PREDICTED BY IDOCK:   -6.89 KCAL/MOL
REMARK 924 INTRA-LIGAND FREE ENERGY PREDICTED BY IDOCK:   -0.52 KCAL/MOL
REMARK 927      BINDING AFFINITY PREDICTED BY RF-SCORE:    0.00 PKD
ROOT
HETATM    1  C   UNL     1      -5.131  13.168  67.716  1.00  0.00    -0.082 C  
HETATM    2  N   UNL     1      -6.007  12.584  66.706  1.00  0.00    -0.466 NA 
HETATM    3  H   UNL     1      -5.489  11.909  66.143  1.00  0.00     0.000 HD 
ENDROOT
BRANCH   2   4
HETATM    4  C   UNL     1      -7.262  11.960  67.223  1.00  0.00    -0.147 C  
HETATM    5  C   UNL     1      -7.851  10.912  66.246  1.00  0.00    -0.158 C  
HETATM    6  C   UNL     1      -9.041  10.188  66.914  1.00  0.00    -0.142 C  
HETATM    7  O   UNL     1      -6.849   9.984  65.820  1.00  0.00    -0.097 OA 
HETATM    8  H   UNL     1      -7.210   9.342  65.221  1.00  0.00     0.000 HD 
HETATM    9  O   UNL     1      -8.832  13.781  66.674  1.00  0.00    -0.403 OA 
HETATM   10  O   UNL     1     -10.051  11.150  67.224  1.00  0.00    -0.181 OA 
HETATM   11  H   UNL     1      -9.518  14.361  66.982  1.00  0.00     0.000 HD 
HETATM   12  C   UNL     1      -9.613  12.098  68.212  1.00  0.00    -0.210 C  
HETATM   13  C   UNL     1      -7.919  13.808  68.884  1.00  0.00     0.036 C  
HETATM   14  C   UNL     1      -8.394  12.915  67.732  1.00  0.00    -0.178 C  
BRANCH   6  15
HETATM   15  O   UNL     1      -8.615   9.489  68.086  1.00  0.00    -0.119 OA 
BRANCH  15  16
HETATM   16  C   UNL     1      -9.420   9.672  69.263  1.00  0.00    -0.179 C  
HETATM   17  H1  UNL     1     -10.136   6.365  72.169  1.00  0.00     0.000 HD 
HETATM   18  C   UNL     1     -10.822   9.027  69.178  1.00  0.00    -0.089 C  
HETATM   19  C   UNL     1      -8.619   9.068  70.449  1.00  0.00    -0.193 C  
HETATM   20  H2  UNL     1     -11.568   6.346  71.277  1.00  0.00     0.000 HD 
HETATM   21  C   UNL     1      -9.882   6.842  70.167  1.00  0.00    -0.177 C  
HETATM   22  C   UNL     1     -10.682   7.502  69.028  1.00  0.00    -0.148 C  
HETATM   23  O   UNL     1      -9.225   9.456  71.702  1.00  0.00    -0.258 OA 
HETATM   24  H   UNL     1      -8.735   9.087  72.428  1.00  0.00     0.000 HD 
HETATM   25  N   UNL     1     -10.666   6.802  71.415  1.00  0.00    -0.222 NA 
HETATM   26  C   UNL     1      -8.491   7.521  70.343  1.00  0.00    -0.141 C  
BRANCH  18  27
HETATM   27  N   UNL     1     -11.663   9.414  70.311  1.00  0.00    -0.450 N  
HETATM   28  H   UNL     1     -11.569   8.896  71.185  1.00  0.00     0.000 HD 
HETATM   29  C   UNL     1     -12.576  10.442  70.255  1.00  0.00    -0.192 C  
HETATM   30  O   UNL     1     -12.753  11.148  69.268  1.00  0.00    -0.252 OA 
BRANCH  29  31
HETATM   31  C   UNL     1     -13.354  10.667  71.561  1.00  0.00    -0.262 C  
HETATM   32  H   UNL     1     -13.606   9.731  73.280  1.00  0.00     0.000 HD 
HETATM   33  O   UNL     1     -13.125   9.591  72.473  1.00  0.00    -0.383 OA 
BRANCH  31  34
HETATM   34  C   UNL     1     -12.931  11.973  72.233  1.00  0.00    -0.044 C  
BRANCH  34  35
HETATM   35  C   UNL     1     -14.012  13.048  72.118  1.00  0.00    -0.243 C  
HETATM   36  H1  UNL     1     -14.275  15.012  72.643  1.00  0.00     0.000 HD 
HETATM   37  H2  UNL     1     -12.667  14.605  72.323  1.00  0.00     0.000 HD 
HETATM   38  N   UNL     1     -13.555  14.295  72.719  1.00  0.00    -0.637 NA 
ENDBRANCH  34  35
ENDBRANCH  31  34
ENDBRANCH  29  31
ENDBRANCH  18  27
BRANCH  26  39
HETATM   39  O   UNL     1      -7.715   7.071  69.234  1.00  0.00    -0.104 OA 
BRANCH  39  40
HETATM   40  C   UNL     1      -6.858   5.941  69.416  1.00  0.00    -0.062 C  
HETATM   41  H1  UNL     1      -8.509   4.389  66.777  1.00  0.00     0.000 HD 
HETATM   42  O   UNL     1      -7.139   5.257  70.641  1.00  0.00    -0.056 OA 
HETATM   43  H2  UNL     1      -8.755   5.913  67.423  1.00  0.00     0.000 HD 
HETATM   44  N   UNL     1      -8.400   4.975  67.606  1.00  0.00    -0.105 NA 
HETATM   45  C   UNL     1      -7.024   5.043  68.144  1.00  0.00    -0.061 C  
HETATM   46  C   UNL     1      -6.439   4.071  70.792  1.00  0.00    -0.030 C  
HETATM   47  C   UNL     1      -6.395   3.655  68.332  1.00  0.00    -0.033 C  
HETATM   48  C   UNL     1      -6.071   3.315  69.747  1.00  0.00    -0.024 C  
BRANCH  46  49
HETATM   49  C   UNL     1      -6.158   3.663  72.221  1.00  0.00    -0.013 C  
BRANCH  49  50
HETATM   50  N   UNL     1      -7.353   3.659  73.069  1.00  0.00    -0.054 NA 
HETATM   51  H   UNL     1      -7.698   4.605  73.233  1.00  0.00     0.000 HD 
BRANCH  50  52
HETATM   52  C   UNL     1      -8.406   2.791  72.513  1.00  0.00    -0.070 C  
BRANCH  52  53
HETATM   53  C   UNL     1      -9.791   3.247  72.977  1.00  0.00    -0.132 C  
HETATM   54  O   UNL     1      -9.730   4.562  73.523  1.00  0.00    -0.123 OA 
HETATM   55  H   UNL     1     -10.590   4.845  73.812  1.00  0.00     0.000 HD 
ENDBRANCH  52  53
ENDBRANCH  50  52
ENDBRANCH  49  50
ENDBRANCH  46  49
ENDBRANCH  39  40
ENDBRANCH  26  39
ENDBRANCH  15  16
ENDBRANCH   6  15
ENDBRANCH   2   4
TORSDOF 13
ENDMDL
MODEL      154
REMARK 921   NORMALIZED FREE ENERGY PREDICTED BY IDOCK:   -2.24 KCAL/MOL
REMARK 922        TOTAL FREE ENERGY PREDICTED BY IDOCK:   -7.40 KCAL/MOL
REMARK 923 INTER-LIGAND FREE ENERGY PREDICTED BY IDOCK:   -6.86 KCAL/MOL
REMARK 924 INTRA-LIGAND FREE ENERGY PREDICTED BY IDOCK:   -0.54 KCAL/MOL
REMARK 927      BINDING AFFINITY PREDICTED BY RF-SCORE:    0.00 PKD
ROOT
HETATM    1  C   UNL     1     -10.830  14.460  69.669  1.00  0.00    -0.111 C  
HETATM    2  N   UNL     1      -9.677  13.961  68.927  1.00  0.00    -0.414 NA 
HETATM    3  H   UNL     1      -8.888  13.822  69.559  1.00  0.00     0.000 HD 
ENDROOT
BRANCH   2   4
HETATM    4  C   UNL     1      -9.912  12.722  68.126  1.00  0.00    -0.229 C  
HETATM    5  C   UNL     1      -8.599  11.968  67.799  1.00  0.00    -0.157 C  
HETATM    6  C   UNL     1      -8.929  10.617  67.125  1.00  0.00    -0.136 C  
HETATM    7  O   UNL     1      -7.804  11.783  68.973  1.00  0.00    -0.311 OA 
HETATM    8  H   UNL     1      -6.999  11.321  68.772  1.00  0.00     0.000 HD 
HETATM    9  O   UNL     1     -10.207  13.765  65.911  1.00  0.00    -0.296 OA 
HETATM   10  O   UNL     1      -9.633  10.869  65.908  1.00  0.00    -0.198 OA 
HETATM   11  H   UNL     1     -10.743  13.838  65.131  1.00  0.00     0.000 HD 
HETATM   12  C   UNL     1     -10.918  11.472  66.138  1.00  0.00    -0.266 C  
HETATM   13  C   UNL     1     -12.206  13.355  67.157  1.00  0.00    -0.306 C  
HETATM   14  C   UNL     1     -10.797  12.842  66.840  1.00  0.00    -0.257 C  
BRANCH   6  15
HETATM   15  O   UNL     1      -9.692   9.786  68.002  1.00  0.00    -0.142 OA 
BRANCH  15  16
HETATM   16  C   UNL     1      -8.961   9.132  69.054  1.00  0.00    -0.143 C  
HETATM   17  H1  UNL     1      -8.589   4.693  69.261  1.00  0.00     0.000 HD 
HETATM   18  C   UNL     1      -9.852   8.457  70.121  1.00  0.00    -0.181 C  
HETATM   19  C   UNL     1      -8.044   8.080  68.371  1.00  0.00    -0.122 C  
HETATM   20  H2  UNL     1      -9.811   4.981  70.387  1.00  0.00     0.000 HD 
HETATM   21  C   UNL     1      -9.835   6.271  68.757  1.00  0.00    -0.137 C  
HETATM   22  C   UNL     1     -10.686   7.341  69.467  1.00  0.00    -0.244 C  
HETATM   23  O   UNL     1      -7.079   7.576  69.320  1.00  0.00    -0.072 OA 
HETATM   24  H   UNL     1      -6.518   6.933  68.902  1.00  0.00     0.000 HD 
HETATM   25  N   UNL     1      -9.152   5.401  69.731  1.00  0.00    -0.125 NA 
HETATM   26  C   UNL     1      -8.859   6.920  67.730  1.00  0.00    -0.119 C  
BRANCH  18  27
HETATM   27  N   UNL     1      -9.065   7.986  71.261  1.00  0.00    -0.135 N  
HETATM   28  H   UNL     1      -8.148   7.576  71.083  1.00  0.00     0.000 HD 
HETATM   29  C   UNL     1      -9.503   8.070  72.563  1.00  0.00    -0.232 C  
HETATM   30  O   UNL     1     -10.573   8.568  72.896  1.00  0.00    -0.161 OA 
BRANCH  29  31
HETATM   31  C   UNL     1      -8.515   7.508  73.598  1.00  0.00    -0.185 C  
HETATM   32  H   UNL     1      -7.492   8.183  75.145  1.00  0.00     0.000 HD 
HETATM   33  O   UNL     1      -8.103   8.531  74.505  1.00  0.00    -0.270 OA 
BRANCH  31  34
HETATM   34  C   UNL     1      -9.149   6.372  74.401  1.00  0.00    -0.189 C  
BRANCH  34  35
HETATM   35  C   UNL     1      -8.431   5.042  74.168  1.00  0.00    -0.109 C  
HETATM   36  H1  UNL     1      -8.477   3.496  72.823  1.00  0.00     0.000 HD 
HETATM   37  H2  UNL     1      -8.909   4.987  72.158  1.00  0.00     0.000 HD 
HETATM   38  N   UNL     1      -8.955   4.383  72.978  1.00  0.00    -0.116 NA 
ENDBRANCH  34  35
ENDBRANCH  31  34
ENDBRANCH  29  31
ENDBRANCH  18  27
BRANCH  26  39
HETATM   39  O   UNL     1      -9.682   7.316  66.635  1.00  0.00    -0.191 OA 
BRANCH  39  40
HETATM   40  C   UNL     1      -9.156   7.200  65.309  1.00  0.00     0.432 C  
HETATM   41  H1  UNL     1      -7.865   4.096  66.202  1.00  0.00     0.000 HD 
HETATM   42  O   UNL     1      -8.091   8.128  65.082  1.00  0.00    -0.124 OA 
HETATM   43  H2  UNL     1      -8.769   5.164  67.120  1.00  0.00     0.000 HD 
HETATM   44  N   UNL     1      -8.139   5.071  66.323  1.00  0.00    -0.107 NA 
HETATM   45  C   UNL     1      -8.734   5.704  65.124  1.00  0.00    -0.093 C  
HETATM   46  C   UNL     1      -7.449   7.954  63.867  1.00  0.00    -0.110 C  
HETATM   47  C   UNL     1      -7.882   5.496  63.864  1.00  0.00    -0.100 C  
HETATM   48  C   UNL     1      -7.345   6.755  63.273  1.00  0.00    -0.076 C  
BRANCH  46  49
HETATM   49  C   UNL     1      -6.831   9.201  63.276  1.00  0.00    -0.089 C  
BRANCH  49  50
HETATM   50  N   UNL     1      -7.492  10.436  63.708  1.00  0.00    -0.315 NA 
HETATM   51  H   UNL     1      -6.853  11.040  64.226  1.00  0.00     0.000 HD 
BRANCH  50  52
HETATM   52  C   UNL     1      -8.102  11.148  62.571  1.00  0.00    -0.032 C  
BRANCH  52  53
HETATM   53  C   UNL     1      -9.626  11.007  62.595  1.00  0.00    -0.251 C  
HETATM   54  O   UNL     1     -10.227  12.144  63.210  1.00  0.00    -0.444 OA 
HETATM   55  H   UNL     1     -11.173  12.056  63.225  1.00  0.00     0.000 HD 
ENDBRANCH  52  53
ENDBRANCH  50  52
ENDBRANCH  49  50
ENDBRANCH  46  49
ENDBRANCH  39  40
ENDBRANCH  26  39
ENDBRANCH  15  16
ENDBRANCH   6  15
ENDBRANCH   2   4
TORSDOF 13
ENDMDL
MODEL      155
REMARK 921   NORMALIZED FREE ENERGY PREDICTED BY IDOCK:   -2.21 KCAL/MOL
REMARK 922        TOTAL FREE ENERGY PREDICTED BY IDOCK:   -7.35 KCAL/MOL
REMARK 923 INTER-LIGAND FREE ENERGY PREDICTED BY IDOCK:   -7.95 KCAL/MOL
REMARK 924 INTRA-LIGAND FREE ENERGY PREDICTED BY IDOCK:    0.60 KCAL/MOL
REMARK 927      BINDING AFFINITY PREDICTED BY RF-SCORE:    0.00 PKD
ROOT
HETATM    1  C   UNL     1      -9.742  16.525  67.437  1.00  0.00    -0.246 C  
HETATM    2  N   UNL     1     -10.940  16.312  66.631  1.00  0.00    -0.107 NA 
HETATM    3  H   UNL     1     -11.078  17.099  65.995  1.00  0.00     0.000 HD 
ENDROOT
BRANCH   2   4
HETATM    4  C   UNL     1     -10.984  15.028  65.869  1.00  0.00    -0.343 C  
HETATM    5  C   UNL     1      -9.584  14.579  65.381  1.00  0.00     0.012 C  
HETATM    6  C   UNL     1      -9.679  13.168  64.757  1.00  0.00     0.147 C  
HETATM    7  O   UNL     1      -8.631  14.614  66.446  1.00  0.00    -0.448 OA 
HETATM    8  H   UNL     1      -7.772  14.339  66.147  1.00  0.00     0.000 HD 
HETATM    9  O   UNL     1     -11.776  15.909  63.706  1.00  0.00    -1.124 OA 
HETATM   10  O   UNL     1     -10.564  13.217  63.638  1.00  0.00    -0.121 OA 
HETATM   11  H   UNL     1     -12.406  15.836  62.999  1.00  0.00     0.000 HD 
HETATM   12  C   UNL     1     -11.915  13.523  64.027  1.00  0.00    -0.449 C  
HETATM   13  C   UNL     1     -13.462  15.099  65.195  1.00  0.00     1.661 C  
HETATM   14  C   UNL     1     -12.023  14.906  64.704  1.00  0.00    -0.401 C  
BRANCH   6  15
HETATM   15  O   UNL     1     -10.120  12.214  65.726  1.00  0.00    -0.236 OA 
BRANCH  15  16
HETATM   16  C   UNL     1     -10.031  12.619  67.103  1.00  0.00    -0.217 C  
HETATM   17  H1  UNL     1      -9.876   9.653  70.429  1.00  0.00     0.000 HD 
HETATM   18  C   UNL     1     -11.349  12.465  67.895  1.00  0.00    -0.289 C  
HETATM   19  C   UNL     1      -8.909  11.760  67.748  1.00  0.00    -0.163 C  
HETATM   20  H2  UNL     1     -11.496  10.120  70.470  1.00  0.00     0.000 HD 
HETATM   21  C   UNL     1     -10.674  10.070  68.561  1.00  0.00    -0.231 C  
HETATM   22  C   UNL     1     -11.752  10.982  67.945  1.00  0.00    -0.216 C  
HETATM   23  O   UNL     1      -8.564  12.292  69.046  1.00  0.00    -0.349 OA 
HETATM   24  H   UNL     1      -7.878  11.766  69.441  1.00  0.00     0.000 HD 
HETATM   25  N   UNL     1     -10.590  10.256  70.022  1.00  0.00    -0.280 NA 
HETATM   26  C   UNL     1      -9.303  10.258  67.844  1.00  0.00    -0.138 C  
BRANCH  18  27
HETATM   27  N   UNL     1     -11.254  13.076  69.222  1.00  0.00    -0.398 N  
HETATM   28  H   UNL     1     -10.706  12.599  69.938  1.00  0.00     0.000 HD 
HETATM   29  C   UNL     1     -11.870  14.262  69.551  1.00  0.00    -0.329 C  
HETATM   30  O   UNL     1     -12.529  14.933  68.764  1.00  0.00    -0.034 OA 
BRANCH  29  31
HETATM   31  C   UNL     1     -11.640  14.710  71.003  1.00  0.00    -0.227 C  
HETATM   32  H   UNL     1     -10.467  15.975  71.963  1.00  0.00     0.000 HD 
HETATM   33  O   UNL     1     -10.609  15.697  71.065  1.00  0.00    -0.138 OA 
BRANCH  31  34
HETATM   34  C   UNL     1     -12.917  15.301  71.603  1.00  0.00    -0.486 C  
BRANCH  34  35
HETATM   35  C   UNL     1     -13.735  14.246  72.347  1.00  0.00    -0.516 C  
HETATM   36  H1  UNL     1     -13.876  12.202  72.434  1.00  0.00     0.000 HD 
HETATM   37  H2  UNL     1     -12.328  12.760  72.054  1.00  0.00     0.000 HD 
HETATM   38  N   UNL     1     -13.330  12.906  71.938  1.00  0.00    -0.469 NA 
ENDBRANCH  34  35
ENDBRANCH  31  34
ENDBRANCH  29  31
ENDBRANCH  18  27
BRANCH  26  39
HETATM   39  O   UNL     1      -9.453   9.608  66.583  1.00  0.00    -0.155 OA 
BRANCH  39  40
HETATM   40  C   UNL     1      -8.521   8.581  66.230  1.00  0.00    -0.124 C  
HETATM   41  H1  UNL     1      -8.442   9.897  63.012  1.00  0.00     0.000 HD 
HETATM   42  O   UNL     1      -9.139   7.291  66.218  1.00  0.00    -0.162 OA 
HETATM   43  H2  UNL     1      -9.295  10.433  64.348  1.00  0.00     0.000 HD 
HETATM   44  N   UNL     1      -8.847   9.629  63.909  1.00  0.00    -0.224 NA 
HETATM   45  C   UNL     1      -7.901   8.992  64.853  1.00  0.00    -0.119 C  
HETATM   46  C   UNL     1      -8.318   6.283  65.738  1.00  0.00    -0.145 C  
HETATM   47  C   UNL     1      -7.111   7.844  64.210  1.00  0.00    -0.074 C  
HETATM   48  C   UNL     1      -7.366   6.507  64.820  1.00  0.00    -0.077 C  
BRANCH  46  49
HETATM   49  C   UNL     1      -8.601   4.902  66.286  1.00  0.00    -0.115 C  
BRANCH  49  50
HETATM   50  N   UNL     1      -8.990   4.906  67.699  1.00  0.00    -0.107 NA 
HETATM   51  H   UNL     1      -9.967   5.172  67.816  1.00  0.00     0.000 HD 
BRANCH  50  52
HETATM   52  C   UNL     1      -8.703   3.611  68.341  1.00  0.00    -0.103 C  
BRANCH  52  53
HETATM   53  C   UNL     1      -9.293   3.560  69.752  1.00  0.00    -0.174 C  
HETATM   54  O   UNL     1     -10.212   4.630  69.952  1.00  0.00    -0.237 OA 
HETATM   55  H   UNL     1     -10.578   4.598  70.828  1.00  0.00     0.000 HD 
ENDBRANCH  52  53
ENDBRANCH  50  52
ENDBRANCH  49  50
ENDBRANCH  46  49
ENDBRANCH  39  40
ENDBRANCH  26  39
ENDBRANCH  15  16
ENDBRANCH   6  15
ENDBRANCH   2   4
TORSDOF 13
ENDMDL
MODEL      156
REMARK 921   NORMALIZED FREE ENERGY PREDICTED BY IDOCK:   -2.17 KCAL/MOL
REMARK 922        TOTAL FREE ENERGY PREDICTED BY IDOCK:   -7.27 KCAL/MOL
REMARK 923 INTER-LIGAND FREE ENERGY PREDICTED BY IDOCK:   -6.09 KCAL/MOL
REMARK 924 INTRA-LIGAND FREE ENERGY PREDICTED BY IDOCK:   -1.19 KCAL/MOL
REMARK 927      BINDING AFFINITY PREDICTED BY RF-SCORE:    0.00 PKD
ROOT
HETATM    1  C   UNL     1      -9.636  16.548  67.727  1.00  0.00    -0.232 C  
HETATM    2  N   UNL     1      -8.463  16.063  67.007  1.00  0.00    -0.195 NA 
HETATM    3  H   UNL     1      -7.828  16.838  66.813  1.00  0.00     0.000 HD 
ENDROOT
BRANCH   2   4
HETATM    4  C   UNL     1      -7.719  14.947  67.664  1.00  0.00    -0.179 C  
HETATM    5  C   UNL     1      -8.654  13.797  68.117  1.00  0.00    -0.175 C  
HETATM    6  C   UNL     1      -7.807  12.609  68.627  1.00  0.00    -0.043 C  
HETATM    7  O   UNL     1      -9.529  13.397  67.060  1.00  0.00    -0.230 OA 
HETATM    8  H   UNL     1     -10.102  12.692  67.338  1.00  0.00     0.000 HD 
HETATM    9  O   UNL     1      -7.414  15.966  69.889  1.00  0.00    -0.035 OA 
HETATM   10  O   UNL     1      -7.031  13.042  69.745  1.00  0.00     0.151 OA 
HETATM   11  H   UNL     1      -6.809  16.188  70.587  1.00  0.00     0.000 HD 
HETATM   12  C   UNL     1      -6.060  14.037  69.380  1.00  0.00    -0.102 C  
HETATM   13  C   UNL     1      -5.620  16.265  68.338  1.00  0.00    -0.104 C  
HETATM   14  C   UNL     1      -6.722  15.312  68.814  1.00  0.00    -0.103 C  
BRANCH   6  15
HETATM   15  O   UNL     1      -6.973  12.097  67.585  1.00  0.00    -0.097 OA 
BRANCH  15  16
HETATM   16  C   UNL     1      -7.609  11.227  66.633  1.00  0.00    -0.140 C  
HETATM   17  H1  UNL     1      -7.549   6.790  67.087  1.00  0.00     0.000 HD 
HETATM   18  C   UNL     1      -6.628  10.492  65.692  1.00  0.00    -0.116 C  
HETATM   19  C   UNL     1      -8.440  10.201  67.453  1.00  0.00    -0.122 C  
HETATM   20  H2  UNL     1      -6.328   7.029  65.948  1.00  0.00     0.000 HD 
HETATM   21  C   UNL     1      -6.473   8.541  67.366  1.00  0.00    -0.058 C  
HETATM   22  C   UNL     1      -5.709   9.574  66.516  1.00  0.00    -0.054 C  
HETATM   23  O   UNL     1      -9.326   9.470  66.577  1.00  0.00    -0.154 OA 
HETATM   24  H   UNL     1      -9.834   8.843  67.079  1.00  0.00     0.000 HD 
HETATM   25  N   UNL     1      -7.043   7.473  66.524  1.00  0.00    -0.073 NA 
HETATM   26  C   UNL     1      -7.536   9.235  68.272  1.00  0.00    -0.083 C  
BRANCH  18  27
HETATM   27  N   UNL     1      -7.334   9.783  64.624  1.00  0.00    -0.128 N  
HETATM   28  H   UNL     1      -8.181   9.267  64.861  1.00  0.00     0.000 HD 
HETATM   29  C   UNL     1      -6.909   9.780  63.314  1.00  0.00    -0.117 C  
HETATM   30  O   UNL     1      -5.923  10.387  62.912  1.00  0.00    -0.132 OA 
BRANCH  29  31
HETATM   31  C   UNL     1      -7.801   8.963  62.365  1.00  0.00    -0.127 C  
HETATM   32  H   UNL     1      -8.240   7.063  62.060  1.00  0.00     0.000 HD 
HETATM   33  O   UNL     1      -7.688   7.568  62.647  1.00  0.00    -0.111 OA 
BRANCH  31  34
HETATM   34  C   UNL     1      -9.268   9.371  62.505  1.00  0.00    -0.056 C  
BRANCH  34  35
HETATM   35  C   UNL     1      -9.415  10.854  62.846  1.00  0.00    -0.355 C  
HETATM   36  H1  UNL     1     -10.131  12.005  64.384  1.00  0.00     0.000 HD 
HETATM   37  H2  UNL     1      -9.523  10.509  64.881  1.00  0.00     0.000 HD 
HETATM   38  N   UNL     1     -10.032  11.016  64.157  1.00  0.00    -0.299 NA 
ENDBRANCH  34  35
ENDBRANCH  31  34
ENDBRANCH  29  31
ENDBRANCH  18  27
BRANCH  26  39
HETATM   39  O   UNL     1      -6.786   9.867  69.306  1.00  0.00    -0.051 OA 
BRANCH  39  40
HETATM   40  C   UNL     1      -7.226   9.713  70.659  1.00  0.00    -0.103 C  
HETATM   41  H1  UNL     1      -4.564   7.534  71.172  1.00  0.00     0.000 HD 
HETATM   42  O   UNL     1      -8.465   9.001  70.732  1.00  0.00    -0.165 OA 
HETATM   43  H2  UNL     1      -4.984   8.376  69.788  1.00  0.00     0.000 HD 
HETATM   44  N   UNL     1      -5.326   7.987  70.666  1.00  0.00    -0.023 NA 
HETATM   45  C   UNL     1      -6.056   9.019  71.435  1.00  0.00    -0.065 C  
HETATM   46  C   UNL     1      -8.857   8.696  72.025  1.00  0.00    -0.194 C  
HETATM   47  C   UNL     1      -6.497   8.522  72.819  1.00  0.00    -0.089 C  
HETATM   48  C   UNL     1      -7.975   8.480  73.013  1.00  0.00    -0.071 C  
BRANCH  46  49
HETATM   49  C   UNL     1     -10.349   8.575  72.237  1.00  0.00    -0.332 C  
BRANCH  49  50
HETATM   50  N   UNL     1     -11.139   9.245  71.200  1.00  0.00    -0.310 NA 
HETATM   51  H   UNL     1     -10.659   9.234  70.300  1.00  0.00     0.000 HD 
BRANCH  50  52
HETATM   52  C   UNL     1     -12.492   8.671  71.097  1.00  0.00    -0.182 C  
BRANCH  52  53
HETATM   53  C   UNL     1     -13.451   9.354  72.075  1.00  0.00    -0.449 C  
HETATM   54  O   UNL     1     -14.024   8.400  72.966  1.00  0.00    -0.588 OA 
HETATM   55  H   UNL     1     -14.620   8.824  73.573  1.00  0.00     0.000 HD 
ENDBRANCH  52  53
ENDBRANCH  50  52
ENDBRANCH  49  50
ENDBRANCH  46  49
ENDBRANCH  39  40
ENDBRANCH  26  39
ENDBRANCH  15  16
ENDBRANCH   6  15
ENDBRANCH   2   4
TORSDOF 13
ENDMDL
MODEL      157
REMARK 921   NORMALIZED FREE ENERGY PREDICTED BY IDOCK:   -2.16 KCAL/MOL
REMARK 922        TOTAL FREE ENERGY PREDICTED BY IDOCK:   -7.27 KCAL/MOL
REMARK 923 INTER-LIGAND FREE ENERGY PREDICTED BY IDOCK:   -6.54 KCAL/MOL
REMARK 924 INTRA-LIGAND FREE ENERGY PREDICTED BY IDOCK:   -0.73 KCAL/MOL
REMARK 927      BINDING AFFINITY PREDICTED BY RF-SCORE:    0.00 PKD
ROOT
HETATM    1  C   UNL     1     -10.053  11.728  68.819  1.00  0.00    -0.140 C  
HETATM    2  N   UNL     1      -8.604  11.557  68.765  1.00  0.00    -0.332 NA 
HETATM    3  H   UNL     1      -8.226  11.482  69.709  1.00  0.00     0.000 HD 
ENDROOT
BRANCH   2   4
HETATM    4  C   UNL     1      -8.120  10.416  67.930  1.00  0.00    -0.102 C  
HETATM    5  C   UNL     1      -6.589  10.207  68.042  1.00  0.00    -0.058 C  
HETATM    6  C   UNL     1      -6.185   8.915  67.297  1.00  0.00    -0.059 C  
HETATM    7  O   UNL     1      -6.173  10.171  69.409  1.00  0.00    -0.043 OA 
HETATM    8  H   UNL     1      -5.234  10.043  69.478  1.00  0.00     0.000 HD 
HETATM    9  O   UNL     1      -8.098  11.547  65.739  1.00  0.00    -0.369 OA 
HETATM   10  O   UNL     1      -6.534   9.050  65.918  1.00  0.00    -0.059 OA 
HETATM   11  H   UNL     1      -8.364  11.522  64.827  1.00  0.00     0.000 HD 
HETATM   12  C   UNL     1      -7.955   9.140  65.724  1.00  0.00    -0.103 C  
HETATM   13  C   UNL     1     -10.083  10.328  66.275  1.00  0.00    -0.300 C  
HETATM   14  C   UNL     1      -8.559  10.375  66.428  1.00  0.00    -0.132 C  
BRANCH   6  15
HETATM   15  O   UNL     1      -6.817   7.774  67.882  1.00  0.00    -0.065 OA 
BRANCH  15  16
HETATM   16  C   UNL     1      -7.583   6.946  66.990  1.00  0.00    -0.102 C  
HETATM   17  H1  UNL     1      -9.444   3.123  68.336  1.00  0.00     0.000 HD 
HETATM   18  C   UNL     1      -6.849   5.669  66.523  1.00  0.00    -0.059 C  
HETATM   19  C   UNL     1      -8.891   6.573  67.742  1.00  0.00    -0.113 C  
HETATM   20  H2  UNL     1      -8.059   2.565  67.550  1.00  0.00     0.000 HD 
HETATM   21  C   UNL     1      -7.805   4.377  68.536  1.00  0.00    -0.074 C  
HETATM   22  C   UNL     1      -6.549   4.771  67.736  1.00  0.00    -0.047 C  
HETATM   23  O   UNL     1      -9.836   5.980  66.825  1.00  0.00    -0.148 OA 
HETATM   24  H   UNL     1     -10.636   5.752  67.285  1.00  0.00     0.000 HD 
HETATM   25  N   UNL     1      -8.613   3.383  67.806  1.00  0.00    -0.095 NA 
HETATM   26  C   UNL     1      -8.622   5.636  68.955  1.00  0.00    -0.105 C  
BRANCH  18  27
HETATM   27  N   UNL     1      -7.592   4.975  65.470  1.00  0.00    -0.084 N  
HETATM   28  H   UNL     1      -8.466   4.510  65.717  1.00  0.00     0.000 HD 
HETATM   29  C   UNL     1      -7.168   4.919  64.162  1.00  0.00    -0.051 C  
HETATM   30  O   UNL     1      -6.150   5.463  63.747  1.00  0.00    -0.021 OA 
BRANCH  29  31
HETATM   31  C   UNL     1      -8.102   4.131  63.229  1.00  0.00    -0.085 C  
HETATM   32  H   UNL     1      -7.940   2.684  61.896  1.00  0.00     0.000 HD 
HETATM   33  O   UNL     1      -7.362   3.171  62.473  1.00  0.00    -0.045 OA 
BRANCH  31  34
HETATM   34  C   UNL     1      -9.179   3.396  64.027  1.00  0.00    -0.124 C  
BRANCH  34  35
HETATM   35  C   UNL     1     -10.572   3.966  63.759  1.00  0.00    -0.205 C  
HETATM   36  H1  UNL     1     -12.196   4.602  64.838  1.00  0.00     0.000 HD 
HETATM   37  H2  UNL     1     -10.723   4.824  65.634  1.00  0.00     0.000 HD 
HETATM   38  N   UNL     1     -11.266   4.222  65.016  1.00  0.00    -0.122 NA 
ENDBRANCH  34  35
ENDBRANCH  31  34
ENDBRANCH  29  31
ENDBRANCH  18  27
BRANCH  26  39
HETATM   39  O   UNL     1      -7.866   6.237  70.005  1.00  0.00    -0.102 OA 
BRANCH  39  40
HETATM   40  C   UNL     1      -8.565   6.964  71.019  1.00  0.00    -0.135 C  
HETATM   41  H1  UNL     1      -6.703   5.242  73.398  1.00  0.00     0.000 HD 
HETATM   42  O   UNL     1      -9.940   6.574  71.094  1.00  0.00    -0.182 OA 
HETATM   43  H2  UNL     1      -6.634   5.138  71.729  1.00  0.00     0.000 HD 
HETATM   44  N   UNL     1      -7.217   5.385  72.529  1.00  0.00    -0.091 NA 
HETATM   45  C   UNL     1      -7.777   6.744  72.353  1.00  0.00    -0.093 C  
HETATM   46  C   UNL     1     -10.623   7.140  72.159  1.00  0.00    -0.210 C  
HETATM   47  C   UNL     1      -8.572   7.216  73.579  1.00  0.00    -0.168 C  
HETATM   48  C   UNL     1     -10.020   7.458  73.314  1.00  0.00    -0.341 C  
BRANCH  46  49
HETATM   49  C   UNL     1     -12.108   7.331  71.946  1.00  0.00    -0.314 C  
BRANCH  49  50
HETATM   50  N   UNL     1     -12.720   8.247  72.913  1.00  0.00    -0.664 NA 
HETATM   51  H   UNL     1     -12.029   8.880  73.316  1.00  0.00     0.000 HD 
BRANCH  50  52
HETATM   52  C   UNL     1     -13.846   8.987  72.318  1.00  0.00    -0.484 C  
BRANCH  52  53
HETATM   53  C   UNL     1     -13.497  10.468  72.148  1.00  0.00    -0.160 C  
HETATM   54  O   UNL     1     -12.503  10.637  71.141  1.00  0.00    -0.348 OA 
HETATM   55  H   UNL     1     -12.286  11.556  71.035  1.00  0.00     0.000 HD 
ENDBRANCH  52  53
ENDBRANCH  50  52
ENDBRANCH  49  50
ENDBRANCH  46  49
ENDBRANCH  39  40
ENDBRANCH  26  39
ENDBRANCH  15  16
ENDBRANCH   6  15
ENDBRANCH   2   4
TORSDOF 13
ENDMDL
MODEL      158
REMARK 921   NORMALIZED FREE ENERGY PREDICTED BY IDOCK:   -2.15 KCAL/MOL
REMARK 922        TOTAL FREE ENERGY PREDICTED BY IDOCK:   -7.24 KCAL/MOL
REMARK 923 INTER-LIGAND FREE ENERGY PREDICTED BY IDOCK:   -6.24 KCAL/MOL
REMARK 924 INTRA-LIGAND FREE ENERGY PREDICTED BY IDOCK:   -1.00 KCAL/MOL
REMARK 927      BINDING AFFINITY PREDICTED BY RF-SCORE:    0.00 PKD
ROOT
HETATM    1  C   UNL     1     -10.995  15.417  64.449  1.00  0.00    -0.031 C  
HETATM    2  N   UNL     1     -11.058  14.105  63.812  1.00  0.00    -0.124 NA 
HETATM    3  H   UNL     1     -10.406  14.066  63.028  1.00  0.00     0.000 HD 
ENDROOT
BRANCH   2   4
HETATM    4  C   UNL     1     -10.837  12.937  64.717  1.00  0.00    -0.327 C  
HETATM    5  C   UNL     1     -10.235  11.717  63.975  1.00  0.00    -0.348 C  
HETATM    6  C   UNL     1      -9.874  10.615  64.996  1.00  0.00    -0.293 C  
HETATM    7  O   UNL     1      -9.098  12.097  63.196  1.00  0.00    -0.588 OA 
HETATM    8  H   UNL     1      -8.729  11.349  62.742  1.00  0.00     0.000 HD 
HETATM    9  O   UNL     1     -13.156  12.102  64.812  1.00  0.00    -0.602 OA 
HETATM   10  O   UNL     1     -11.064  10.204  65.671  1.00  0.00     0.422 OA 
HETATM   11  H   UNL     1     -13.880  11.825  65.360  1.00  0.00     0.000 HD 
HETATM   12  C   UNL     1     -11.625  11.258  66.473  1.00  0.00     0.259 C  
HETATM   13  C   UNL     1     -12.501  13.597  66.560  1.00  0.00    -0.337 C  
HETATM   14  C   UNL     1     -12.031  12.480  65.620  1.00  0.00    -0.433 C  
BRANCH   6  15
HETATM   15  O   UNL     1      -8.889  11.083  65.921  1.00  0.00    -0.188 OA 
BRANCH  15  16
HETATM   16  C   UNL     1      -8.260  10.081  66.738  1.00  0.00    -0.121 C  
HETATM   17  H1  UNL     1      -5.371  11.145  69.965  1.00  0.00     0.000 HD 
HETATM   18  C   UNL     1      -6.777   9.820  66.392  1.00  0.00    -0.080 C  
HETATM   19  C   UNL     1      -8.395  10.560  68.210  1.00  0.00    -0.122 C  
HETATM   20  H2  UNL     1      -4.331  10.682  68.721  1.00  0.00     0.000 HD 
HETATM   21  C   UNL     1      -6.059  11.636  68.072  1.00  0.00    -0.047 C  
HETATM   22  C   UNL     1      -5.956  11.099  66.631  1.00  0.00    -0.130 C  
HETATM   23  O   UNL     1      -8.040   9.488  69.112  1.00  0.00    -0.094 OA 
HETATM   24  H   UNL     1      -8.122   9.781  70.013  1.00  0.00     0.000 HD 
HETATM   25  N   UNL     1      -5.302  10.790  69.012  1.00  0.00    -0.041 NA 
HETATM   26  C   UNL     1      -7.547  11.834  68.492  1.00  0.00    -0.131 C  
BRANCH  18  27
HETATM   27  N   UNL     1      -6.250   8.661  67.114  1.00  0.00    -0.055 N  
HETATM   28  H   UNL     1      -5.865   8.804  68.048  1.00  0.00     0.000 HD 
HETATM   29  C   UNL     1      -6.249   7.387  66.593  1.00  0.00    -0.044 C  
HETATM   30  O   UNL     1      -6.711   7.094  65.496  1.00  0.00    -0.050 OA 
BRANCH  29  31
HETATM   31  C   UNL     1      -5.641   6.326  67.525  1.00  0.00    -0.005 C  
HETATM   32  H   UNL     1      -5.657   5.906  69.453  1.00  0.00     0.000 HD 
HETATM   33  O   UNL     1      -6.034   6.562  68.877  1.00  0.00    -0.020 OA 
BRANCH  31  34
HETATM   34  C   UNL     1      -6.092   4.922  67.124  1.00  0.00    -0.031 C  
BRANCH  34  35
HETATM   35  C   UNL     1      -7.251   4.428  67.991  1.00  0.00    -0.064 C  
HETATM   36  H1  UNL     1      -9.217   3.897  67.756  1.00  0.00     0.000 HD 
HETATM   37  H2  UNL     1      -8.266   3.602  66.391  1.00  0.00     0.000 HD 
HETATM   38  N   UNL     1      -8.444   4.226  67.178  1.00  0.00    -0.100 NA 
ENDBRANCH  34  35
ENDBRANCH  31  34
ENDBRANCH  29  31
ENDBRANCH  18  27
BRANCH  26  39
HETATM   39  O   UNL     1      -7.981  12.995  67.788  1.00  0.00    -0.136 OA 
BRANCH  39  40
HETATM   40  C   UNL     1      -8.125  14.219  68.514  1.00  0.00    -0.147 C  
HETATM   41  H1  UNL     1     -11.468  13.408  69.022  1.00  0.00     0.000 HD 
HETATM   42  O   UNL     1      -8.021  15.358  67.654  1.00  0.00    -0.134 OA 
HETATM   43  H2  UNL     1     -10.283  12.537  68.223  1.00  0.00     0.000 HD 
HETATM   44  N   UNL     1     -10.579  13.466  68.526  1.00  0.00    -0.250 NA 
HETATM   45  C   UNL     1      -9.490  14.131  69.275  1.00  0.00     0.296 C  
HETATM   46  C   UNL     1      -8.302  16.560  68.283  1.00  0.00    -0.190 C  
HETATM   47  C   UNL     1      -9.917  15.487  69.855  1.00  0.00    -0.243 C  
HETATM   48  C   UNL     1      -9.164  16.652  69.308  1.00  0.00    -0.078 C  
BRANCH  46  49
HETATM   49  C   UNL     1      -7.608  17.772  67.704  1.00  0.00    -0.210 C  
BRANCH  49  50
HETATM   50  N   UNL     1      -8.255  19.038  68.061  1.00  0.00    -0.290 NA 
HETATM   51  H   UNL     1      -7.626  19.642  68.590  1.00  0.00     0.000 HD 
BRANCH  50  52
HETATM   52  C   UNL     1      -8.789  19.725  66.872  1.00  0.00    -0.335 C  
BRANCH  52  53
HETATM   53  C   UNL     1     -10.249  19.335  66.628  1.00  0.00    -0.421 C  
HETATM   54  O   UNL     1     -11.011  19.464  67.825  1.00  0.00    -0.377 OA 
HETATM   55  H   UNL     1     -11.917  19.221  67.674  1.00  0.00     0.000 HD 
ENDBRANCH  52  53
ENDBRANCH  50  52
ENDBRANCH  49  50
ENDBRANCH  46  49
ENDBRANCH  39  40
ENDBRANCH  26  39
ENDBRANCH  15  16
ENDBRANCH   6  15
ENDBRANCH   2   4
TORSDOF 13
ENDMDL
MODEL      159
REMARK 921   NORMALIZED FREE ENERGY PREDICTED BY IDOCK:   -2.13 KCAL/MOL
REMARK 922        TOTAL FREE ENERGY PREDICTED BY IDOCK:   -7.22 KCAL/MOL
REMARK 923 INTER-LIGAND FREE ENERGY PREDICTED BY IDOCK:   -7.32 KCAL/MOL
REMARK 924 INTRA-LIGAND FREE ENERGY PREDICTED BY IDOCK:    0.10 KCAL/MOL
REMARK 927      BINDING AFFINITY PREDICTED BY RF-SCORE:    0.00 PKD
ROOT
HETATM    1  C   UNL     1      -8.588   5.799  65.833  1.00  0.00    -0.146 C  
HETATM    2  N   UNL     1      -8.212   6.652  64.710  1.00  0.00    -0.258 NA 
HETATM    3  H   UNL     1      -9.004   6.763  64.075  1.00  0.00     0.000 HD 
ENDROOT
BRANCH   2   4
HETATM    4  C   UNL     1      -7.659   7.992  65.074  1.00  0.00    -0.104 C  
HETATM    5  C   UNL     1      -8.524   9.158  64.531  1.00  0.00    -0.180 C  
HETATM    6  C   UNL     1      -7.995  10.499  65.086  1.00  0.00    -0.094 C  
HETATM    7  O   UNL     1      -9.904   8.969  64.853  1.00  0.00    -0.249 OA 
HETATM    8  H   UNL     1     -10.434   9.684  64.520  1.00  0.00     0.000 HD 
HETATM    9  O   UNL     1      -5.882   8.132  63.369  1.00  0.00    -0.068 OA 
HETATM   10  O   UNL     1      -6.647  10.680  64.649  1.00  0.00    -0.013 OA 
HETATM   11  H   UNL     1      -4.965   8.295  63.188  1.00  0.00     0.000 HD 
HETATM   12  C   UNL     1      -5.759   9.694  65.202  1.00  0.00    -0.066 C  
HETATM   13  C   UNL     1      -5.232   7.270  65.503  1.00  0.00    -0.028 C  
HETATM   14  C   UNL     1      -6.147   8.261  64.775  1.00  0.00    -0.052 C  
BRANCH   6  15
HETATM   15  O   UNL     1      -8.085  10.528  66.513  1.00  0.00    -0.125 OA 
BRANCH  15  16
HETATM   16  C   UNL     1      -8.981   9.576  67.112  1.00  0.00    -0.134 C  
HETATM   17  H1  UNL     1     -11.786  10.715  70.387  1.00  0.00     0.000 HD 
HETATM   18  C   UNL     1      -8.556   9.105  68.522  1.00  0.00    -0.129 C  
HETATM   19  C   UNL     1     -10.378  10.253  67.167  1.00  0.00    -0.238 C  
HETATM   20  H2  UNL     1     -10.539   9.979  71.252  1.00  0.00     0.000 HD 
HETATM   21  C   UNL     1      -9.904  11.031  69.575  1.00  0.00     0.161 C  
HETATM   22  C   UNL     1      -8.549  10.304  69.487  1.00  0.00    -0.153 C  
HETATM   23  O   UNL     1     -11.389   9.275  67.494  1.00  0.00    -0.315 OA 
HETATM   24  H   UNL     1     -12.243   9.689  67.528  1.00  0.00     0.000 HD 
HETATM   25  N   UNL     1     -10.889  10.234  70.328  1.00  0.00    -0.298 NA 
HETATM   26  C   UNL     1     -10.411  11.449  68.162  1.00  0.00    -0.188 C  
BRANCH  18  27
HETATM   27  N   UNL     1      -9.388   7.998  68.994  1.00  0.00    -0.148 N  
HETATM   28  H   UNL     1     -10.399   8.064  68.875  1.00  0.00     0.000 HD 
HETATM   29  C   UNL     1      -8.872   6.871  69.591  1.00  0.00    -0.141 C  
HETATM   30  O   UNL     1      -7.673   6.672  69.760  1.00  0.00    -0.107 OA 
BRANCH  29  31
HETATM   31  C   UNL     1      -9.931   5.840  70.014  1.00  0.00    -0.191 C  
HETATM   32  H   UNL     1     -11.832   5.846  70.545  1.00  0.00     0.000 HD 
HETATM   33  O   UNL     1     -11.177   6.484  70.284  1.00  0.00    -0.312 OA 
BRANCH  31  34
HETATM   34  C   UNL     1     -10.149   4.797  68.918  1.00  0.00    -0.149 C  
BRANCH  34  35
HETATM   35  C   UNL     1      -9.429   3.485  69.230  1.00  0.00    -0.163 C  
HETATM   36  H1  UNL     1      -8.991   2.336  70.871  1.00  0.00     0.000 HD 
HETATM   37  H2  UNL     1     -10.425   3.216  71.022  1.00  0.00     0.000 HD 
HETATM   38  N   UNL     1      -9.471   3.211  70.662  1.00  0.00    -0.160 NA 
ENDBRANCH  34  35
ENDBRANCH  31  34
ENDBRANCH  29  31
ENDBRANCH  18  27
BRANCH  26  39
HETATM   39  O   UNL     1      -9.588  12.551  67.784  1.00  0.00    -0.191 OA 
BRANCH  39  40
HETATM   40  C   UNL     1      -9.763  13.797  68.464  1.00  0.00    -0.193 C  
HETATM   41  H1  UNL     1     -12.682  14.272  66.634  1.00  0.00     0.000 HD 
HETATM   42  O   UNL     1      -8.776  14.755  68.071  1.00  0.00    -0.158 OA 
HETATM   43  H2  UNL     1     -11.621  12.979  66.607  1.00  0.00     0.000 HD 
HETATM   44  N   UNL     1     -11.725  13.971  66.817  1.00  0.00    -0.385 NA 
HETATM   45  C   UNL     1     -11.232  14.259  68.183  1.00  0.00    -0.275 C  
HETATM   46  C   UNL     1      -8.991  16.023  68.588  1.00  0.00    -0.210 C  
HETATM   47  C   UNL     1     -11.468  15.718  68.598  1.00  0.00    -0.389 C  
HETATM   48  C   UNL     1     -10.219  16.493  68.852  1.00  0.00    -0.268 C  
BRANCH  46  49
HETATM   49  C   UNL     1      -7.748  16.859  68.789  1.00  0.00    -0.247 C  
BRANCH  49  50
HETATM   50  N   UNL     1      -7.217  17.419  67.543  1.00  0.00    -0.165 NA 
HETATM   51  H   UNL     1      -7.324  16.768  66.766  1.00  0.00     0.000 HD 
BRANCH  50  52
HETATM   52  C   UNL     1      -7.822  18.727  67.238  1.00  0.00    -0.232 C  
BRANCH  52  53
HETATM   53  C   UNL     1      -7.565  19.725  68.370  1.00  0.00    -0.301 C  
HETATM   54  O   UNL     1      -6.283  20.331  68.223  1.00  0.00    -0.259 OA 
HETATM   55  H   UNL     1      -6.123  20.950  68.926  1.00  0.00     0.000 HD 
ENDBRANCH  52  53
ENDBRANCH  50  52
ENDBRANCH  49  50
ENDBRANCH  46  49
ENDBRANCH  39  40
ENDBRANCH  26  39
ENDBRANCH  15  16
ENDBRANCH   6  15
ENDBRANCH   2   4
TORSDOF 13
ENDMDL
MODEL      160
REMARK 921   NORMALIZED FREE ENERGY PREDICTED BY IDOCK:   -2.12 KCAL/MOL
REMARK 922        TOTAL FREE ENERGY PREDICTED BY IDOCK:   -7.18 KCAL/MOL
REMARK 923 INTER-LIGAND FREE ENERGY PREDICTED BY IDOCK:   -6.93 KCAL/MOL
REMARK 924 INTRA-LIGAND FREE ENERGY PREDICTED BY IDOCK:   -0.25 KCAL/MOL
REMARK 927      BINDING AFFINITY PREDICTED BY RF-SCORE:    0.00 PKD
ROOT
HETATM    1  C   UNL     1      -9.426  17.375  68.557  1.00  0.00    -0.297 C  
HETATM    2  N   UNL     1      -8.470  16.832  67.597  1.00  0.00    -0.189 NA 
HETATM    3  H   UNL     1      -7.969  17.592  67.135  1.00  0.00     0.000 HD 
ENDROOT
BRANCH   2   4
HETATM    4  C   UNL     1      -7.497  15.841  68.147  1.00  0.00    -0.124 C  
HETATM    5  C   UNL     1      -8.018  15.148  69.432  1.00  0.00    -0.205 C  
HETATM    6  C   UNL     1      -7.046  14.021  69.845  1.00  0.00     0.234 C  
HETATM    7  O   UNL     1      -9.345  14.649  69.246  1.00  0.00    -0.381 OA 
HETATM    8  H   UNL     1      -9.664  14.224  70.034  1.00  0.00     0.000 HD 
HETATM    9  O   UNL     1      -5.964  17.414  69.269  1.00  0.00    -0.194 OA 
HETATM   10  O   UNL     1      -5.765  14.592  70.116  1.00  0.00    -0.110 OA 
HETATM   11  H   UNL     1      -5.066  17.698  69.394  1.00  0.00     0.000 HD 
HETATM   12  C   UNL     1      -5.165  15.163  68.940  1.00  0.00    -0.096 C  
HETATM   13  C   UNL     1      -5.374  16.775  67.042  1.00  0.00    -0.157 C  
HETATM   14  C   UNL     1      -6.017  16.309  68.353  1.00  0.00    -0.106 C  
BRANCH   6  15
HETATM   15  O   UNL     1      -6.963  13.023  68.824  1.00  0.00    -0.097 OA 
BRANCH  15  16
HETATM   16  C   UNL     1      -8.177  12.749  68.104  1.00  0.00    -0.167 C  
HETATM   17  H1  UNL     1      -9.399   8.595  67.036  1.00  0.00     0.000 HD 
HETATM   18  C   UNL     1      -7.963  12.372  66.621  1.00  0.00     0.153 C  
HETATM   19  C   UNL     1      -8.890  11.593  68.858  1.00  0.00     0.089 C  
HETATM   20  H2  UNL     1      -8.741   9.138  65.581  1.00  0.00     0.000 HD 
HETATM   21  C   UNL     1      -7.793   9.886  67.273  1.00  0.00    -0.102 C  
HETATM   22  C   UNL     1      -7.147  11.071  66.530  1.00  0.00    -0.136 C  
HETATM   23  O   UNL     1     -10.241  11.444  68.369  1.00  0.00    -0.185 OA 
HETATM   24  H   UNL     1     -10.677  10.737  68.830  1.00  0.00     0.000 HD 
HETATM   25  N   UNL     1      -8.971   9.380  66.545  1.00  0.00    -0.144 NA 
HETATM   26  C   UNL     1      -8.105  10.254  68.755  1.00  0.00    -0.120 C  
BRANCH  18  27
HETATM   27  N   UNL     1      -9.231  12.302  65.894  1.00  0.00    -0.427 N  
HETATM   28  H   UNL     1      -9.425  11.471  65.335  1.00  0.00     0.000 HD 
HETATM   29  C   UNL     1     -10.174  13.304  65.927  1.00  0.00    -0.293 C  
HETATM   30  O   UNL     1     -10.058  14.332  66.585  1.00  0.00    -0.261 OA 
BRANCH  29  31
HETATM   31  C   UNL     1     -11.426  13.019  65.083  1.00  0.00    -0.306 C  
HETATM   32  H   UNL     1     -12.892  11.698  65.060  1.00  0.00     0.000 HD 
HETATM   33  O   UNL     1     -12.118  11.874  65.583  1.00  0.00    -0.439 OA 
BRANCH  31  34
HETATM   34  C   UNL     1     -12.382  14.212  65.101  1.00  0.00    -0.460 C  
BRANCH  34  35
HETATM   35  C   UNL     1     -12.252  15.065  63.840  1.00  0.00     0.084 C  
HETATM   36  H1  UNL     1     -11.468  16.880  63.296  1.00  0.00     0.000 HD 
HETATM   37  H2  UNL     1     -10.651  16.144  64.579  1.00  0.00     0.000 HD 
HETATM   38  N   UNL     1     -11.555  16.311  64.138  1.00  0.00    -0.946 NA 
ENDBRANCH  34  35
ENDBRANCH  31  34
ENDBRANCH  29  31
ENDBRANCH  18  27
BRANCH  26  39
HETATM   39  O   UNL     1      -6.837  10.264  69.409  1.00  0.00    -0.059 OA 
BRANCH  39  40
HETATM   40  C   UNL     1      -6.759   9.777  70.752  1.00  0.00    -0.077 C  
HETATM   41  H1  UNL     1      -4.275   7.581  69.704  1.00  0.00     0.000 HD 
HETATM   42  O   UNL     1      -7.936   9.050  71.118  1.00  0.00    -0.154 OA 
HETATM   43  H2  UNL     1      -5.107   8.729  68.817  1.00  0.00     0.000 HD 
HETATM   44  N   UNL     1      -5.131   8.131  69.642  1.00  0.00    -0.026 NA 
HETATM   45  C   UNL     1      -5.444   8.933  70.846  1.00  0.00    -0.029 C  
HETATM   46  C   UNL     1      -7.847   8.431  72.354  1.00  0.00    -0.099 C  
HETATM   47  C   UNL     1      -5.382   8.105  72.138  1.00  0.00    -0.036 C  
HETATM   48  C   UNL     1      -6.683   7.994  72.858  1.00  0.00    -0.092 C  
BRANCH  46  49
HETATM   49  C   UNL     1      -9.161   8.239  73.078  1.00  0.00    -0.249 C  
BRANCH  49  50
HETATM   50  N   UNL     1      -9.600   6.842  73.122  1.00  0.00    -0.150 NA 
HETATM   51  H   UNL     1      -9.812   6.547  74.076  1.00  0.00     0.000 HD 
BRANCH  50  52
HETATM   52  C   UNL     1     -10.740   6.605  72.219  1.00  0.00    -0.221 C  
BRANCH  52  53
HETATM   53  C   UNL     1     -10.609   5.251  71.518  1.00  0.00    -0.184 C  
HETATM   54  O   UNL     1     -10.316   4.223  72.461  1.00  0.00    -0.177 OA 
HETATM   55  H   UNL     1     -10.234   3.383  72.025  1.00  0.00     0.000 HD 
ENDBRANCH  52  53
ENDBRANCH  50  52
ENDBRANCH  49  50
ENDBRANCH  46  49
ENDBRANCH  39  40
ENDBRANCH  26  39
ENDBRANCH  15  16
ENDBRANCH   6  15
ENDBRANCH   2   4
TORSDOF 13
ENDMDL
MODEL      161
REMARK 921   NORMALIZED FREE ENERGY PREDICTED BY IDOCK:   -2.11 KCAL/MOL
REMARK 922        TOTAL FREE ENERGY PREDICTED BY IDOCK:   -7.17 KCAL/MOL
REMARK 923 INTER-LIGAND FREE ENERGY PREDICTED BY IDOCK:   -6.74 KCAL/MOL
REMARK 924 INTRA-LIGAND FREE ENERGY PREDICTED BY IDOCK:   -0.43 KCAL/MOL
REMARK 927      BINDING AFFINITY PREDICTED BY RF-SCORE:    0.00 PKD
ROOT
HETATM    1  C   UNL     1     -11.614   6.439  69.255  1.00  0.00    -0.096 C  
HETATM    2  N   UNL     1     -11.010   5.595  68.228  1.00  0.00    -0.085 NA 
HETATM    3  H   UNL     1     -11.496   5.722  67.341  1.00  0.00     0.000 HD 
ENDROOT
BRANCH   2   4
HETATM    4  C   UNL     1      -9.539   5.769  68.034  1.00  0.00    -0.119 C  
HETATM    5  C   UNL     1      -9.171   6.114  66.568  1.00  0.00    -0.149 C  
HETATM    6  C   UNL     1      -7.665   6.449  66.475  1.00  0.00    -0.099 C  
HETATM    7  O   UNL     1      -9.974   7.188  66.074  1.00  0.00    -0.413 OA 
HETATM    8  H   UNL     1      -9.749   7.400  65.176  1.00  0.00     0.000 HD 
HETATM    9  O   UNL     1      -8.895   3.390  67.941  1.00  0.00    -0.102 OA 
HETATM   10  O   UNL     1      -6.913   5.306  66.884  1.00  0.00    -0.062 OA 
HETATM   11  H   UNL     1      -8.322   2.707  68.269  1.00  0.00     0.000 HD 
HETATM   12  C   UNL     1      -7.119   4.987  68.271  1.00  0.00    -0.062 C  
HETATM   13  C   UNL     1      -8.748   4.440  70.085  1.00  0.00    -0.112 C  
HETATM   14  C   UNL     1      -8.594   4.644  68.573  1.00  0.00    -0.097 C  
BRANCH   6  15
HETATM   15  O   UNL     1      -7.349   7.590  67.276  1.00  0.00    -0.093 OA 
BRANCH  15  16
HETATM   16  C   UNL     1      -7.392   8.864  66.610  1.00  0.00    -0.085 C  
HETATM   17  H1  UNL     1      -7.258  12.710  68.864  1.00  0.00     0.000 HD 
HETATM   18  C   UNL     1      -8.749   9.595  66.725  1.00  0.00    -0.134 C  
HETATM   19  C   UNL     1      -6.258   9.728  67.229  1.00  0.00    -0.067 C  
HETATM   20  H2  UNL     1      -8.907  12.565  68.541  1.00  0.00     0.000 HD 
HETATM   21  C   UNL     1      -7.946  10.754  68.881  1.00  0.00    -0.143 C  
HETATM   22  C   UNL     1      -9.042   9.911  68.202  1.00  0.00    -0.121 C  
HETATM   23  O   UNL     1      -6.051  10.914  66.431  1.00  0.00    -0.103 OA 
HETATM   24  H   UNL     1      -5.357  11.443  66.810  1.00  0.00     0.000 HD 
HETATM   25  N   UNL     1      -7.983  12.152  68.414  1.00  0.00    -0.153 NA 
HETATM   26  C   UNL     1      -6.545  10.093  68.714  1.00  0.00    -0.052 C  
BRANCH  18  27
HETATM   27  N   UNL     1      -8.798  10.780  65.868  1.00  0.00    -0.174 N  
HETATM   28  H   UNL     1      -7.958  11.040  65.350  1.00  0.00     0.000 HD 
HETATM   29  C   UNL     1      -9.922  11.560  65.726  1.00  0.00    -0.233 C  
HETATM   30  O   UNL     1     -10.993  11.326  66.277  1.00  0.00    -0.270 OA 
BRANCH  29  31
HETATM   31  C   UNL     1      -9.743  12.758  64.780  1.00  0.00     0.098 C  
HETATM   32  H   UNL     1      -9.415  13.052  62.856  1.00  0.00     0.000 HD 
HETATM   33  O   UNL     1      -9.526  12.311  63.441  1.00  0.00    -0.201 OA 
BRANCH  31  34
HETATM   34  C   UNL     1     -10.977  13.660  64.798  1.00  0.00    -0.384 C  
BRANCH  34  35
HETATM   35  C   UNL     1     -12.188  12.980  64.160  1.00  0.00    -0.401 C  
HETATM   36  H1  UNL     1     -14.152  12.611  64.619  1.00  0.00     0.000 HD 
HETATM   37  H2  UNL     1     -13.547  14.028  65.313  1.00  0.00     0.000 HD 
HETATM   38  N   UNL     1     -13.344  13.065  65.045  1.00  0.00    -0.486 NA 
ENDBRANCH  34  35
ENDBRANCH  31  34
ENDBRANCH  29  31
ENDBRANCH  18  27
BRANCH  26  39
HETATM   39  O   UNL     1      -6.553   8.977  69.602  1.00  0.00    -0.041 OA 
BRANCH  39  40
HETATM   40  C   UNL     1      -7.212   9.115  70.864  1.00  0.00    -0.111 C  
HETATM   41  H1  UNL     1      -4.890   6.901  72.206  1.00  0.00     0.000 HD 
HETATM   42  O   UNL     1      -8.511   8.515  70.849  1.00  0.00    -0.126 OA 
HETATM   43  H2  UNL     1      -5.004   7.489  70.643  1.00  0.00     0.000 HD 
HETATM   44  N   UNL     1      -5.515   7.298  71.505  1.00  0.00    -0.035 NA 
HETATM   45  C   UNL     1      -6.252   8.506  71.940  1.00  0.00    -0.067 C  
HETATM   46  C   UNL     1      -9.129   8.491  72.089  1.00  0.00    -0.249 C  
HETATM   47  C   UNL     1      -6.950   8.314  73.294  1.00  0.00    -0.142 C  
HETATM   48  C   UNL     1      -8.437   8.409  73.236  1.00  0.00    -0.192 C  
BRANCH  46  49
HETATM   49  C   UNL     1     -10.640   8.513  72.059  1.00  0.00    -0.338 C  
BRANCH  49  50
HETATM   50  N   UNL     1     -11.187   9.381  71.012  1.00  0.00    -0.311 NA 
HETATM   51  H   UNL     1     -11.637   8.837  70.275  1.00  0.00     0.000 HD 
BRANCH  50  52
HETATM   52  C   UNL     1     -12.101  10.392  71.571  1.00  0.00    -0.270 C  
BRANCH  52  53
HETATM   53  C   UNL     1     -12.156  11.632  70.676  1.00  0.00    -0.335 C  
HETATM   54  O   UNL     1     -13.200  12.508  71.094  1.00  0.00    -0.127 OA 
HETATM   55  H   UNL     1     -13.234  13.278  70.538  1.00  0.00     0.000 HD 
ENDBRANCH  52  53
ENDBRANCH  50  52
ENDBRANCH  49  50
ENDBRANCH  46  49
ENDBRANCH  39  40
ENDBRANCH  26  39
ENDBRANCH  15  16
ENDBRANCH   6  15
ENDBRANCH   2   4
TORSDOF 13
ENDMDL
MODEL      162
REMARK 921   NORMALIZED FREE ENERGY PREDICTED BY IDOCK:   -2.05 KCAL/MOL
REMARK 922        TOTAL FREE ENERGY PREDICTED BY IDOCK:   -7.07 KCAL/MOL
REMARK 923 INTER-LIGAND FREE ENERGY PREDICTED BY IDOCK:   -7.20 KCAL/MOL
REMARK 924 INTRA-LIGAND FREE ENERGY PREDICTED BY IDOCK:    0.13 KCAL/MOL
REMARK 927      BINDING AFFINITY PREDICTED BY RF-SCORE:    0.00 PKD
ROOT
HETATM    1  C   UNL     1     -11.319  10.561  69.748  1.00  0.00    -0.300 C  
HETATM    2  N   UNL     1     -10.372  11.648  69.516  1.00  0.00    -0.401 NA 
HETATM    3  H   UNL     1     -10.079  12.051  70.406  1.00  0.00     0.000 HD 
ENDROOT
BRANCH   2   4
HETATM    4  C   UNL     1      -9.174  11.295  68.696  1.00  0.00    -0.161 C  
HETATM    5  C   UNL     1      -7.961  10.878  69.566  1.00  0.00     0.066 C  
HETATM    6  C   UNL     1      -6.822  10.365  68.657  1.00  0.00    -0.058 C  
HETATM    7  O   UNL     1      -8.336   9.897  70.536  1.00  0.00    -0.348 OA 
HETATM    8  H   UNL     1      -7.592   9.642  71.069  1.00  0.00     0.000 HD 
HETATM    9  O   UNL     1      -8.393  13.578  68.186  1.00  0.00    -0.151 OA 
HETATM   10  O   UNL     1      -6.421  11.419  67.780  1.00  0.00    -0.060 OA 
HETATM   11  H   UNL     1      -8.118  14.195  67.518  1.00  0.00     0.000 HD 
HETATM   12  C   UNL     1      -7.465  11.789  66.863  1.00  0.00    -0.106 C  
HETATM   13  C   UNL     1      -9.821  12.564  66.558  1.00  0.00    -0.251 C  
HETATM   14  C   UNL     1      -8.721  12.311  67.595  1.00  0.00    -0.175 C  
BRANCH   6  15
HETATM   15  O   UNL     1      -7.239   9.211  67.924  1.00  0.00    -0.078 OA 
BRANCH  15  16
HETATM   16  C   UNL     1      -7.179   7.957  68.625  1.00  0.00    -0.081 C  
HETATM   17  H1  UNL     1      -6.418   4.106  66.509  1.00  0.00     0.000 HD 
HETATM   18  C   UNL     1      -8.426   7.065  68.436  1.00  0.00    -0.123 C  
HETATM   19  C   UNL     1      -5.907   7.224  68.117  1.00  0.00    -0.023 C  
HETATM   20  H2  UNL     1      -8.092   4.056  66.708  1.00  0.00     0.000 HD 
HETATM   21  C   UNL     1      -7.332   5.963  66.381  1.00  0.00    -0.078 C  
HETATM   22  C   UNL     1      -8.569   6.681  66.953  1.00  0.00    -0.115 C  
HETATM   23  O   UNL     1      -5.619   6.090  68.964  1.00  0.00    -0.010 OA 
HETATM   24  H   UNL     1      -4.842   5.641  68.653  1.00  0.00     0.000 HD 
HETATM   25  N   UNL     1      -7.236   4.581  66.888  1.00  0.00    -0.074 NA 
HETATM   26  C   UNL     1      -6.036   6.793  66.627  1.00  0.00    -0.029 C  
BRANCH  18  27
HETATM   27  N   UNL     1      -8.397   5.902  69.325  1.00  0.00    -0.112 N  
HETATM   28  H   UNL     1      -8.311   4.975  68.909  1.00  0.00     0.000 HD 
HETATM   29  C   UNL     1      -8.481   6.001  70.695  1.00  0.00    -0.133 C  
HETATM   30  O   UNL     1      -8.558   7.063  71.303  1.00  0.00    -0.119 OA 
BRANCH  29  31
HETATM   31  C   UNL     1      -8.437   4.650  71.428  1.00  0.00    -0.107 C  
HETATM   32  H   UNL     1      -7.501   3.870  72.981  1.00  0.00     0.000 HD 
HETATM   33  O   UNL     1      -7.528   4.706  72.528  1.00  0.00    -0.080 OA 
BRANCH  31  34
HETATM   34  C   UNL     1      -9.819   4.269  71.957  1.00  0.00    -0.241 C  
BRANCH  34  35
HETATM   35  C   UNL     1     -10.702   5.497  72.179  1.00  0.00    -0.231 C  
HETATM   36  H1  UNL     1     -11.064   6.872  73.656  1.00  0.00     0.000 HD 
HETATM   37  H2  UNL     1      -9.490   6.258  73.671  1.00  0.00     0.000 HD 
HETATM   38  N   UNL     1     -10.475   6.052  73.508  1.00  0.00    -0.244 NA 
ENDBRANCH  34  35
ENDBRANCH  31  34
ENDBRANCH  29  31
ENDBRANCH  18  27
BRANCH  26  39
HETATM   39  O   UNL     1      -6.111   7.879  65.706  1.00  0.00    -0.038 OA 
BRANCH  39  40
HETATM   40  C   UNL     1      -7.255   7.971  64.852  1.00  0.00    -0.073 C  
HETATM   41  H1  UNL     1      -5.138   7.512  62.131  1.00  0.00     0.000 HD 
HETATM   42  O   UNL     1      -7.795   9.296  64.836  1.00  0.00    -0.109 OA 
HETATM   43  H2  UNL     1      -4.765   7.547  63.762  1.00  0.00     0.000 HD 
HETATM   44  N   UNL     1      -5.431   7.845  63.050  1.00  0.00    -0.050 NA 
HETATM   45  C   UNL     1      -6.805   7.460  63.442  1.00  0.00    -0.054 C  
HETATM   46  C   UNL     1      -8.811   9.473  63.911  1.00  0.00    -0.210 C  
HETATM   47  C   UNL     1      -7.840   7.781  62.355  1.00  0.00    -0.132 C  
HETATM   48  C   UNL     1      -8.867   8.783  62.762  1.00  0.00     0.036 C  
BRANCH  46  49
HETATM   49  C   UNL     1      -9.829  10.535  64.263  1.00  0.00    -0.338 C  
BRANCH  49  50
HETATM   50  N   UNL     1     -10.522  11.085  63.095  1.00  0.00    -0.755 NA 
HETATM   51  H   UNL     1     -10.685  10.369  62.387  1.00  0.00     0.000 HD 
BRANCH  50  52
HETATM   52  C   UNL     1     -11.775  11.759  63.479  1.00  0.00    -0.383 C  
BRANCH  52  53
HETATM   53  C   UNL     1     -11.564  13.269  63.611  1.00  0.00    -0.325 C  
HETATM   54  O   UNL     1     -12.751  13.975  63.260  1.00  0.00    -0.946 OA 
HETATM   55  H   UNL     1     -12.619  14.913  63.341  1.00  0.00     0.000 HD 
ENDBRANCH  52  53
ENDBRANCH  50  52
ENDBRANCH  49  50
ENDBRANCH  46  49
ENDBRANCH  39  40
ENDBRANCH  26  39
ENDBRANCH  15  16
ENDBRANCH   6  15
ENDBRANCH   2   4
TORSDOF 13
ENDMDL
MODEL      163
REMARK 921   NORMALIZED FREE ENERGY PREDICTED BY IDOCK:   -1.97 KCAL/MOL
REMARK 922        TOTAL FREE ENERGY PREDICTED BY IDOCK:   -6.92 KCAL/MOL
REMARK 923 INTER-LIGAND FREE ENERGY PREDICTED BY IDOCK:   -6.05 KCAL/MOL
REMARK 924 INTRA-LIGAND FREE ENERGY PREDICTED BY IDOCK:   -0.87 KCAL/MOL
REMARK 927      BINDING AFFINITY PREDICTED BY RF-SCORE:    0.00 PKD
ROOT
HETATM    1  C   UNL     1     -11.488  15.017  71.515  1.00  0.00    -0.320 C  
HETATM    2  N   UNL     1     -10.345  15.623  70.838  1.00  0.00    -0.006 NA 
HETATM    3  H   UNL     1      -9.537  15.633  71.460  1.00  0.00     0.000 HD 
ENDROOT
BRANCH   2   4
HETATM    4  C   UNL     1      -9.973  15.010  69.528  1.00  0.00    -0.142 C  
HETATM    5  C   UNL     1      -8.455  15.111  69.235  1.00  0.00    -0.209 C  
HETATM    6  C   UNL     1      -8.117  14.311  67.957  1.00  0.00    -0.145 C  
HETATM    7  O   UNL     1      -7.683  14.660  70.351  1.00  0.00    -0.123 OA 
HETATM    8  H   UNL     1      -6.753  14.722  70.171  1.00  0.00     0.000 HD 
HETATM    9  O   UNL     1     -10.677  16.852  68.047  1.00  0.00    -0.352 OA 
HETATM   10  O   UNL     1      -8.839  14.871  66.858  1.00  0.00    -0.229 OA 
HETATM   11  H   UNL     1     -11.175  17.111  67.281  1.00  0.00     0.000 HD 
HETATM   12  C   UNL     1     -10.260  14.717  67.007  1.00  0.00    -0.261 C  
HETATM   13  C   UNL     1     -12.285  15.121  68.414  1.00  0.00     0.036 C  
HETATM   14  C   UNL     1     -10.793  15.437  68.265  1.00  0.00    -0.269 C  
BRANCH   6  15
HETATM   15  O   UNL     1      -8.428  12.927  68.129  1.00  0.00    -0.164 OA 
BRANCH  15  16
HETATM   16  C   UNL     1      -9.190  12.312  67.076  1.00  0.00    -0.205 C  
HETATM   17  H1  UNL     1      -9.623   7.885  66.754  1.00  0.00     0.000 HD 
HETATM   18  C   UNL     1      -8.331  11.655  65.972  1.00  0.00     0.110 C  
HETATM   19  C   UNL     1     -10.106  11.252  67.750  1.00  0.00    -0.179 C  
HETATM   20  H2  UNL     1      -8.422   8.190  65.611  1.00  0.00     0.000 HD 
HETATM   21  C   UNL     1      -8.346   9.433  67.275  1.00  0.00    -0.125 C  
HETATM   22  C   UNL     1      -7.497  10.512  66.576  1.00  0.00    -0.128 C  
HETATM   23  O   UNL     1     -11.098  10.787  66.808  1.00  0.00    -0.212 OA 
HETATM   24  H   UNL     1     -11.658  10.139  67.220  1.00  0.00     0.000 HD 
HETATM   25  N   UNL     1      -9.061   8.598  66.292  1.00  0.00    -0.173 NA 
HETATM   26  C   UNL     1      -9.292  10.065  68.340  1.00  0.00    -0.138 C  
BRANCH  18  27
HETATM   27  N   UNL     1      -9.148  11.226  64.836  1.00  0.00    -0.379 N  
HETATM   28  H   UNL     1      -9.316  10.228  64.708  1.00  0.00     0.000 HD 
HETATM   29  C   UNL     1      -9.702  12.105  63.933  1.00  0.00    -0.118 C  
HETATM   30  O   UNL     1      -9.589  13.324  64.005  1.00  0.00     0.184 OA 
BRANCH  29  31
HETATM   31  C   UNL     1     -10.516  11.432  62.817  1.00  0.00     0.156 C  
HETATM   32  H   UNL     1     -10.564   9.680  61.908  1.00  0.00     0.000 HD 
HETATM   33  O   UNL     1     -10.060  10.096  62.598  1.00  0.00     0.112 OA 
BRANCH  31  34
HETATM   34  C   UNL     1     -12.002  11.386  63.174  1.00  0.00     0.240 C  
BRANCH  34  35
HETATM   35  C   UNL     1     -12.526  12.757  63.603  1.00  0.00    -0.389 C  
HETATM   36  H1  UNL     1     -13.328  13.632  65.274  1.00  0.00     0.000 HD 
HETATM   37  H2  UNL     1     -12.251  12.376  65.616  1.00  0.00     0.000 HD 
HETATM   38  N   UNL     1     -12.978  12.718  64.988  1.00  0.00    -0.828 NA 
ENDBRANCH  34  35
ENDBRANCH  31  34
ENDBRANCH  29  31
ENDBRANCH  18  27
BRANCH  26  39
HETATM   39  O   UNL     1      -8.440  10.420  69.428  1.00  0.00    -0.161 OA 
BRANCH  39  40
HETATM   40  C   UNL     1      -8.570   9.701  70.658  1.00  0.00     0.005 C  
HETATM   41  H1  UNL     1      -5.282   8.637  70.267  1.00  0.00     0.000 HD 
HETATM   42  O   UNL     1      -9.464   8.592  70.528  1.00  0.00    -0.161 OA 
HETATM   43  H2  UNL     1      -6.187   9.644  69.284  1.00  0.00     0.000 HD 
HETATM   44  N   UNL     1      -6.225   8.903  69.983  1.00  0.00    -0.036 NA 
HETATM   45  C   UNL     1      -7.123   9.293  71.094  1.00  0.00    -0.041 C  
HETATM   46  C   UNL     1      -9.508   7.777  71.648  1.00  0.00    -0.144 C  
HETATM   47  C   UNL     1      -7.131   8.265  72.233  1.00  0.00    -0.111 C  
HETATM   48  C   UNL     1      -8.453   7.613  72.460  1.00  0.00    -0.157 C  
BRANCH  46  49
HETATM   49  C   UNL     1     -10.814   7.046  71.865  1.00  0.00    -0.224 C  
BRANCH  49  50
HETATM   50  N   UNL     1     -10.699   5.593  71.707  1.00  0.00    -0.241 NA 
HETATM   51  H   UNL     1     -11.521   5.112  72.073  1.00  0.00     0.000 HD 
BRANCH  50  52
HETATM   52  C   UNL     1     -10.437   5.222  70.306  1.00  0.00    -0.261 C  
BRANCH  52  53
HETATM   53  C   UNL     1      -9.502   4.013  70.227  1.00  0.00    -0.185 C  
HETATM   54  O   UNL     1      -8.346   4.218  71.036  1.00  0.00    -0.081 OA 
HETATM   55  H   UNL     1      -7.765   3.467  70.987  1.00  0.00     0.000 HD 
ENDBRANCH  52  53
ENDBRANCH  50  52
ENDBRANCH  49  50
ENDBRANCH  46  49
ENDBRANCH  39  40
ENDBRANCH  26  39
ENDBRANCH  15  16
ENDBRANCH   6  15
ENDBRANCH   2   4
TORSDOF 13
ENDMDL
MODEL      164
REMARK 921   NORMALIZED FREE ENERGY PREDICTED BY IDOCK:   -1.96 KCAL/MOL
REMARK 922        TOTAL FREE ENERGY PREDICTED BY IDOCK:   -6.92 KCAL/MOL
REMARK 923 INTER-LIGAND FREE ENERGY PREDICTED BY IDOCK:   -6.70 KCAL/MOL
REMARK 924 INTRA-LIGAND FREE ENERGY PREDICTED BY IDOCK:   -0.22 KCAL/MOL
REMARK 927      BINDING AFFINITY PREDICTED BY RF-SCORE:    0.00 PKD
ROOT
HETATM    1  C   UNL     1      -9.347   8.652  72.653  1.00  0.00    -0.095 C  
HETATM    2  N   UNL     1     -10.096   9.244  71.549  1.00  0.00    -0.298 NA 
HETATM    3  H   UNL     1     -10.502  10.134  71.840  1.00  0.00     0.000 HD 
ENDROOT
BRANCH   2   4
HETATM    4  C   UNL     1      -9.335   9.423  70.276  1.00  0.00    -0.252 C  
HETATM    5  C   UNL     1      -7.852   9.804  70.519  1.00  0.00    -0.043 C  
HETATM    6  C   UNL     1      -7.088   9.802  69.176  1.00  0.00    -0.067 C  
HETATM    7  O   UNL     1      -7.242   8.923  71.466  1.00  0.00    -0.151 OA 
HETATM    8  H   UNL     1      -6.334   9.157  71.615  1.00  0.00     0.000 HD 
HETATM    9  O   UNL     1     -10.122  11.685  69.690  1.00  0.00    -0.241 OA 
HETATM   10  O   UNL     1      -7.678  10.771  68.309  1.00  0.00    -0.100 OA 
HETATM   11  H   UNL     1     -10.499  12.249  69.025  1.00  0.00     0.000 HD 
HETATM   12  C   UNL     1      -9.027  10.428  67.948  1.00  0.00    -0.128 C  
HETATM   13  C   UNL     1     -11.334   9.863  68.725  1.00  0.00    -0.049 C  
HETATM   14  C   UNL     1      -9.955  10.353  69.180  1.00  0.00    -0.223 C  
BRANCH   6  15
HETATM   15  O   UNL     1      -7.104   8.501  68.586  1.00  0.00    -0.069 OA 
BRANCH  15  16
HETATM   16  C   UNL     1      -7.554   8.427  67.222  1.00  0.00    -0.097 C  
HETATM   17  H1  UNL     1      -7.926   4.541  65.067  1.00  0.00     0.000 HD 
HETATM   18  C   UNL     1      -6.432   8.145  66.198  1.00  0.00    -0.046 C  
HETATM   19  C   UNL     1      -8.630   7.307  67.168  1.00  0.00    -0.121 C  
HETATM   20  H2  UNL     1      -6.454   5.115  64.475  1.00  0.00     0.000 HD 
HETATM   21  C   UNL     1      -6.825   5.612  66.459  1.00  0.00    -0.059 C  
HETATM   22  C   UNL     1      -5.807   6.768  66.482  1.00  0.00    -0.025 C  
HETATM   23  O   UNL     1      -9.330   7.356  65.906  1.00  0.00    -0.383 OA 
HETATM   24  H   UNL     1      -9.988   6.671  65.873  1.00  0.00     0.000 HD 
HETATM   25  N   UNL     1      -7.252   5.306  65.082  1.00  0.00    -0.066 NA 
HETATM   26  C   UNL     1      -8.020   5.898  67.418  1.00  0.00    -0.102 C  
BRANCH  18  27
HETATM   27  N   UNL     1      -6.911   8.280  64.822  1.00  0.00    -0.074 N  
HETATM   28  H   UNL     1      -7.487   7.534  64.432  1.00  0.00     0.000 HD 
HETATM   29  C   UNL     1      -6.622   9.367  64.028  1.00  0.00    -0.095 C  
HETATM   30  O   UNL     1      -5.965  10.333  64.401  1.00  0.00    -0.130 OA 
BRANCH  29  31
HETATM   31  C   UNL     1      -7.225   9.294  62.616  1.00  0.00    -0.099 C  
HETATM   32  H   UNL     1      -8.387   8.068  61.595  1.00  0.00     0.000 HD 
HETATM   33  O   UNL     1      -8.015   8.113  62.468  1.00  0.00    -0.142 OA 
BRANCH  31  34
HETATM   34  C   UNL     1      -8.108  10.509  62.333  1.00  0.00    -0.216 C  
BRANCH  34  35
HETATM   35  C   UNL     1      -9.586  10.208  62.583  1.00  0.00    -0.159 C  
HETATM   36  H1  UNL     1     -10.834   9.902  64.181  1.00  0.00     0.000 HD 
HETATM   37  H2  UNL     1      -9.539  10.933  64.519  1.00  0.00     0.000 HD 
HETATM   38  N   UNL     1      -9.848  10.103  64.014  1.00  0.00    -0.225 NA 
ENDBRANCH  34  35
ENDBRANCH  31  34
ENDBRANCH  29  31
ENDBRANCH  18  27
BRANCH  26  39
HETATM   39  O   UNL     1      -7.496   5.709  68.731  1.00  0.00    -0.080 OA 
BRANCH  39  40
HETATM   40  C   UNL     1      -8.370   5.894  69.848  1.00  0.00    -0.121 C  
HETATM   41  H1  UNL     1      -7.396   2.762  71.003  1.00  0.00     0.000 HD 
HETATM   42  O   UNL     1      -9.745   5.866  69.451  1.00  0.00    -0.143 OA 
HETATM   43  H2  UNL     1      -6.888   3.586  69.638  1.00  0.00     0.000 HD 
HETATM   44  N   UNL     1      -7.639   3.479  70.319  1.00  0.00    -0.044 NA 
HETATM   45  C   UNL     1      -7.997   4.794  70.897  1.00  0.00    -0.082 C  
HETATM   46  C   UNL     1     -10.633   5.891  70.514  1.00  0.00    -0.275 C  
HETATM   47  C   UNL     1      -9.045   4.681  72.013  1.00  0.00    -0.155 C  
HETATM   48  C   UNL     1     -10.337   5.363  71.711  1.00  0.00    -0.271 C  
BRANCH  46  49
HETATM   49  C   UNL     1     -11.979   6.513  70.218  1.00  0.00    -0.185 C  
BRANCH  49  50
HETATM   50  N   UNL     1     -12.692   6.953  71.421  1.00  0.00    -0.362 NA 
HETATM   51  H   UNL     1     -12.059   7.387  72.092  1.00  0.00     0.000 HD 
BRANCH  50  52
HETATM   52  C   UNL     1     -13.817   7.844  71.086  1.00  0.00    -0.081 C  
BRANCH  52  53
HETATM   53  C   UNL     1     -14.036   8.883  72.187  1.00  0.00    -0.429 C  
HETATM   54  O   UNL     1     -13.025   8.778  73.187  1.00  0.00    -0.710 OA 
HETATM   55  H   UNL     1     -13.162   9.423  73.871  1.00  0.00     0.000 HD 
ENDBRANCH  52  53
ENDBRANCH  50  52
ENDBRANCH  49  50
ENDBRANCH  46  49
ENDBRANCH  39  40
ENDBRANCH  26  39
ENDBRANCH  15  16
ENDBRANCH   6  15
ENDBRANCH   2   4
TORSDOF 13
ENDMDL
MODEL      165
REMARK 921   NORMALIZED FREE ENERGY PREDICTED BY IDOCK:   -1.90 KCAL/MOL
REMARK 922        TOTAL FREE ENERGY PREDICTED BY IDOCK:   -6.81 KCAL/MOL
REMARK 923 INTER-LIGAND FREE ENERGY PREDICTED BY IDOCK:   -6.14 KCAL/MOL
REMARK 924 INTRA-LIGAND FREE ENERGY PREDICTED BY IDOCK:   -0.67 KCAL/MOL
REMARK 927      BINDING AFFINITY PREDICTED BY RF-SCORE:    0.00 PKD
ROOT
HETATM    1  C   UNL     1     -11.552   5.921  71.443  1.00  0.00    -0.042 C  
HETATM    2  N   UNL     1     -10.809   7.167  71.603  1.00  0.00    -0.224 NA 
HETATM    3  H   UNL     1     -10.587   7.318  72.587  1.00  0.00     0.000 HD 
ENDROOT
BRANCH   2   4
HETATM    4  C   UNL     1      -9.570   7.289  70.776  1.00  0.00    -0.171 C  
HETATM    5  C   UNL     1      -9.755   6.729  69.344  1.00  0.00    -0.152 C  
HETATM    6  C   UNL     1      -8.502   7.043  68.497  1.00  0.00    -0.121 C  
HETATM    7  O   UNL     1     -10.939   7.251  68.735  1.00  0.00    -0.408 OA 
HETATM    8  H   UNL     1     -11.052   6.906  67.856  1.00  0.00     0.000 HD 
HETATM    9  O   UNL     1      -8.330   5.361  71.684  1.00  0.00    -0.116 OA 
HETATM   10  O   UNL     1      -7.369   6.412  69.097  1.00  0.00    -0.087 OA 
HETATM   11  H   UNL     1      -7.517   5.041  72.056  1.00  0.00     0.000 HD 
HETATM   12  C   UNL     1      -7.067   6.958  70.393  1.00  0.00    -0.067 C  
HETATM   13  C   UNL     1      -7.877   7.478  72.699  1.00  0.00    -0.113 C  
HETATM   14  C   UNL     1      -8.230   6.763  71.390  1.00  0.00    -0.111 C  
BRANCH   6  15
HETATM   15  O   UNL     1      -8.308   8.454  68.382  1.00  0.00    -0.128 OA 
BRANCH  15  16
HETATM   16  C   UNL     1      -9.373   9.193  67.760  1.00  0.00    -0.136 C  
HETATM   17  H1  UNL     1      -8.968  10.923  63.669  1.00  0.00     0.000 HD 
HETATM   18  C   UNL     1      -9.148  10.721  67.723  1.00  0.00    -0.151 C  
HETATM   19  C   UNL     1      -9.520   8.633  66.318  1.00  0.00    -0.241 C  
HETATM   20  H2  UNL     1      -8.689  12.277  64.637  1.00  0.00     0.000 HD 
HETATM   21  C   UNL     1      -7.975  10.497  65.439  1.00  0.00    -0.129 C  
HETATM   22  C   UNL     1      -7.901  11.040  66.879  1.00  0.00    -0.140 C  
HETATM   23  O   UNL     1     -10.741   9.121  65.720  1.00  0.00     0.316 OA 
HETATM   24  H   UNL     1     -10.831   8.779  64.838  1.00  0.00     0.000 HD 
HETATM   25  N   UNL     1      -8.918  11.283  64.622  1.00  0.00    -0.006 NA 
HETATM   26  C   UNL     1      -8.287   8.970  65.430  1.00  0.00    -0.144 C  
BRANCH  18  27
HETATM   27  N   UNL     1     -10.342  11.432  67.265  1.00  0.00    -0.192 N  
HETATM   28  H   UNL     1     -11.038  10.916  66.726  1.00  0.00     0.000 HD 
HETATM   29  C   UNL     1     -10.572  12.764  67.525  1.00  0.00    -0.229 C  
HETATM   30  O   UNL     1      -9.820  13.473  68.184  1.00  0.00    -0.224 OA 
BRANCH  29  31
HETATM   31  C   UNL     1     -11.888  13.302  66.941  1.00  0.00    -0.392 C  
HETATM   32  H   UNL     1     -13.070  14.858  67.219  1.00  0.00     0.000 HD 
HETATM   33  O   UNL     1     -12.256  14.526  67.580  1.00  0.00    -0.298 OA 
BRANCH  31  34
HETATM   34  C   UNL     1     -11.757  13.557  65.440  1.00  0.00    -0.351 C  
BRANCH  34  35
HETATM   35  C   UNL     1     -11.483  15.030  65.135  1.00  0.00    -0.339 C  
HETATM   36  H1  UNL     1      -9.865  16.256  64.849  1.00  0.00     0.000 HD 
HETATM   37  H2  UNL     1      -9.596  14.656  64.379  1.00  0.00     0.000 HD 
HETATM   38  N   UNL     1     -10.048  15.274  65.052  1.00  0.00    -0.290 NA 
ENDBRANCH  34  35
ENDBRANCH  31  34
ENDBRANCH  29  31
ENDBRANCH  18  27
BRANCH  26  39
HETATM   39  O   UNL     1      -7.076   8.342  65.844  1.00  0.00    -0.069 OA 
BRANCH  39  40
HETATM   40  C   UNL     1      -6.699   7.110  65.223  1.00  0.00    -0.047 C  
HETATM   41  H1  UNL     1      -4.845   8.950  62.927  1.00  0.00     0.000 HD 
HETATM   42  O   UNL     1      -7.811   6.488  64.570  1.00  0.00    -0.103 OA 
HETATM   43  H2  UNL     1      -5.748   9.492  64.227  1.00  0.00     0.000 HD 
HETATM   44  N   UNL     1      -5.620   8.735  63.555  1.00  0.00    -0.067 NA 
HETATM   45  C   UNL     1      -5.510   7.438  64.259  1.00  0.00    -0.033 C  
HETATM   46  C   UNL     1      -7.468   5.370  63.827  1.00  0.00    -0.060 C  
HETATM   47  C   UNL     1      -5.201   6.275  63.306  1.00  0.00    -0.018 C  
HETATM   48  C   UNL     1      -6.269   5.236  63.240  1.00  0.00    -0.022 C  
BRANCH  46  49
HETATM   49  C   UNL     1      -8.556   4.330  63.683  1.00  0.00    -0.110 C  
BRANCH  49  50
HETATM   50  N   UNL     1      -8.279   3.341  62.636  1.00  0.00    -0.073 NA 
HETATM   51  H   UNL     1      -7.307   3.036  62.660  1.00  0.00     0.000 HD 
BRANCH  50  52
HETATM   52  C   UNL     1      -9.206   2.198  62.715  1.00  0.00    -0.090 C  
BRANCH  52  53
HETATM   53  C   UNL     1     -10.661   2.672  62.675  1.00  0.00    -0.152 C  
HETATM   54  O   UNL     1     -11.383   2.174  63.799  1.00  0.00    -0.609 OA 
HETATM   55  H   UNL     1     -12.286   2.468  63.773  1.00  0.00     0.000 HD 
ENDBRANCH  52  53
ENDBRANCH  50  52
ENDBRANCH  49  50
ENDBRANCH  46  49
ENDBRANCH  39  40
ENDBRANCH  26  39
ENDBRANCH  15  16
ENDBRANCH   6  15
ENDBRANCH   2   4
TORSDOF 13
ENDMDL
MODEL      166
REMARK 921   NORMALIZED FREE ENERGY PREDICTED BY IDOCK:   -1.90 KCAL/MOL
REMARK 922        TOTAL FREE ENERGY PREDICTED BY IDOCK:   -6.80 KCAL/MOL
REMARK 923 INTER-LIGAND FREE ENERGY PREDICTED BY IDOCK:   -6.57 KCAL/MOL
REMARK 924 INTRA-LIGAND FREE ENERGY PREDICTED BY IDOCK:   -0.23 KCAL/MOL
REMARK 927      BINDING AFFINITY PREDICTED BY RF-SCORE:    0.00 PKD
ROOT
HETATM    1  C   UNL     1      -8.796  11.207  67.601  1.00  0.00    -0.136 C  
HETATM    2  N   UNL     1      -9.283  11.427  68.960  1.00  0.00    -0.400 NA 
HETATM    3  H   UNL     1      -8.518  11.736  69.559  1.00  0.00     0.000 HD 
ENDROOT
BRANCH   2   4
HETATM    4  C   UNL     1     -10.441  12.363  69.086  1.00  0.00     0.098 C  
HETATM    5  C   UNL     1     -10.061  13.681  69.807  1.00  0.00     1.069 C  
HETATM    6  C   UNL     1     -11.251  14.666  69.750  1.00  0.00    -0.259 C  
HETATM    7  O   UNL     1      -8.881  14.257  69.242  1.00  0.00    -0.375 OA 
HETATM    8  H   UNL     1      -8.649  15.065  69.685  1.00  0.00     0.000 HD 
HETATM    9  O   UNL     1     -11.568  11.298  71.004  1.00  0.00    -0.239 OA 
HETATM   10  O   UNL     1     -12.368  14.079  70.418  1.00  0.00    -0.321 OA 
HETATM   11  H   UNL     1     -12.378  10.954  71.360  1.00  0.00     0.000 HD 
HETATM   12  C   UNL     1     -12.849  12.904  69.742  1.00  0.00     0.702 C  
HETATM   13  C   UNL     1     -12.325  10.635  68.835  1.00  0.00     0.328 C  
HETATM   14  C   UNL     1     -11.776  11.795  69.673  1.00  0.00    -0.344 C  
BRANCH   6  15
HETATM   15  O   UNL     1     -11.571  14.995  68.396  1.00  0.00    -0.309 OA 
BRANCH  15  16
HETATM   16  C   UNL     1     -10.895  14.235  67.381  1.00  0.00    -0.285 C  
HETATM   17  H1  UNL     1      -9.966  15.954  63.372  1.00  0.00     0.000 HD 
HETATM   18  C   UNL     1     -11.814  13.746  66.238  1.00  0.00    -0.398 C  
HETATM   19  C   UNL     1      -9.769  15.145  66.817  1.00  0.00    -0.242 C  
HETATM   20  H2  UNL     1     -11.346  15.044  63.037  1.00  0.00     0.000 HD 
HETATM   21  C   UNL     1     -11.339  15.912  64.925  1.00  0.00    -0.256 C  
HETATM   22  C   UNL     1     -12.405  14.958  65.496  1.00  0.00     0.078 C  
HETATM   23  O   UNL     1      -8.870  14.368  65.996  1.00  0.00    -0.438 OA 
HETATM   24  H   UNL     1      -8.182  14.925  65.651  1.00  0.00     0.000 HD 
HETATM   25  N   UNL     1     -10.672  15.323  63.750  1.00  0.00     1.330 NA 
HETATM   26  C   UNL     1     -10.338  16.362  66.032  1.00  0.00    -0.352 C  
BRANCH  18  27
HETATM   27  N   UNL     1     -11.118  12.816  65.347  1.00  0.00    -0.279 N  
HETATM   28  H   UNL     1     -10.136  12.610  65.530  1.00  0.00     0.000 HD 
HETATM   29  C   UNL     1     -11.726  12.207  64.273  1.00  0.00    -0.373 C  
HETATM   30  O   UNL     1     -12.906  12.359  63.975  1.00  0.00    -0.717 OA 
BRANCH  29  31
HETATM   31  C   UNL     1     -10.803  11.275  63.472  1.00  0.00    -0.294 C  
HETATM   32  H   UNL     1      -9.197  11.446  62.336  1.00  0.00     0.000 HD 
HETATM   33  O   UNL     1      -9.768  12.023  62.832  1.00  0.00    -0.334 OA 
BRANCH  31  34
HETATM   34  C   UNL     1     -10.157  10.230  64.381  1.00  0.00    -0.242 C  
BRANCH  34  35
HETATM   35  C   UNL     1      -8.687  10.001  64.030  1.00  0.00    -0.208 C  
HETATM   36  H1  UNL     1      -7.138   8.803  64.640  1.00  0.00     0.000 HD 
HETATM   37  H2  UNL     1      -8.660   8.093  64.826  1.00  0.00     0.000 HD 
HETATM   38  N   UNL     1      -8.119   8.956  64.874  1.00  0.00    -0.135 NA 
ENDBRANCH  34  35
ENDBRANCH  31  34
ENDBRANCH  29  31
ENDBRANCH  18  27
BRANCH  26  39
HETATM   39  O   UNL     1     -11.064  17.291  66.833  1.00  0.00     0.048 OA 
BRANCH  39  40
HETATM   40  C   UNL     1     -10.330  18.230  67.625  1.00  0.00    -0.396 C  
HETATM   41  H1  UNL     1     -10.609  20.503  65.008  1.00  0.00     0.000 HD 
HETATM   42  O   UNL     1      -8.965  17.830  67.784  1.00  0.00    -0.243 OA 
HETATM   43  H2  UNL     1     -11.211  18.946  65.118  1.00  0.00     0.000 HD 
HETATM   44  N   UNL     1     -10.499  19.594  65.457  1.00  0.00    -0.462 NA 
HETATM   45  C   UNL     1     -10.498  19.625  66.936  1.00  0.00    -0.488 C  
HETATM   46  C   UNL     1      -8.176  18.777  68.415  1.00  0.00    -0.341 C  
HETATM   47  C   UNL     1      -9.524  20.669  67.502  1.00  0.00    -0.479 C  
HETATM   48  C   UNL     1      -8.413  20.094  68.314  1.00  0.00    -0.080 C  
BRANCH  46  49
HETATM   49  C   UNL     1      -6.998  18.228  69.188  1.00  0.00    -0.217 C  
BRANCH  49  50
HETATM   50  N   UNL     1      -6.971  16.764  69.243  1.00  0.00    -0.231 NA 
HETATM   51  H   UNL     1      -7.729  16.356  68.695  1.00  0.00     0.000 HD 
BRANCH  50  52
HETATM   52  C   UNL     1      -5.661  16.232  68.829  1.00  0.00    -0.109 C  
BRANCH  52  53
HETATM   53  C   UNL     1      -5.768  15.494  67.493  1.00  0.00    -0.027 C  
HETATM   54  O   UNL     1      -6.353  14.207  67.676  1.00  0.00    -0.214 OA 
HETATM   55  H   UNL     1      -6.419  13.748  66.846  1.00  0.00     0.000 HD 
ENDBRANCH  52  53
ENDBRANCH  50  52
ENDBRANCH  49  50
ENDBRANCH  46  49
ENDBRANCH  39  40
ENDBRANCH  26  39
ENDBRANCH  15  16
ENDBRANCH   6  15
ENDBRANCH   2   4
TORSDOF 13
ENDMDL
MODEL      167
REMARK 921   NORMALIZED FREE ENERGY PREDICTED BY IDOCK:   -1.89 KCAL/MOL
REMARK 922        TOTAL FREE ENERGY PREDICTED BY IDOCK:   -6.78 KCAL/MOL
REMARK 923 INTER-LIGAND FREE ENERGY PREDICTED BY IDOCK:   -7.95 KCAL/MOL
REMARK 924 INTRA-LIGAND FREE ENERGY PREDICTED BY IDOCK:    1.16 KCAL/MOL
REMARK 927      BINDING AFFINITY PREDICTED BY RF-SCORE:    0.00 PKD
ROOT
HETATM    1  C   UNL     1      -9.506  11.608  67.701  1.00  0.00    -0.177 C  
HETATM    2  N   UNL     1      -8.408  11.487  68.656  1.00  0.00    -0.247 NA 
HETATM    3  H   UNL     1      -8.734  11.719  69.594  1.00  0.00     0.000 HD 
ENDROOT
BRANCH   2   4
HETATM    4  C   UNL     1      -7.708  10.167  68.670  1.00  0.00    -0.092 C  
HETATM    5  C   UNL     1      -7.418   9.665  70.107  1.00  0.00    -0.153 C  
HETATM    6  C   UNL     1      -6.855   8.228  70.052  1.00  0.00    -0.043 C  
HETATM    7  O   UNL     1      -8.590   9.734  70.923  1.00  0.00    -0.363 OA 
HETATM    8  H   UNL     1      -8.412   9.426  71.805  1.00  0.00     0.000 HD 
HETATM    9  O   UNL     1      -5.425  10.955  68.173  1.00  0.00    -0.040 OA 
HETATM   10  O   UNL     1      -5.634   8.239  69.311  1.00  0.00    -0.030 OA 
HETATM   11  H   UNL     1      -4.650  10.860  67.632  1.00  0.00     0.000 HD 
HETATM   12  C   UNL     1      -5.838   8.592  67.932  1.00  0.00    -0.043 C  
HETATM   13  C   UNL     1      -6.732  10.256  66.296  1.00  0.00    -0.105 C  
HETATM   14  C   UNL     1      -6.431  10.009  67.779  1.00  0.00    -0.066 C  
BRANCH   6  15
HETATM   15  O   UNL     1      -7.805   7.333  69.470  1.00  0.00    -0.113 OA 
BRANCH  15  16
HETATM   16  C   UNL     1      -8.043   7.487  68.060  1.00  0.00    -0.124 C  
HETATM   17  H1  UNL     1     -11.190   5.154  65.928  1.00  0.00     0.000 HD 
HETATM   18  C   UNL     1      -7.511   6.321  67.196  1.00  0.00    -0.084 C  
HETATM   19  C   UNL     1      -9.579   7.636  67.881  1.00  0.00    -0.144 C  
HETATM   20  H2  UNL     1      -9.799   4.289  65.527  1.00  0.00     0.000 HD 
HETATM   21  C   UNL     1      -9.769   5.106  67.438  1.00  0.00    -0.152 C  
HETATM   22  C   UNL     1      -8.238   5.020  67.579  1.00  0.00    -0.106 C  
HETATM   23  O   UNL     1      -9.879   8.072  66.537  1.00  0.00    -0.266 OA 
HETATM   24  H   UNL     1     -10.819   8.163  66.427  1.00  0.00     0.000 HD 
HETATM   25  N   UNL     1     -10.176   5.098  66.021  1.00  0.00    -0.197 NA 
HETATM   26  C   UNL     1     -10.339   6.323  68.228  1.00  0.00    -0.194 C  
BRANCH  18  27
HETATM   27  N   UNL     1      -7.600   6.625  65.767  1.00  0.00    -0.082 N  
HETATM   28  H   UNL     1      -8.282   7.318  65.459  1.00  0.00     0.000 HD 
HETATM   29  C   UNL     1      -6.808   6.019  64.818  1.00  0.00    -0.047 C  
HETATM   30  O   UNL     1      -5.938   5.194  65.077  1.00  0.00    -0.024 OA 
BRANCH  29  31
HETATM   31  C   UNL     1      -7.079   6.487  63.379  1.00  0.00    -0.055 C  
HETATM   32  H   UNL     1      -8.484   6.246  62.015  1.00  0.00     0.000 HD 
HETATM   33  O   UNL     1      -8.317   5.957  62.904  1.00  0.00    -0.106 OA 
BRANCH  31  34
HETATM   34  C   UNL     1      -7.140   8.012  63.301  1.00  0.00    -0.087 C  
BRANCH  34  35
HETATM   35  C   UNL     1      -8.431   8.496  62.640  1.00  0.00    -0.132 C  
HETATM   36  H1  UNL     1      -9.837   9.961  62.925  1.00  0.00     0.000 HD 
HETATM   37  H2  UNL     1      -8.293  10.389  63.460  1.00  0.00     0.000 HD 
HETATM   38  N   UNL     1      -8.976   9.638  63.365  1.00  0.00    -0.238 NA 
ENDBRANCH  34  35
ENDBRANCH  31  34
ENDBRANCH  29  31
ENDBRANCH  18  27
BRANCH  26  39
HETATM   39  O   UNL     1     -10.260   5.944  69.601  1.00  0.00    -0.182 OA 
BRANCH  39  40
HETATM   40  C   UNL     1     -10.627   6.905  70.595  1.00  0.00    -0.222 C  
HETATM   41  H1  UNL     1      -9.181   4.834  72.985  1.00  0.00     0.000 HD 
HETATM   42  O   UNL     1     -12.045   6.955  70.782  1.00  0.00    -0.374 OA 
HETATM   43  H2  UNL     1      -9.279   4.621  71.329  1.00  0.00     0.000 HD 
HETATM   44  N   UNL     1      -9.696   5.078  72.140  1.00  0.00    -0.156 NA 
HETATM   45  C   UNL     1      -9.836   6.530  71.893  1.00  0.00    -0.157 C  
HETATM   46  C   UNL     1     -12.440   7.760  71.838  1.00  0.00    -0.314 C  
HETATM   47  C   UNL     1     -10.353   7.289  73.124  1.00  0.00    -0.359 C  
HETATM   48  C   UNL     1     -11.679   7.944  72.927  1.00  0.00    -0.239 C  
BRANCH  46  49
HETATM   49  C   UNL     1     -13.812   8.381  71.700  1.00  0.00    -0.379 C  
BRANCH  49  50
HETATM   50  N   UNL     1     -13.823   9.582  70.858  1.00  0.00    -0.474 NA 
HETATM   51  H   UNL     1     -14.767   9.953  70.752  1.00  0.00     0.000 HD 
BRANCH  50  52
HETATM   52  C   UNL     1     -12.895  10.606  71.368  1.00  0.00    -0.451 C  
BRANCH  52  53
HETATM   53  C   UNL     1     -12.015  11.154  70.242  1.00  0.00    -0.373 C  
HETATM   54  O   UNL     1     -12.535  10.776  68.969  1.00  0.00    -0.757 OA 
HETATM   55  H   UNL     1     -11.989  11.116  68.270  1.00  0.00     0.000 HD 
ENDBRANCH  52  53
ENDBRANCH  50  52
ENDBRANCH  49  50
ENDBRANCH  46  49
ENDBRANCH  39  40
ENDBRANCH  26  39
ENDBRANCH  15  16
ENDBRANCH   6  15
ENDBRANCH   2   4
TORSDOF 13
ENDMDL
MODEL      168
REMARK 921   NORMALIZED FREE ENERGY PREDICTED BY IDOCK:   -1.81 KCAL/MOL
REMARK 922        TOTAL FREE ENERGY PREDICTED BY IDOCK:   -6.65 KCAL/MOL
REMARK 923 INTER-LIGAND FREE ENERGY PREDICTED BY IDOCK:   -8.29 KCAL/MOL
REMARK 924 INTRA-LIGAND FREE ENERGY PREDICTED BY IDOCK:    1.64 KCAL/MOL
REMARK 927      BINDING AFFINITY PREDICTED BY RF-SCORE:    0.00 PKD
ROOT
HETATM    1  C   UNL     1     -11.782  13.784  69.606  1.00  0.00    -0.318 C  
HETATM    2  N   UNL     1     -11.767  12.560  70.402  1.00  0.00    -0.539 NA 
HETATM    3  H   UNL     1     -12.708  12.353  70.739  1.00  0.00     0.000 HD 
ENDROOT
BRANCH   2   4
HETATM    4  C   UNL     1     -11.190  11.359  69.727  1.00  0.00    -0.192 C  
HETATM    5  C   UNL     1     -11.462  11.347  68.202  1.00  0.00    -0.305 C  
HETATM    6  C   UNL     1     -10.695  10.177  67.546  1.00  0.00    -0.290 C  
HETATM    7  O   UNL     1     -11.111  12.598  67.606  1.00  0.00    -0.241 OA 
HETATM    8  H   UNL     1     -11.277  12.591  66.671  1.00  0.00     0.000 HD 
HETATM    9  O   UNL     1     -12.927   9.721  70.343  1.00  0.00    -0.545 OA 
HETATM   10  O   UNL     1     -11.160   8.949  68.108  1.00  0.00     0.040 OA 
HETATM   11  H   UNL     1     -13.122   8.869  70.715  1.00  0.00     0.000 HD 
HETATM   12  C   UNL     1     -10.846   8.838  69.507  1.00  0.00    -0.142 C  
HETATM   13  C   UNL     1     -11.027   9.837  71.790  1.00  0.00     0.231 C  
HETATM   14  C   UNL     1     -11.511   9.955  70.340  1.00  0.00    -0.301 C  
BRANCH   6  15
HETATM   15  O   UNL     1      -9.285  10.329  67.729  1.00  0.00    -0.140 OA 
BRANCH  15  16
HETATM   16  C   UNL     1      -8.830  11.646  68.086  1.00  0.00    -0.164 C  
HETATM   17  H1  UNL     1      -5.034  13.345  66.476  1.00  0.00     0.000 HD 
HETATM   18  C   UNL     1      -7.651  11.659  69.085  1.00  0.00     0.044 C  
HETATM   19  C   UNL     1      -8.424  12.350  66.762  1.00  0.00    -0.095 C  
HETATM   20  H2  UNL     1      -4.552  12.839  68.011  1.00  0.00     0.000 HD 
HETATM   21  C   UNL     1      -5.982  11.618  67.124  1.00  0.00    -0.127 C  
HETATM   22  C   UNL     1      -6.427  10.976  68.452  1.00  0.00    -0.057 C  
HETATM   23  O   UNL     1      -8.220  13.761  66.996  1.00  0.00    -0.340 OA 
HETATM   24  H   UNL     1      -7.972  14.192  66.186  1.00  0.00     0.000 HD 
HETATM   25  N   UNL     1      -5.328  12.920  67.355  1.00  0.00    -0.321 NA 
HETATM   26  C   UNL     1      -7.166  11.702  66.115  1.00  0.00     0.356 C  
BRANCH  18  27
HETATM   27  N   UNL     1      -7.365  13.013  69.563  1.00  0.00    -0.239 N  
HETATM   28  H   UNL     1      -7.960  13.777  69.243  1.00  0.00     0.000 HD 
HETATM   29  C   UNL     1      -6.331  13.304  70.424  1.00  0.00     0.129 C  
HETATM   30  O   UNL     1      -5.573  12.462  70.893  1.00  0.00    -0.227 OA 
BRANCH  29  31
HETATM   31  C   UNL     1      -6.213  14.793  70.786  1.00  0.00    -0.025 C  
HETATM   32  H   UNL     1      -5.291  15.887  72.145  1.00  0.00     0.000 HD 
HETATM   33  O   UNL     1      -5.364  14.967  71.921  1.00  0.00    -0.101 OA 
BRANCH  31  34
HETATM   34  C   UNL     1      -5.639  15.597  69.620  1.00  0.00    -0.117 C  
BRANCH  34  35
HETATM   35  C   UNL     1      -6.692  16.503  68.981  1.00  0.00    -0.200 C  
HETATM   36  H1  UNL     1      -8.714  16.491  68.640  1.00  0.00     0.000 HD 
HETATM   37  H2  UNL     1      -8.254  15.640  70.025  1.00  0.00     0.000 HD 
HETATM   38  N   UNL     1      -8.011  15.887  69.066  1.00  0.00    -0.208 NA 
ENDBRANCH  34  35
ENDBRANCH  31  34
ENDBRANCH  29  31
ENDBRANCH  18  27
BRANCH  26  39
HETATM   39  O   UNL     1      -7.362  10.364  65.662  1.00  0.00    -0.143 OA 
BRANCH  39  40
HETATM   40  C   UNL     1      -8.470  10.092  64.798  1.00  0.00    -0.173 C  
HETATM   41  H1  UNL     1      -6.215   9.769  62.171  1.00  0.00     0.000 HD 
HETATM   42  O   UNL     1      -9.286  11.252  64.606  1.00  0.00    -0.176 OA 
HETATM   43  H2  UNL     1      -5.912  10.093  63.785  1.00  0.00     0.000 HD 
HETATM   44  N   UNL     1      -6.604  10.143  63.037  1.00  0.00    -0.132 NA 
HETATM   45  C   UNL     1      -7.873   9.518  63.470  1.00  0.00    -0.134 C  
HETATM   46  C   UNL     1     -10.285  11.082  63.661  1.00  0.00    -0.372 C  
HETATM   47  C   UNL     1      -8.916   9.461  62.345  1.00  0.00    -0.258 C  
HETATM   48  C   UNL     1     -10.150  10.256  62.613  1.00  0.00     0.413 C  
BRANCH  46  49
HETATM   49  C   UNL     1     -11.521  11.928  63.866  1.00  0.00    -0.426 C  
BRANCH  49  50
HETATM   50  N   UNL     1     -11.324  13.337  63.514  1.00  0.00    -0.593 NA 
HETATM   51  H   UNL     1     -11.894  13.604  62.712  1.00  0.00     0.000 HD 
BRANCH  50  52
HETATM   52  C   UNL     1     -11.570  14.221  64.668  1.00  0.00    -0.408 C  
BRANCH  52  53
HETATM   53  C   UNL     1     -12.477  15.390  64.276  1.00  0.00     0.066 C  
HETATM   54  O   UNL     1     -11.720  16.432  63.667  1.00  0.00    -1.520 OA 
HETATM   55  H   UNL     1     -12.283  17.157  63.424  1.00  0.00     0.000 HD 
ENDBRANCH  52  53
ENDBRANCH  50  52
ENDBRANCH  49  50
ENDBRANCH  46  49
ENDBRANCH  39  40
ENDBRANCH  26  39
ENDBRANCH  15  16
ENDBRANCH   6  15
ENDBRANCH   2   4
TORSDOF 13
ENDMDL
MODEL      169
REMARK 921   NORMALIZED FREE ENERGY PREDICTED BY IDOCK:   -1.81 KCAL/MOL
REMARK 922        TOTAL FREE ENERGY PREDICTED BY IDOCK:   -6.64 KCAL/MOL
REMARK 923 INTER-LIGAND FREE ENERGY PREDICTED BY IDOCK:   -5.75 KCAL/MOL
REMARK 924 INTRA-LIGAND FREE ENERGY PREDICTED BY IDOCK:   -0.89 KCAL/MOL
REMARK 927      BINDING AFFINITY PREDICTED BY RF-SCORE:    0.00 PKD
ROOT
HETATM    1  C   UNL     1     -12.241  14.091  70.911  1.00  0.00    -0.362 C  
HETATM    2  N   UNL     1     -12.529  13.139  69.843  1.00  0.00    -0.108 NA 
HETATM    3  H   UNL     1     -12.351  13.568  68.935  1.00  0.00     0.000 HD 
ENDROOT
BRANCH   2   4
HETATM    4  C   UNL     1     -11.814  11.830  69.937  1.00  0.00    -0.348 C  
HETATM    5  C   UNL     1     -11.312  11.329  68.559  1.00  0.00    -0.276 C  
HETATM    6  C   UNL     1     -10.439  10.068  68.752  1.00  0.00    -0.208 C  
HETATM    7  O   UNL     1     -10.598  12.355  67.866  1.00  0.00    -0.204 OA 
HETATM    8  H   UNL     1     -10.290  12.048  67.022  1.00  0.00     0.000 HD 
HETATM    9  O   UNL     1     -13.779  10.347  70.085  1.00  0.00    -0.109 OA 
HETATM   10  O   UNL     1     -11.232   9.045  69.355  1.00  0.00    -0.060 OA 
HETATM   11  H   UNL     1     -14.210   9.641  70.551  1.00  0.00     0.000 HD 
HETATM   12  C   UNL     1     -11.648   9.394  70.686  1.00  0.00    -0.269 C  
HETATM   13  C   UNL     1     -12.819  11.035  72.164  1.00  0.00    -0.124 C  
HETATM   14  C   UNL     1     -12.524  10.666  70.705  1.00  0.00    -0.385 C  
BRANCH   6  15
HETATM   15  O   UNL     1      -9.287  10.366  69.545  1.00  0.00    -0.198 OA 
BRANCH  15  16
HETATM   16  C   UNL     1      -8.214   9.411  69.489  1.00  0.00    -0.124 C  
HETATM   17  H1  UNL     1      -4.305  10.369  67.567  1.00  0.00     0.000 HD 
HETATM   18  C   UNL     1      -8.004   8.775  68.096  1.00  0.00    -0.106 C  
HETATM   19  C   UNL     1      -6.929  10.158  69.941  1.00  0.00    -0.133 C  
HETATM   20  H2  UNL     1      -5.067   9.478  66.354  1.00  0.00     0.000 HD 
HETATM   21  C   UNL     1      -6.356  10.658  67.480  1.00  0.00    -0.057 C  
HETATM   22  C   UNL     1      -7.617   9.866  67.082  1.00  0.00    -0.092 C  
HETATM   23  O   UNL     1      -5.865   9.211  70.180  1.00  0.00    -0.030 OA 
HETATM   24  H   UNL     1      -5.079   9.668  70.456  1.00  0.00     0.000 HD 
HETATM   25  N   UNL     1      -5.139   9.845  67.303  1.00  0.00    -0.038 NA 
HETATM   26  C   UNL     1      -6.493  11.246  68.917  1.00  0.00    -0.063 C  
BRANCH  18  27
HETATM   27  N   UNL     1      -7.040   7.675  68.145  1.00  0.00    -0.078 N  
HETATM   28  H   UNL     1      -6.310   7.636  67.433  1.00  0.00     0.000 HD 
HETATM   29  C   UNL     1      -7.071   6.690  69.105  1.00  0.00    -0.088 C  
HETATM   30  O   UNL     1      -7.884   6.652  70.023  1.00  0.00    -0.106 OA 
BRANCH  29  31
HETATM   31  C   UNL     1      -5.966   5.631  68.958  1.00  0.00    -0.024 C  
HETATM   32  H   UNL     1      -5.233   4.141  70.024  1.00  0.00     0.000 HD 
HETATM   33  O   UNL     1      -5.916   4.795  70.115  1.00  0.00    -0.019 OA 
BRANCH  31  34
HETATM   34  C   UNL     1      -6.210   4.752  67.732  1.00  0.00    -0.035 C  
BRANCH  34  35
HETATM   35  C   UNL     1      -7.679   4.349  67.604  1.00  0.00    -0.084 C  
HETATM   36  H1  UNL     1      -9.181   4.469  66.213  1.00  0.00     0.000 HD 
HETATM   37  H2  UNL     1      -7.636   4.363  65.537  1.00  0.00     0.000 HD 
HETATM   38  N   UNL     1      -8.201   4.738  66.299  1.00  0.00    -0.107 NA 
ENDBRANCH  34  35
ENDBRANCH  31  34
ENDBRANCH  29  31
ENDBRANCH  18  27
BRANCH  26  39
HETATM   39  O   UNL     1      -7.408  12.332  68.788  1.00  0.00    -0.109 OA 
BRANCH  39  40
HETATM   40  C   UNL     1      -6.891  13.625  68.459  1.00  0.00    -0.098 C  
HETATM   41  H1  UNL     1      -5.738  13.883  71.730  1.00  0.00     0.000 HD 
HETATM   42  O   UNL     1      -7.940  14.570  68.232  1.00  0.00    -0.122 OA 
HETATM   43  H2  UNL     1      -6.548  12.616  70.996  1.00  0.00     0.000 HD 
HETATM   44  N   UNL     1      -6.369  13.620  70.973  1.00  0.00     0.029 NA 
HETATM   45  C   UNL     1      -5.923  14.028  69.622  1.00  0.00    -0.115 C  
HETATM   46  C   UNL     1      -7.493  15.870  68.059  1.00  0.00    -0.126 C  
HETATM   47  C   UNL     1      -5.528  15.510  69.555  1.00  0.00    -0.106 C  
HETATM   48  C   UNL     1      -6.378  16.331  68.646  1.00  0.00    -0.124 C  
BRANCH  46  49
HETATM   49  C   UNL     1      -8.373  16.748  67.199  1.00  0.00    -0.183 C  
BRANCH  49  50
HETATM   50  N   UNL     1      -8.143  18.181  67.406  1.00  0.00    -0.225 NA 
HETATM   51  H   UNL     1      -7.416  18.345  68.102  1.00  0.00     0.000 HD 
BRANCH  50  52
HETATM   52  C   UNL     1      -7.841  18.868  66.138  1.00  0.00    -0.250 C  
BRANCH  52  53
HETATM   53  C   UNL     1      -7.926  20.387  66.307  1.00  0.00    -0.077 C  
HETATM   54  O   UNL     1      -6.637  20.980  66.172  1.00  0.00    -0.410 OA 
HETATM   55  H   UNL     1      -6.689  21.923  66.277  1.00  0.00     0.000 HD 
ENDBRANCH  52  53
ENDBRANCH  50  52
ENDBRANCH  49  50
ENDBRANCH  46  49
ENDBRANCH  39  40
ENDBRANCH  26  39
ENDBRANCH  15  16
ENDBRANCH   6  15
ENDBRANCH   2   4
TORSDOF 13
ENDMDL
MODEL      170
REMARK 921   NORMALIZED FREE ENERGY PREDICTED BY IDOCK:   -1.76 KCAL/MOL
REMARK 922        TOTAL FREE ENERGY PREDICTED BY IDOCK:   -6.56 KCAL/MOL
REMARK 923 INTER-LIGAND FREE ENERGY PREDICTED BY IDOCK:   -7.02 KCAL/MOL
REMARK 924 INTRA-LIGAND FREE ENERGY PREDICTED BY IDOCK:    0.46 KCAL/MOL
REMARK 927      BINDING AFFINITY PREDICTED BY RF-SCORE:    0.00 PKD
ROOT
HETATM    1  C   UNL     1      -8.473   8.850  64.836  1.00  0.00    -0.178 C  
HETATM    2  N   UNL     1      -7.501   8.820  65.925  1.00  0.00    -0.088 NA 
HETATM    3  H   UNL     1      -6.669   9.350  65.665  1.00  0.00     0.000 HD 
ENDROOT
BRANCH   2   4
HETATM    4  C   UNL     1      -8.007   9.284  67.252  1.00  0.00    -0.106 C  
HETATM    5  C   UNL     1      -7.228  10.511  67.788  1.00  0.00    -0.085 C  
HETATM    6  C   UNL     1      -7.909  11.040  69.070  1.00  0.00    -0.126 C  
HETATM    7  O   UNL     1      -7.128  11.533  66.793  1.00  0.00    -0.168 OA 
HETATM    8  H   UNL     1      -6.650  12.285  67.122  1.00  0.00     0.000 HD 
HETATM    9  O   UNL     1      -6.903   7.598  68.675  1.00  0.00    -0.062 OA 
HETATM   10  O   UNL     1      -7.889  10.011  70.061  1.00  0.00    -0.166 OA 
HETATM   11  H   UNL     1      -7.001   6.949  69.362  1.00  0.00     0.000 HD 
HETATM   12  C   UNL     1      -8.684   8.875  69.681  1.00  0.00    -0.140 C  
HETATM   13  C   UNL     1      -9.138   7.097  67.986  1.00  0.00    -0.132 C  
HETATM   14  C   UNL     1      -8.167   8.214  68.384  1.00  0.00    -0.129 C  
BRANCH   6  15
HETATM   15  O   UNL     1      -9.245  11.468  68.795  1.00  0.00    -0.161 OA 
BRANCH  15  16
HETATM   16  C   UNL     1      -9.431  12.234  67.593  1.00  0.00    -0.188 C  
HETATM   17  H1  UNL     1     -12.550  15.406  67.278  1.00  0.00     0.000 HD 
HETATM   18  C   UNL     1     -10.680  11.836  66.774  1.00  0.00    -0.253 C  
HETATM   19  C   UNL     1      -9.521  13.724  68.025  1.00  0.00    -0.207 C  
HETATM   20  H2  UNL     1     -13.299  14.118  66.489  1.00  0.00     0.000 HD 
HETATM   21  C   UNL     1     -12.090  13.551  68.081  1.00  0.00    -0.255 C  
HETATM   22  C   UNL     1     -11.948  12.092  67.607  1.00  0.00    -0.149 C  
HETATM   23  O   UNL     1      -9.428  14.581  66.865  1.00  0.00    -0.231 OA 
HETATM   24  H   UNL     1      -9.483  15.492  67.129  1.00  0.00     0.000 HD 
HETATM   25  N   UNL     1     -12.457  14.441  66.964  1.00  0.00    -0.112 NA 
HETATM   26  C   UNL     1     -10.812  14.021  68.840  1.00  0.00    -0.258 C  
BRANCH  18  27
HETATM   27  N   UNL     1     -10.707  12.505  65.473  1.00  0.00    -0.265 N  
HETATM   28  H   UNL     1      -9.861  12.973  65.149  1.00  0.00     0.000 HD 
HETATM   29  C   UNL     1     -11.821  12.534  64.665  1.00  0.00    -0.378 C  
HETATM   30  O   UNL     1     -12.882  11.983  64.940  1.00  0.00    -0.376 OA 
BRANCH  29  31
HETATM   31  C   UNL     1     -11.624  13.300  63.347  1.00  0.00    -0.155 C  
HETATM   32  H   UNL     1     -12.761  14.030  61.908  1.00  0.00     0.000 HD 
HETATM   33  O   UNL     1     -12.883  13.557  62.723  1.00  0.00    -0.304 OA 
BRANCH  31  34
HETATM   34  C   UNL     1     -10.919  14.634  63.588  1.00  0.00     1.787 C  
BRANCH  34  35
HETATM   35  C   UNL     1     -11.752  15.566  64.469  1.00  0.00    -0.253 C  
HETATM   36  H1  UNL     1     -11.900  17.574  64.856  1.00  0.00     0.000 HD 
HETATM   37  H2  UNL     1     -11.385  17.222  63.286  1.00  0.00     0.000 HD 
HETATM   38  N   UNL     1     -11.345  16.952  64.269  1.00  0.00    -1.103 NA 
ENDBRANCH  34  35
ENDBRANCH  31  34
ENDBRANCH  29  31
ENDBRANCH  18  27
BRANCH  26  39
HETATM   39  O   UNL     1     -10.871  13.367  70.106  1.00  0.00     0.450 OA 
BRANCH  39  40
HETATM   40  C   UNL     1     -12.135  12.873  70.560  1.00  0.00    -0.282 C  
HETATM   41  H1  UNL     1     -12.191  15.450  72.895  1.00  0.00     0.000 HD 
HETATM   42  O   UNL     1     -12.000  11.612  71.223  1.00  0.00    -0.018 OA 
HETATM   43  H2  UNL     1     -11.036  15.106  71.734  1.00  0.00     0.000 HD 
HETATM   44  N   UNL     1     -11.786  14.720  72.308  1.00  0.00    -0.264 NA 
HETATM   45  C   UNL     1     -12.757  13.992  71.460  1.00  0.00    -0.363 C  
HETATM   46  C   UNL     1     -13.172  11.163  71.812  1.00  0.00    -0.381 C  
HETATM   47  C   UNL     1     -13.969  13.486  72.255  1.00  0.00    -0.638 C  
HETATM   48  C   UNL     1     -14.104  12.002  72.288  1.00  0.00     0.526 C  
BRANCH  46  49
HETATM   49  C   UNL     1     -13.305   9.661  71.924  1.00  0.00    -0.438 C  
BRANCH  49  50
HETATM   50  N   UNL     1     -12.178   8.933  71.336  1.00  0.00    -0.308 NA 
HETATM   51  H   UNL     1     -11.293   9.408  71.514  1.00  0.00     0.000 HD 
BRANCH  50  52
HETATM   52  C   UNL     1     -12.140   7.533  71.797  1.00  0.00    -0.308 C  
BRANCH  52  53
HETATM   53  C   UNL     1     -11.245   7.389  73.030  1.00  0.00    -0.297 C  
HETATM   54  O   UNL     1     -11.175   6.027  73.444  1.00  0.00    -0.455 OA 
HETATM   55  H   UNL     1     -10.620   5.938  74.209  1.00  0.00     0.000 HD 
ENDBRANCH  52  53
ENDBRANCH  50  52
ENDBRANCH  49  50
ENDBRANCH  46  49
ENDBRANCH  39  40
ENDBRANCH  26  39
ENDBRANCH  15  16
ENDBRANCH   6  15
ENDBRANCH   2   4
TORSDOF 13
ENDMDL
MODEL      171
REMARK 921   NORMALIZED FREE ENERGY PREDICTED BY IDOCK:   -1.75 KCAL/MOL
REMARK 922        TOTAL FREE ENERGY PREDICTED BY IDOCK:   -6.54 KCAL/MOL
REMARK 923 INTER-LIGAND FREE ENERGY PREDICTED BY IDOCK:   -6.80 KCAL/MOL
REMARK 924 INTRA-LIGAND FREE ENERGY PREDICTED BY IDOCK:    0.26 KCAL/MOL
REMARK 927      BINDING AFFINITY PREDICTED BY RF-SCORE:    0.00 PKD
ROOT
HETATM    1  C   UNL     1      -9.465  10.974  62.532  1.00  0.00    -0.225 C  
HETATM    2  N   UNL     1     -10.616  11.777  62.934  1.00  0.00    -0.639 NA 
HETATM    3  H   UNL     1     -11.472  11.380  62.544  1.00  0.00     0.000 HD 
ENDROOT
BRANCH   2   4
HETATM    4  C   UNL     1     -10.775  11.986  64.404  1.00  0.00    -0.323 C  
HETATM    5  C   UNL     1     -10.812  10.652  65.193  1.00  0.00     0.110 C  
HETATM    6  C   UNL     1     -10.803  10.944  66.710  1.00  0.00    -0.224 C  
HETATM    7  O   UNL     1      -9.725   9.802  64.820  1.00  0.00    -0.389 OA 
HETATM    8  H   UNL     1      -9.748   8.984  65.303  1.00  0.00     0.000 HD 
HETATM    9  O   UNL     1     -13.202  12.420  64.455  1.00  0.00    -0.834 OA 
HETATM   10  O   UNL     1     -11.964  11.709  67.039  1.00  0.00    -0.593 OA 
HETATM   11  H   UNL     1     -13.903  12.991  64.747  1.00  0.00     0.000 HD 
HETATM   12  C   UNL     1     -11.949  13.010  66.428  1.00  0.00    -0.402 C  
HETATM   13  C   UNL     1     -11.789  14.344  64.321  1.00  0.00    -0.385 C  
HETATM   14  C   UNL     1     -11.929  12.926  64.887  1.00  0.00    -0.392 C  
BRANCH   6  15
HETATM   15  O   UNL     1      -9.607  11.631  67.086  1.00  0.00    -0.174 OA 
BRANCH  15  16
HETATM   16  C   UNL     1      -8.905  11.104  68.226  1.00  0.00    -0.155 C  
HETATM   17  H1  UNL     1      -4.650  12.145  69.062  1.00  0.00     0.000 HD 
HETATM   18  C   UNL     1      -7.888   9.992  67.885  1.00  0.00    -0.090 C  
HETATM   19  C   UNL     1      -8.187  12.305  68.901  1.00  0.00     0.192 C  
HETATM   20  H2  UNL     1      -4.491  10.624  68.350  1.00  0.00     0.000 HD 
HETATM   21  C   UNL     1      -6.045  11.766  67.576  1.00  0.00    -0.092 C  
HETATM   22  C   UNL     1      -6.788  10.559  66.971  1.00  0.00    -0.087 C  
HETATM   23  O   UNL     1      -7.692  11.917  70.201  1.00  0.00     0.619 OA 
HETATM   24  H   UNL     1      -7.252  12.652  70.613  1.00  0.00     0.000 HD 
HETATM   25  N   UNL     1      -5.141  11.346  68.662  1.00  0.00    -0.043 NA 
HETATM   26  C   UNL     1      -7.045  12.879  68.013  1.00  0.00    -0.111 C  
BRANCH  18  27
HETATM   27  N   UNL     1      -7.355   9.360  69.093  1.00  0.00    -0.070 N  
HETATM   28  H   UNL     1      -7.231   9.933  69.927  1.00  0.00     0.000 HD 
HETATM   29  C   UNL     1      -7.013   8.028  69.157  1.00  0.00    -0.057 C  
HETATM   30  O   UNL     1      -7.145   7.241  68.226  1.00  0.00    -0.076 OA 
BRANCH  29  31
HETATM   31  C   UNL     1      -6.468   7.582  70.523  1.00  0.00    -0.038 C  
HETATM   32  H   UNL     1      -4.892   6.615  71.212  1.00  0.00     0.000 HD 
HETATM   33  O   UNL     1      -5.228   6.890  70.367  1.00  0.00    -0.018 OA 
BRANCH  31  34
HETATM   34  C   UNL     1      -6.243   8.783  71.442  1.00  0.00    -0.059 C  
BRANCH  34  35
HETATM   35  C   UNL     1      -5.964   8.353  72.882  1.00  0.00    -0.073 C  
HETATM   36  H1  UNL     1      -4.945   6.870  73.864  1.00  0.00     0.000 HD 
HETATM   37  H2  UNL     1      -4.270   7.284  72.372  1.00  0.00     0.000 HD 
HETATM   38  N   UNL     1      -5.131   7.157  72.903  1.00  0.00    -0.037 NA 
ENDBRANCH  34  35
ENDBRANCH  31  34
ENDBRANCH  29  31
ENDBRANCH  18  27
BRANCH  26  39
HETATM   39  O   UNL     1      -7.490  13.476  66.797  1.00  0.00     0.327 OA 
BRANCH  39  40
HETATM   40  C   UNL     1      -8.067  14.785  66.850  1.00  0.00    -0.048 C  
HETATM   41  H1  UNL     1      -5.121  15.913  68.314  1.00  0.00     0.000 HD 
HETATM   42  O   UNL     1      -9.140  14.849  67.794  1.00  0.00    -0.180 OA 
HETATM   43  H2  UNL     1      -5.511  14.375  67.784  1.00  0.00     0.000 HD 
HETATM   44  N   UNL     1      -5.883  15.266  68.111  1.00  0.00    -0.121 NA 
HETATM   45  C   UNL     1      -6.897  15.777  67.162  1.00  0.00    -0.135 C  
HETATM   46  C   UNL     1      -9.633  16.129  67.992  1.00  0.00    -0.220 C  
HETATM   47  C   UNL     1      -7.411  17.173  67.543  1.00  0.00    -0.180 C  
HETATM   48  C   UNL     1      -8.864  17.222  67.874  1.00  0.00    -0.235 C  
BRANCH  46  49
HETATM   49  C   UNL     1     -11.087  16.207  68.399  1.00  0.00    -0.359 C  
BRANCH  49  50
HETATM   50  N   UNL     1     -11.288  16.798  69.725  1.00  0.00    -0.263 NA 
HETATM   51  H   UNL     1     -11.484  17.796  69.663  1.00  0.00     0.000 HD 
BRANCH  50  52
HETATM   52  C   UNL     1     -12.337  16.088  70.479  1.00  0.00    -0.087 C  
BRANCH  52  53
HETATM   53  C   UNL     1     -11.878  14.677  70.855  1.00  0.00    -0.313 C  
HETATM   54  O   UNL     1     -12.798  14.075  71.762  1.00  0.00    -0.321 OA 
HETATM   55  H   UNL     1     -12.513  13.199  71.996  1.00  0.00     0.000 HD 
ENDBRANCH  52  53
ENDBRANCH  50  52
ENDBRANCH  49  50
ENDBRANCH  46  49
ENDBRANCH  39  40
ENDBRANCH  26  39
ENDBRANCH  15  16
ENDBRANCH   6  15
ENDBRANCH   2   4
TORSDOF 13
ENDMDL
MODEL      172
REMARK 921   NORMALIZED FREE ENERGY PREDICTED BY IDOCK:   -1.71 KCAL/MOL
REMARK 922        TOTAL FREE ENERGY PREDICTED BY IDOCK:   -6.47 KCAL/MOL
REMARK 923 INTER-LIGAND FREE ENERGY PREDICTED BY IDOCK:   -6.10 KCAL/MOL
REMARK 924 INTRA-LIGAND FREE ENERGY PREDICTED BY IDOCK:   -0.36 KCAL/MOL
REMARK 927      BINDING AFFINITY PREDICTED BY RF-SCORE:    0.00 PKD
ROOT
HETATM    1  C   UNL     1     -12.004  14.197  66.411  1.00  0.00    -0.436 C  
HETATM    2  N   UNL     1     -11.075  14.375  67.523  1.00  0.00    -0.292 NA 
HETATM    3  H   UNL     1     -11.104  15.341  67.851  1.00  0.00     0.000 HD 
ENDROOT
BRANCH   2   4
HETATM    4  C   UNL     1     -11.258  13.439  68.673  1.00  0.00    -0.269 C  
HETATM    5  C   UNL     1     -12.083  12.185  68.291  1.00  0.00    -0.008 C  
HETATM    6  C   UNL     1     -12.085  11.186  69.470  1.00  0.00    -0.326 C  
HETATM    7  O   UNL     1     -11.579  11.580  67.098  1.00  0.00    -0.516 OA 
HETATM    8  H   UNL     1     -12.086  10.810  66.864  1.00  0.00     0.000 HD 
HETATM    9  O   UNL     1     -13.073  14.636  69.837  1.00  0.00    -0.531 OA 
HETATM   10  O   UNL     1     -12.691  11.811  70.603  1.00  0.00    -0.217 OA 
HETATM   11  H   UNL     1     -13.390  14.999  70.655  1.00  0.00     0.000 HD 
HETATM   12  C   UNL     1     -11.921  12.925  71.085  1.00  0.00     0.427 C  
HETATM   13  C   UNL     1     -10.849  15.123  70.570  1.00  0.00    -0.230 C  
HETATM   14  C   UNL     1     -11.781  14.036  70.022  1.00  0.00    -0.280 C  
BRANCH   6  15
HETATM   15  O   UNL     1     -10.757  10.750  69.768  1.00  0.00    -0.245 OA 
BRANCH  15  16
HETATM   16  C   UNL     1     -10.489   9.351  69.571  1.00  0.00    -0.218 C  
HETATM   17  H1  UNL     1      -6.372   7.828  68.779  1.00  0.00     0.000 HD 
HETATM   18  C   UNL     1     -10.214   8.960  68.101  1.00  0.00    -0.201 C  
HETATM   19  C   UNL     1      -9.263   9.003  70.460  1.00  0.00    -0.220 C  
HETATM   20  H2  UNL     1      -7.028   7.850  67.226  1.00  0.00     0.000 HD 
HETATM   21  C   UNL     1      -7.698   9.388  68.452  1.00  0.00    -0.086 C  
HETATM   22  C   UNL     1      -8.949   9.680  67.601  1.00  0.00    -0.131 C  
HETATM   23  O   UNL     1      -9.101   7.570  70.537  1.00  0.00    -0.154 OA 
HETATM   24  H   UNL     1      -8.351   7.357  71.081  1.00  0.00     0.000 HD 
HETATM   25  N   UNL     1      -7.200   8.021  68.216  1.00  0.00    -0.091 NA 
HETATM   26  C   UNL     1      -7.961   9.690  69.959  1.00  0.00    -0.172 C  
BRANCH  18  27
HETATM   27  N   UNL     1     -10.148   7.508  67.933  1.00  0.00    -0.173 N  
HETATM   28  H   UNL     1     -10.330   6.916  68.744  1.00  0.00     0.000 HD 
HETATM   29  C   UNL     1      -9.850   6.902  66.734  1.00  0.00    -0.181 C  
HETATM   30  O   UNL     1      -9.641   7.512  65.691  1.00  0.00     0.250 OA 
BRANCH  29  31
HETATM   31  C   UNL     1      -9.829   5.366  66.791  1.00  0.00    -0.171 C  
HETATM   32  H   UNL     1      -9.269   3.877  65.623  1.00  0.00     0.000 HD 
HETATM   33  O   UNL     1      -9.282   4.826  65.587  1.00  0.00    -0.142 OA 
BRANCH  31  34
HETATM   34  C   UNL     1      -8.990   4.874  67.971  1.00  0.00    -0.121 C  
BRANCH  34  35
HETATM   35  C   UNL     1      -9.828   4.077  68.971  1.00  0.00     0.011 C  
HETATM   36  H1  UNL     1     -10.951   4.432  70.649  1.00  0.00     0.000 HD 
HETATM   37  H2  UNL     1     -10.924   5.727  69.564  1.00  0.00     0.000 HD 
HETATM   38  N   UNL     1     -10.392   4.963  69.982  1.00  0.00    -0.244 NA 
ENDBRANCH  34  35
ENDBRANCH  31  34
ENDBRANCH  29  31
ENDBRANCH  18  27
BRANCH  26  39
HETATM   39  O   UNL     1      -7.972  11.113  70.055  1.00  0.00     0.476 OA 
BRANCH  39  40
HETATM   40  C   UNL     1      -7.391  11.873  68.992  1.00  0.00    -0.038 C  
HETATM   41  H1  UNL     1      -4.467  12.070  70.863  1.00  0.00     0.000 HD 
HETATM   42  O   UNL     1      -7.991  13.167  68.880  1.00  0.00    -0.001 OA 
HETATM   43  H2  UNL     1      -5.903  11.296  71.233  1.00  0.00     0.000 HD 
HETATM   44  N   UNL     1      -5.471  12.041  70.687  1.00  0.00    -0.151 NA 
HETATM   45  C   UNL     1      -5.850  11.917  69.262  1.00  0.00    -0.072 C  
HETATM   46  C   UNL     1      -7.364  13.996  67.965  1.00  0.00    -0.141 C  
HETATM   47  C   UNL     1      -5.137  12.945  68.371  1.00  0.00    -0.069 C  
HETATM   48  C   UNL     1      -6.052  13.913  67.699  1.00  0.00    -0.084 C  
BRANCH  46  49
HETATM   49  C   UNL     1      -8.252  15.036  67.319  1.00  0.00    -0.211 C  
BRANCH  49  50
HETATM   50  N   UNL     1      -8.794  16.009  68.271  1.00  0.00    -0.178 NA 
HETATM   51  H   UNL     1      -9.479  15.580  68.894  1.00  0.00     0.000 HD 
BRANCH  50  52
HETATM   52  C   UNL     1      -7.722  16.677  69.029  1.00  0.00    -0.221 C  
BRANCH  52  53
HETATM   53  C   UNL     1      -7.277  17.963  68.327  1.00  0.00    -0.236 C  
HETATM   54  O   UNL     1      -7.914  18.088  67.058  1.00  0.00    -0.210 OA 
HETATM   55  H   UNL     1      -7.638  18.886  66.622  1.00  0.00     0.000 HD 
ENDBRANCH  52  53
ENDBRANCH  50  52
ENDBRANCH  49  50
ENDBRANCH  46  49
ENDBRANCH  39  40
ENDBRANCH  26  39
ENDBRANCH  15  16
ENDBRANCH   6  15
ENDBRANCH   2   4
TORSDOF 13
ENDMDL
MODEL      173
REMARK 921   NORMALIZED FREE ENERGY PREDICTED BY IDOCK:   -1.68 KCAL/MOL
REMARK 922        TOTAL FREE ENERGY PREDICTED BY IDOCK:   -6.42 KCAL/MOL
REMARK 923 INTER-LIGAND FREE ENERGY PREDICTED BY IDOCK:   -7.38 KCAL/MOL
REMARK 924 INTRA-LIGAND FREE ENERGY PREDICTED BY IDOCK:    0.96 KCAL/MOL
REMARK 927      BINDING AFFINITY PREDICTED BY RF-SCORE:    0.00 PKD
ROOT
HETATM    1  C   UNL     1     -10.714  15.516  70.619  1.00  0.00    -0.233 C  
HETATM    2  N   UNL     1      -9.626  14.992  69.799  1.00  0.00    -0.456 NA 
HETATM    3  H   UNL     1      -8.796  14.845  70.373  1.00  0.00     0.000 HD 
ENDROOT
BRANCH   2   4
HETATM    4  C   UNL     1      -9.940  13.751  69.029  1.00  0.00     0.066 C  
HETATM    5  C   UNL     1      -8.748  13.274  68.162  1.00  0.00    -0.179 C  
HETATM    6  C   UNL     1      -9.080  11.902  67.532  1.00  0.00    -0.178 C  
HETATM    7  O   UNL     1      -7.543  13.217  68.928  1.00  0.00    -0.270 OA 
HETATM    8  H   UNL     1      -6.812  12.924  68.396  1.00  0.00     0.000 HD 
HETATM    9  O   UNL     1     -11.239  14.772  67.198  1.00  0.00    -0.324 OA 
HETATM   10  O   UNL     1     -10.231  12.043  66.698  1.00  0.00    -0.201 OA 
HETATM   11  H   UNL     1     -12.039  14.760  66.686  1.00  0.00     0.000 HD 
HETATM   12  C   UNL     1     -11.409  12.381  67.451  1.00  0.00    -0.321 C  
HETATM   13  C   UNL     1     -12.501  13.953  69.056  1.00  0.00     0.088 C  
HETATM   14  C   UNL     1     -11.259  13.730  68.186  1.00  0.00    -0.271 C  
BRANCH   6  15
HETATM   15  O   UNL     1      -9.293  10.917  68.547  1.00  0.00    -0.166 OA 
BRANCH  15  16
HETATM   16  C   UNL     1      -8.114  10.413  69.199  1.00  0.00    -0.151 C  
HETATM   17  H1  UNL     1      -6.854   6.151  68.826  1.00  0.00     0.000 HD 
HETATM   18  C   UNL     1      -8.402   9.541  70.442  1.00  0.00    -0.192 C  
HETATM   19  C   UNL     1      -7.332   9.595  68.134  1.00  0.00    -0.081 C  
HETATM   20  H2  UNL     1      -7.605   6.149  70.336  1.00  0.00     0.000 HD 
HETATM   21  C   UNL     1      -8.475   7.438  68.956  1.00  0.00    -0.129 C  
HETATM   22  C   UNL     1      -9.190   8.287  70.024  1.00  0.00    -0.151 C  
HETATM   23  O   UNL     1      -6.008   9.288  68.623  1.00  0.00    -0.044 OA 
HETATM   24  H   UNL     1      -5.529   8.788  67.972  1.00  0.00     0.000 HD 
HETATM   25  N   UNL     1      -7.327   6.713  69.532  1.00  0.00    -0.089 NA 
HETATM   26  C   UNL     1      -8.089   8.301  67.717  1.00  0.00    -0.127 C  
BRANCH  18  27
HETATM   27  N   UNL     1      -7.176   9.225  71.175  1.00  0.00    -0.076 N  
HETATM   28  H   UNL     1      -6.281   9.349  70.701  1.00  0.00     0.000 HD 
HETATM   29  C   UNL     1      -7.171   8.768  72.473  1.00  0.00     0.127 C  
HETATM   30  O   UNL     1      -8.183   8.609  73.147  1.00  0.00    -0.409 OA 
BRANCH  29  31
HETATM   31  C   UNL     1      -5.769   8.495  73.041  1.00  0.00    -0.072 C  
HETATM   32  H   UNL     1      -4.849   8.659  74.779  1.00  0.00     0.000 HD 
HETATM   33  O   UNL     1      -5.716   8.828  74.428  1.00  0.00    -0.110 OA 
BRANCH  31  34
HETATM   34  C   UNL     1      -5.389   7.023  72.878  1.00  0.00    -0.038 C  
BRANCH  34  35
HETATM   35  C   UNL     1      -6.607   6.106  72.992  1.00  0.00    -0.065 C  
HETATM   36  H1  UNL     1      -7.156   4.217  72.416  1.00  0.00     0.000 HD 
HETATM   37  H2  UNL     1      -5.500   4.385  72.700  1.00  0.00     0.000 HD 
HETATM   38  N   UNL     1      -6.344   4.829  72.340  1.00  0.00    -0.032 NA 
ENDBRANCH  34  35
ENDBRANCH  31  34
ENDBRANCH  29  31
ENDBRANCH  18  27
BRANCH  26  39
HETATM   39  O   UNL     1      -9.318   8.535  67.031  1.00  0.00    -0.147 OA 
BRANCH  39  40
HETATM   40  C   UNL     1      -9.318   8.502  65.601  1.00  0.00    -0.052 C  
HETATM   41  H1  UNL     1      -6.545   6.408  65.749  1.00  0.00     0.000 HD 
HETATM   42  O   UNL     1      -8.949   9.768  65.045  1.00  0.00    -0.176 OA 
HETATM   43  H2  UNL     1      -7.430   7.075  67.004  1.00  0.00     0.000 HD 
HETATM   44  N   UNL     1      -7.164   7.172  66.024  1.00  0.00    -0.073 NA 
HETATM   45  C   UNL     1      -8.369   7.331  65.180  1.00  0.00    -0.075 C  
HETATM   46  C   UNL     1      -8.788   9.748  63.669  1.00  0.00    -0.236 C  
HETATM   47  C   UNL     1      -8.038   7.367  63.681  1.00  0.00    -0.012 C  
HETATM   48  C   UNL     1      -8.380   8.653  63.009  1.00  0.00    -0.153 C  
BRANCH  46  49
HETATM   49  C   UNL     1      -9.059  11.059  62.966  1.00  0.00    -0.291 C  
BRANCH  49  50
HETATM   50  N   UNL     1      -9.908  11.968  63.741  1.00  0.00    -0.539 NA 
HETATM   51  H   UNL     1      -9.424  12.840  63.955  1.00  0.00     0.000 HD 
BRANCH  50  52
HETATM   52  C   UNL     1     -11.192  12.217  63.062  1.00  0.00     0.032 C  
BRANCH  52  53
HETATM   53  C   UNL     1     -12.103  13.096  63.923  1.00  0.00    -0.470 C  
HETATM   54  O   UNL     1     -12.505  14.259  63.204  1.00  0.00    -1.102 OA 
HETATM   55  H   UNL     1     -13.070  14.804  63.738  1.00  0.00     0.000 HD 
ENDBRANCH  52  53
ENDBRANCH  50  52
ENDBRANCH  49  50
ENDBRANCH  46  49
ENDBRANCH  39  40
ENDBRANCH  26  39
ENDBRANCH  15  16
ENDBRANCH   6  15
ENDBRANCH   2   4
TORSDOF 13
ENDMDL
MODEL      174
REMARK 921   NORMALIZED FREE ENERGY PREDICTED BY IDOCK:   -1.57 KCAL/MOL
REMARK 922        TOTAL FREE ENERGY PREDICTED BY IDOCK:   -6.22 KCAL/MOL
REMARK 923 INTER-LIGAND FREE ENERGY PREDICTED BY IDOCK:   -6.48 KCAL/MOL
REMARK 924 INTRA-LIGAND FREE ENERGY PREDICTED BY IDOCK:    0.26 KCAL/MOL
REMARK 927      BINDING AFFINITY PREDICTED BY RF-SCORE:    0.00 PKD
ROOT
HETATM    1  C   UNL     1      -7.681   2.626  69.288  1.00  0.00    -0.043 C  
HETATM    2  N   UNL     1      -9.029   3.081  68.960  1.00  0.00    -0.110 NA 
HETATM    3  H   UNL     1      -9.562   3.238  69.815  1.00  0.00     0.000 HD 
ENDROOT
BRANCH   2   4
HETATM    4  C   UNL     1      -9.106   4.287  68.082  1.00  0.00    -0.131 C  
HETATM    5  C   UNL     1     -10.388   5.122  68.333  1.00  0.00    -0.070 C  
HETATM    6  C   UNL     1     -10.319   6.435  67.521  1.00  0.00    -0.196 C  
HETATM    7  O   UNL     1     -10.570   5.380  69.727  1.00  0.00    -0.309 OA 
HETATM    8  H   UNL     1     -11.356   5.892  69.880  1.00  0.00     0.000 HD 
HETATM    9  O   UNL     1      -9.878   3.188  66.013  1.00  0.00    -0.398 OA 
HETATM   10  O   UNL     1     -10.240   6.115  66.131  1.00  0.00    -0.007 OA 
HETATM   11  H   UNL     1      -9.746   3.065  65.081  1.00  0.00     0.000 HD 
HETATM   12  C   UNL     1      -9.020   5.431  65.800  1.00  0.00    -0.158 C  
HETATM   13  C   UNL     1      -7.515   3.484  66.232  1.00  0.00    -0.077 C  
HETATM   14  C   UNL     1      -8.890   4.085  66.545  1.00  0.00    -0.122 C  
BRANCH   6  15
HETATM   15  O   UNL     1      -9.204   7.229  67.934  1.00  0.00    -0.132 OA 
BRANCH  15  16
HETATM   16  C   UNL     1      -8.980   8.442  67.195  1.00  0.00    -0.137 C  
HETATM   17  H1  UNL     1      -9.013  12.443  69.164  1.00  0.00     0.000 HD 
HETATM   18  C   UNL     1     -10.256   9.276  66.945  1.00  0.00    -0.256 C  
HETATM   19  C   UNL     1      -7.943   9.270  68.003  1.00  0.00    -0.100 C  
HETATM   20  H2  UNL     1     -10.552  12.393  68.478  1.00  0.00     0.000 HD 
HETATM   21  C   UNL     1      -9.861  10.551  69.148  1.00  0.00    -0.218 C  
HETATM   22  C   UNL     1     -10.846   9.736  68.289  1.00  0.00    -0.256 C  
HETATM   23  O   UNL     1      -7.454  10.367  67.200  1.00  0.00    -0.090 OA 
HETATM   24  H   UNL     1      -6.819  10.873  67.694  1.00  0.00     0.000 HD 
HETATM   25  N   UNL     1      -9.665  11.904  68.596  1.00  0.00    -0.155 NA 
HETATM   26  C   UNL     1      -8.523   9.778  69.354  1.00  0.00    -0.159 C  
BRANCH  18  27
HETATM   27  N   UNL     1     -10.003  10.386  66.024  1.00  0.00    -0.229 N  
HETATM   28  H   UNL     1     -10.157  11.338  66.357  1.00  0.00     0.000 HD 
HETATM   29  C   UNL     1      -9.568  10.206  64.731  1.00  0.00    -0.314 C  
HETATM   30  O   UNL     1      -9.324   9.111  64.235  1.00  0.00     0.044 OA 
BRANCH  29  31
HETATM   31  C   UNL     1      -9.375  11.512  63.944  1.00  0.00    -0.030 C  
HETATM   32  H   UNL     1      -9.290  12.068  62.052  1.00  0.00     0.000 HD 
HETATM   33  O   UNL     1      -9.409  11.260  62.538  1.00  0.00    -0.323 OA 
BRANCH  31  34
HETATM   34  C   UNL     1     -10.469  12.524  64.284  1.00  0.00    -0.404 C  
BRANCH  34  35
HETATM   35  C   UNL     1     -11.735  12.292  63.459  1.00  0.00    -0.499 C  
HETATM   36  H1  UNL     1     -13.365  13.363  62.828  1.00  0.00     0.000 HD 
HETATM   37  H2  UNL     1     -11.971  14.298  63.020  1.00  0.00     0.000 HD 
HETATM   38  N   UNL     1     -12.520  13.518  63.378  1.00  0.00    -0.778 NA 
ENDBRANCH  34  35
ENDBRANCH  31  34
ENDBRANCH  29  31
ENDBRANCH  18  27
BRANCH  26  39
HETATM   39  O   UNL     1      -8.832   8.744  70.287  1.00  0.00    -0.140 OA 
BRANCH  39  40
HETATM   40  C   UNL     1      -7.780   8.232  71.110  1.00  0.00    -0.094 C  
HETATM   41  H1  UNL     1      -6.144  11.279  70.743  1.00  0.00     0.000 HD 
HETATM   42  O   UNL     1      -7.047   7.198  70.445  1.00  0.00    -0.063 OA 
HETATM   43  H2  UNL     1      -7.625  10.798  70.130  1.00  0.00     0.000 HD 
HETATM   44  N   UNL     1      -6.718  10.480  70.472  1.00  0.00    -0.325 NA 
HETATM   45  C   UNL     1      -6.899   9.457  71.526  1.00  0.00     0.149 C  
HETATM   46  C   UNL     1      -5.926   6.773  71.141  1.00  0.00    -0.036 C  
HETATM   47  C   UNL     1      -5.569   9.023  72.160  1.00  0.00    -0.068 C  
HETATM   48  C   UNL     1      -5.229   7.587  71.947  1.00  0.00    -0.035 C  
BRANCH  46  49
HETATM   49  C   UNL     1      -5.514   5.340  70.890  1.00  0.00    -0.005 C  
BRANCH  49  50
HETATM   50  N   UNL     1      -5.420   4.541  72.115  1.00  0.00    -0.004 NA 
HETATM   51  H   UNL     1      -5.362   5.133  72.944  1.00  0.00     0.000 HD 
BRANCH  50  52
HETATM   52  C   UNL     1      -6.530   3.578  72.218  1.00  0.00    -0.014 C  
BRANCH  52  53
HETATM   53  C   UNL     1      -7.760   4.229  72.855  1.00  0.00    -0.081 C  
HETATM   54  O   UNL     1      -8.840   4.280  71.927  1.00  0.00    -0.108 OA 
HETATM   55  H   UNL     1      -9.603   4.685  72.322  1.00  0.00     0.000 HD 
ENDBRANCH  52  53
ENDBRANCH  50  52
ENDBRANCH  49  50
ENDBRANCH  46  49
ENDBRANCH  39  40
ENDBRANCH  26  39
ENDBRANCH  15  16
ENDBRANCH   6  15
ENDBRANCH   2   4
TORSDOF 13
ENDMDL
MODEL      175
REMARK 921   NORMALIZED FREE ENERGY PREDICTED BY IDOCK:   -1.43 KCAL/MOL
REMARK 922        TOTAL FREE ENERGY PREDICTED BY IDOCK:   -5.97 KCAL/MOL
REMARK 923 INTER-LIGAND FREE ENERGY PREDICTED BY IDOCK:   -9.75 KCAL/MOL
REMARK 924 INTRA-LIGAND FREE ENERGY PREDICTED BY IDOCK:    3.78 KCAL/MOL
REMARK 927      BINDING AFFINITY PREDICTED BY RF-SCORE:    0.00 PKD
ROOT
HETATM    1  C   UNL     1      -5.971  12.697  70.291  1.00  0.00    -0.122 C  
HETATM    2  N   UNL     1      -7.007  11.705  70.021  1.00  0.00    -0.404 NA 
HETATM    3  H   UNL     1      -7.694  11.704  70.775  1.00  0.00     0.000 HD 
ENDROOT
BRANCH   2   4
HETATM    4  C   UNL     1      -7.697  11.836  68.703  1.00  0.00    -0.126 C  
HETATM    5  C   UNL     1      -8.985  10.980  68.619  1.00  0.00    -0.167 C  
HETATM    6  C   UNL     1      -9.735  11.294  67.305  1.00  0.00    -0.174 C  
HETATM    7  O   UNL     1      -9.821  11.194  69.759  1.00  0.00    -0.324 OA 
HETATM    8  H   UNL     1     -10.611  10.668  69.708  1.00  0.00     0.000 HD 
HETATM    9  O   UNL     1      -6.260  10.327  67.384  1.00  0.00    -0.057 OA 
HETATM   10  O   UNL     1      -8.889  10.966  66.202  1.00  0.00    -0.173 OA 
HETATM   11  H   UNL     1      -5.739  10.208  66.599  1.00  0.00     0.000 HD 
HETATM   12  C   UNL     1      -7.718  11.798  66.149  1.00  0.00     0.345 C  
HETATM   13  C   UNL     1      -5.684  12.647  67.327  1.00  0.00    -0.051 C  
HETATM   14  C   UNL     1      -6.838  11.641  67.408  1.00  0.00    -0.114 C  
BRANCH   6  15
HETATM   15  O   UNL     1     -10.130  12.667  67.263  1.00  0.00    -0.212 OA 
BRANCH  15  16
HETATM   16  C   UNL     1      -9.138  13.627  67.666  1.00  0.00    -0.207 C  
HETATM   17  H1  UNL     1     -10.247  17.554  69.465  1.00  0.00     0.000 HD 
HETATM   18  C   UNL     1      -9.002  14.836  66.714  1.00  0.00    -0.266 C  
HETATM   19  C   UNL     1      -9.531  14.102  69.092  1.00  0.00     0.173 C  
HETATM   20  H2  UNL     1      -9.923  17.994  67.869  1.00  0.00     0.000 HD 
HETATM   21  C   UNL     1     -10.780  16.112  68.074  1.00  0.00    -0.321 C  
HETATM   22  C   UNL     1     -10.324  15.623  66.686  1.00  0.00    -0.290 C  
HETATM   23  O   UNL     1      -8.445  14.851  69.680  1.00  0.00    -0.427 OA 
HETATM   24  H   UNL     1      -8.686  15.142  70.552  1.00  0.00     0.000 HD 
HETATM   25  N   UNL     1      -9.945  17.231  68.546  1.00  0.00    -0.301 NA 
HETATM   26  C   UNL     1     -10.848  14.932  69.090  1.00  0.00    -0.250 C  
BRANCH  18  27
HETATM   27  N   UNL     1      -7.850  15.670  67.061  1.00  0.00    -0.220 N  
HETATM   28  H   UNL     1      -7.225  15.350  67.802  1.00  0.00     0.000 HD 
HETATM   29  C   UNL     1      -7.570  16.863  66.437  1.00  0.00    -0.304 C  
HETATM   30  O   UNL     1      -8.234  17.329  65.517  1.00  0.00    -0.261 OA 
BRANCH  29  31
HETATM   31  C   UNL     1      -6.314  17.573  66.968  1.00  0.00    -0.161 C  
HETATM   32  H   UNL     1      -4.357  17.394  66.780  1.00  0.00     0.000 HD 
HETATM   33  O   UNL     1      -5.133  16.955  66.452  1.00  0.00    -0.347 OA 
BRANCH  31  34
HETATM   34  C   UNL     1      -6.307  19.048  66.567  1.00  0.00    -0.204 C  
BRANCH  34  35
HETATM   35  C   UNL     1      -6.131  19.965  67.778  1.00  0.00    -0.204 C  
HETATM   36  H1  UNL     1      -5.525  21.885  68.165  1.00  0.00     0.000 HD 
HETATM   37  H2  UNL     1      -6.242  21.692  66.648  1.00  0.00     0.000 HD 
HETATM   38  N   UNL     1      -5.642  21.273  67.358  1.00  0.00    -0.297 NA 
ENDBRANCH  34  35
ENDBRANCH  31  34
ENDBRANCH  29  31
ENDBRANCH  18  27
BRANCH  26  39
HETATM   39  O   UNL     1     -12.009  14.190  68.721  1.00  0.00    -0.334 OA 
BRANCH  39  40
HETATM   40  C   UNL     1     -12.807  13.612  69.757  1.00  0.00     0.403 C  
HETATM   41  H1  UNL     1     -12.180  16.441  71.680  1.00  0.00     0.000 HD 
HETATM   42  O   UNL     1     -12.169  12.471  70.339  1.00  0.00    -0.348 OA 
HETATM   43  H2  UNL     1     -11.671  16.091  70.125  1.00  0.00     0.000 HD 
HETATM   44  N   UNL     1     -11.986  15.695  71.012  1.00  0.00    -0.363 NA 
HETATM   45  C   UNL     1     -13.106  14.755  70.784  1.00  0.00    -0.336 C  
HETATM   46  C   UNL     1     -12.832  11.965  71.446  1.00  0.00    -0.307 C  
HETATM   47  C   UNL     1     -13.697  14.215  72.094  1.00  0.00    -0.587 C  
HETATM   48  C   UNL     1     -13.553  12.741  72.269  1.00  0.00    -0.563 C  
BRANCH  46  49
HETATM   49  C   UNL     1     -12.646  10.485  71.691  1.00  0.00    -0.393 C  
BRANCH  49  50
HETATM   50  N   UNL     1     -12.202   9.751  70.503  1.00  0.00    -0.454 NA 
HETATM   51  H   UNL     1     -11.480  10.264  69.996  1.00  0.00     0.000 HD 
BRANCH  50  52
HETATM   52  C   UNL     1     -11.755   8.389  70.846  1.00  0.00    -0.246 C  
BRANCH  52  53
HETATM   53  C   UNL     1     -12.137   8.036  72.285  1.00  0.00    -0.341 C  
HETATM   54  O   UNL     1     -11.559   6.791  72.667  1.00  0.00    -0.417 OA 
HETATM   55  H   UNL     1     -11.797   6.571  73.561  1.00  0.00     0.000 HD 
ENDBRANCH  52  53
ENDBRANCH  50  52
ENDBRANCH  49  50
ENDBRANCH  46  49
ENDBRANCH  39  40
ENDBRANCH  26  39
ENDBRANCH  15  16
ENDBRANCH   6  15
ENDBRANCH   2   4
TORSDOF 13
ENDMDL
MODEL      176
REMARK 921   NORMALIZED FREE ENERGY PREDICTED BY IDOCK:   -1.35 KCAL/MOL
REMARK 922        TOTAL FREE ENERGY PREDICTED BY IDOCK:   -5.83 KCAL/MOL
REMARK 923 INTER-LIGAND FREE ENERGY PREDICTED BY IDOCK:   -5.94 KCAL/MOL
REMARK 924 INTRA-LIGAND FREE ENERGY PREDICTED BY IDOCK:    0.10 KCAL/MOL
REMARK 927      BINDING AFFINITY PREDICTED BY RF-SCORE:    0.00 PKD
ROOT
HETATM    1  C   UNL     1     -12.043  16.449  68.594  1.00  0.00     0.530 C  
HETATM    2  N   UNL     1     -11.526  15.828  69.810  1.00  0.00    -0.323 NA 
HETATM    3  H   UNL     1     -11.978  16.234  70.629  1.00  0.00     0.000 HD 
ENDROOT
BRANCH   2   4
HETATM    4  C   UNL     1     -11.620  14.338  69.862  1.00  0.00    -0.276 C  
HETATM    5  C   UNL     1     -11.930  13.714  68.478  1.00  0.00    -0.361 C  
HETATM    6  C   UNL     1     -11.842  12.174  68.570  1.00  0.00    -0.310 C  
HETATM    7  O   UNL     1     -11.053  14.226  67.473  1.00  0.00    -0.282 OA 
HETATM    8  H   UNL     1     -11.244  13.844  66.624  1.00  0.00     0.000 HD 
HETATM    9  O   UNL     1     -13.898  14.144  70.785  1.00  0.00    -0.223 OA 
HETATM   10  O   UNL     1     -12.810  11.712  69.514  1.00  0.00     0.198 OA 
HETATM   11  H   UNL     1     -14.458  13.759  71.449  1.00  0.00     0.000 HD 
HETATM   12  C   UNL     1     -12.526  12.163  70.849  1.00  0.00    -0.279 C  
HETATM   13  C   UNL     1     -12.111  14.100  72.372  1.00  0.00     0.149 C  
HETATM   14  C   UNL     1     -12.542  13.703  70.956  1.00  0.00    -0.363 C  
BRANCH   6  15
HETATM   15  O   UNL     1     -10.523  11.763  68.938  1.00  0.00    -0.207 OA 
BRANCH  15  16
HETATM   16  C   UNL     1      -9.440  12.472  68.313  1.00  0.00    -0.201 C  
HETATM   17  H1  UNL     1      -6.225  10.357  66.059  1.00  0.00     0.000 HD 
HETATM   18  C   UNL     1      -8.092  12.358  69.061  1.00  0.00     0.312 C  
HETATM   19  C   UNL     1      -9.308  11.905  66.873  1.00  0.00    -0.196 C  
HETATM   20  H2  UNL     1      -5.466  10.644  67.538  1.00  0.00     0.000 HD 
HETATM   21  C   UNL     1      -7.503  10.259  67.689  1.00  0.00    -0.089 C  
HETATM   22  C   UNL     1      -7.638  10.888  69.089  1.00  0.00    -0.133 C  
HETATM   23  O   UNL     1      -8.435  12.747  66.088  1.00  0.00    -0.285 OA 
HETATM   24  H   UNL     1      -8.355  12.399  65.207  1.00  0.00     0.000 HD 
HETATM   25  N   UNL     1      -6.314  10.773  66.986  1.00  0.00    -0.072 NA 
HETATM   26  C   UNL     1      -8.817  10.428  66.868  1.00  0.00    -0.133 C  
BRANCH  18  27
HETATM   27  N   UNL     1      -7.083  13.255  68.495  1.00  0.00    -0.099 N  
HETATM   28  H   UNL     1      -6.837  13.150  67.511  1.00  0.00     0.000 HD 
HETATM   29  C   UNL     1      -6.451  14.234  69.228  1.00  0.00    -0.115 C  
HETATM   30  O   UNL     1      -6.689  14.468  70.408  1.00  0.00    -0.135 OA 
BRANCH  29  31
HETATM   31  C   UNL     1      -5.424  15.053  68.431  1.00  0.00    -0.109 C  
HETATM   32  H   UNL     1      -5.177  15.655  66.567  1.00  0.00     0.000 HD 
HETATM   33  O   UNL     1      -5.813  15.148  67.060  1.00  0.00    -0.151 OA 
BRANCH  31  34
HETATM   34  C   UNL     1      -5.290  16.466  68.998  1.00  0.00    -0.118 C  
BRANCH  34  35
HETATM   35  C   UNL     1      -6.033  17.494  68.144  1.00  0.00    -0.157 C  
HETATM   36  H1  UNL     1      -7.647  18.746  68.318  1.00  0.00     0.000 HD 
HETATM   37  H2  UNL     1      -6.855  18.452  69.781  1.00  0.00     0.000 HD 
HETATM   38  N   UNL     1      -7.152  18.060  68.888  1.00  0.00    -0.270 NA 
ENDBRANCH  34  35
ENDBRANCH  31  34
ENDBRANCH  29  31
ENDBRANCH  18  27
BRANCH  26  39
HETATM   39  O   UNL     1      -9.736   9.502  67.443  1.00  0.00    -0.147 OA 
BRANCH  39  40
HETATM   40  C   UNL     1      -9.871   8.211  66.839  1.00  0.00    -0.247 C  
HETATM   41  H1  UNL     1     -10.620   6.929  69.984  1.00  0.00     0.000 HD 
HETATM   42  O   UNL     1      -8.610   7.705  66.390  1.00  0.00    -0.128 OA 
HETATM   43  H2  UNL     1     -10.287   8.509  69.543  1.00  0.00     0.000 HD 
HETATM   44  N   UNL     1     -10.161   7.527  69.296  1.00  0.00    -0.196 NA 
HETATM   45  C   UNL     1     -10.575   7.294  67.895  1.00  0.00    -0.202 C  
HETATM   46  C   UNL     1      -8.664   6.398  65.935  1.00  0.00    -0.145 C  
HETATM   47  C   UNL     1     -10.517   5.811  67.501  1.00  0.00    -0.310 C  
HETATM   48  C   UNL     1      -9.538   5.503  66.419  1.00  0.00    -0.174 C  
BRANCH  46  49
HETATM   49  C   UNL     1      -7.636   6.035  64.887  1.00  0.00    -0.092 C  
BRANCH  49  50
HETATM   50  N   UNL     1      -7.465   7.067  63.860  1.00  0.00    -0.088 NA 
HETATM   51  H   UNL     1      -8.360   7.348  63.460  1.00  0.00     0.000 HD 
BRANCH  50  52
HETATM   52  C   UNL     1      -6.719   8.226  64.380  1.00  0.00    -0.066 C  
BRANCH  52  53
HETATM   53  C   UNL     1      -6.622   9.330  63.324  1.00  0.00    -0.091 C  
HETATM   54  O   UNL     1      -6.565  10.613  63.942  1.00  0.00    -0.353 OA 
HETATM   55  H   UNL     1      -6.505  11.299  63.286  1.00  0.00     0.000 HD 
ENDBRANCH  52  53
ENDBRANCH  50  52
ENDBRANCH  49  50
ENDBRANCH  46  49
ENDBRANCH  39  40
ENDBRANCH  26  39
ENDBRANCH  15  16
ENDBRANCH   6  15
ENDBRANCH   2   4
TORSDOF 13
ENDMDL
MODEL      177
REMARK 921   NORMALIZED FREE ENERGY PREDICTED BY IDOCK:   -1.29 KCAL/MOL
REMARK 922        TOTAL FREE ENERGY PREDICTED BY IDOCK:   -5.74 KCAL/MOL
REMARK 923 INTER-LIGAND FREE ENERGY PREDICTED BY IDOCK:   -7.08 KCAL/MOL
REMARK 924 INTRA-LIGAND FREE ENERGY PREDICTED BY IDOCK:    1.34 KCAL/MOL
REMARK 927      BINDING AFFINITY PREDICTED BY RF-SCORE:    0.00 PKD
ROOT
HETATM    1  C   UNL     1      -6.113  12.083  66.965  1.00  0.00    -0.132 C  
HETATM    2  N   UNL     1      -6.012  11.158  65.840  1.00  0.00    -0.338 NA 
HETATM    3  H   UNL     1      -5.122  10.662  65.876  1.00  0.00     0.000 HD 
ENDROOT
BRANCH   2   4
HETATM    4  C   UNL     1      -7.135  10.183  65.704  1.00  0.00    -0.133 C  
HETATM    5  C   UNL     1      -6.949   8.934  66.602  1.00  0.00    -0.080 C  
HETATM    6  C   UNL     1      -8.219   8.057  66.543  1.00  0.00    -0.115 C  
HETATM    7  O   UNL     1      -6.636   9.307  67.946  1.00  0.00    -0.062 OA 
HETATM    8  H   UNL     1      -6.522   8.542  68.497  1.00  0.00     0.000 HD 
HETATM    9  O   UNL     1      -6.447   9.122  63.587  1.00  0.00    -0.089 OA 
HETATM   10  O   UNL     1      -8.423   7.630  65.195  1.00  0.00    -0.125 OA 
HETATM   11  H   UNL     1      -6.699   8.858  62.710  1.00  0.00     0.000 HD 
HETATM   12  C   UNL     1      -8.712   8.730  64.315  1.00  0.00    -0.004 C  
HETATM   13  C   UNL     1      -7.988  10.941  63.402  1.00  0.00     0.234 C  
HETATM   14  C   UNL     1      -7.551   9.747  64.259  1.00  0.00    -0.135 C  
BRANCH   6  15
HETATM   15  O   UNL     1      -9.353   8.773  67.037  1.00  0.00    -0.145 OA 
BRANCH  15  16
HETATM   16  C   UNL     1      -9.087  10.063  67.614  1.00  0.00    -0.134 C  
HETATM   17  H1  UNL     1     -11.630  11.763  70.859  1.00  0.00     0.000 HD 
HETATM   18  C   UNL     1     -10.060  11.174  67.159  1.00  0.00    -0.191 C  
HETATM   19  C   UNL     1      -9.155   9.883  69.156  1.00  0.00    -0.173 C  
HETATM   20  H2  UNL     1     -12.228  12.572  69.505  1.00  0.00     0.000 HD 
HETATM   21  C   UNL     1     -11.623  10.618  69.131  1.00  0.00    -0.271 C  
HETATM   22  C   UNL     1     -11.490  10.826  67.610  1.00  0.00    -0.234 C  
HETATM   23  O   UNL     1      -8.629  11.056  69.814  1.00  0.00    -0.246 OA 
HETATM   24  H   UNL     1      -8.671  10.946  70.757  1.00  0.00     0.000 HD 
HETATM   25  N   UNL     1     -11.542  11.901  69.853  1.00  0.00    -0.286 NA 
HETATM   26  C   UNL     1     -10.598   9.564  69.646  1.00  0.00    -0.228 C  
BRANCH  18  27
HETATM   27  N   UNL     1      -9.624  12.494  67.617  1.00  0.00    -0.185 N  
HETATM   28  H   UNL     1      -8.949  12.545  68.380  1.00  0.00     0.000 HD 
HETATM   29  C   UNL     1     -10.080  13.670  67.067  1.00  0.00    -0.248 C  
HETATM   30  O   UNL     1     -10.869  13.728  66.130  1.00  0.00    -0.279 OA 
BRANCH  29  31
HETATM   31  C   UNL     1      -9.491  14.936  67.709  1.00  0.00    -0.203 C  
HETATM   32  H   UNL     1      -8.410  15.391  69.296  1.00  0.00     0.000 HD 
HETATM   33  O   UNL     1      -8.774  14.608  68.900  1.00  0.00    -0.177 OA 
BRANCH  31  34
HETATM   34  C   UNL     1      -8.539  15.646  66.747  1.00  0.00    -0.309 C  
BRANCH  34  35
HETATM   35  C   UNL     1      -8.853  17.138  66.633  1.00  0.00    -0.252 C  
HETATM   36  H1  UNL     1      -8.788  18.808  67.820  1.00  0.00     0.000 HD 
HETATM   37  H2  UNL     1      -7.623  17.649  68.214  1.00  0.00     0.000 HD 
HETATM   38  N   UNL     1      -8.578  17.813  67.896  1.00  0.00    -0.245 NA 
ENDBRANCH  34  35
ENDBRANCH  31  34
ENDBRANCH  29  31
ENDBRANCH  18  27
BRANCH  26  39
HETATM   39  O   UNL     1     -11.104   8.307  69.202  1.00  0.00     0.008 OA 
BRANCH  39  40
HETATM   40  C   UNL     1     -10.800   7.139  69.970  1.00  0.00    -0.254 C  
HETATM   41  H1  UNL     1     -11.688   8.911  72.828  1.00  0.00     0.000 HD 
HETATM   42  O   UNL     1      -9.395   6.865  69.979  1.00  0.00    -0.158 OA 
HETATM   43  H2  UNL     1     -11.710   9.410  71.231  1.00  0.00     0.000 HD 
HETATM   44  N   UNL     1     -11.295   8.760  71.899  1.00  0.00    -0.339 NA 
HETATM   45  C   UNL     1     -11.402   7.372  71.396  1.00  0.00    -0.256 C  
HETATM   46  C   UNL     1      -9.033   5.834  70.831  1.00  0.00    -0.145 C  
HETATM   47  C   UNL     1     -10.897   6.337  72.412  1.00  0.00    -0.277 C  
HETATM   48  C   UNL     1      -9.711   5.558  71.955  1.00  0.00    -0.197 C  
BRANCH  46  49
HETATM   49  C   UNL     1      -7.791   5.071  70.430  1.00  0.00    -0.073 C  
BRANCH  49  50
HETATM   50  N   UNL     1      -7.751   4.732  69.005  1.00  0.00    -0.071 NA 
HETATM   51  H   UNL     1      -6.832   4.916  68.603  1.00  0.00     0.000 HD 
BRANCH  50  52
HETATM   52  C   UNL     1      -8.175   3.341  68.769  1.00  0.00    -0.060 C  
BRANCH  52  53
HETATM   53  C   UNL     1      -9.610   3.290  68.238  1.00  0.00    -0.075 C  
HETATM   54  O   UNL     1      -9.679   2.505  67.051  1.00  0.00    -0.396 OA 
HETATM   55  H   UNL     1     -10.570   2.474  66.722  1.00  0.00     0.000 HD 
ENDBRANCH  52  53
ENDBRANCH  50  52
ENDBRANCH  49  50
ENDBRANCH  46  49
ENDBRANCH  39  40
ENDBRANCH  26  39
ENDBRANCH  15  16
ENDBRANCH   6  15
ENDBRANCH   2   4
TORSDOF 13
ENDMDL
MODEL      178
REMARK 921   NORMALIZED FREE ENERGY PREDICTED BY IDOCK:   -1.25 KCAL/MOL
REMARK 922        TOTAL FREE ENERGY PREDICTED BY IDOCK:   -5.66 KCAL/MOL
REMARK 923 INTER-LIGAND FREE ENERGY PREDICTED BY IDOCK:   -5.99 KCAL/MOL
REMARK 924 INTRA-LIGAND FREE ENERGY PREDICTED BY IDOCK:    0.33 KCAL/MOL
REMARK 927      BINDING AFFINITY PREDICTED BY RF-SCORE:    0.00 PKD
ROOT
HETATM    1  C   UNL     1      -5.836   3.668  68.012  1.00  0.00    -0.026 C  
HETATM    2  N   UNL     1      -6.324   3.239  69.319  1.00  0.00    -0.029 NA 
HETATM    3  H   UNL     1      -5.537   3.056  69.942  1.00  0.00     0.000 HD 
ENDROOT
BRANCH   2   4
HETATM    4  C   UNL     1      -7.294   4.162  69.980  1.00  0.00    -0.046 C  
HETATM    5  C   UNL     1      -6.634   5.027  71.082  1.00  0.00    -0.038 C  
HETATM    6  C   UNL     1      -7.647   6.072  71.600  1.00  0.00    -0.100 C  
HETATM    7  O   UNL     1      -5.442   5.652  70.602  1.00  0.00    -0.008 OA 
HETATM    8  H   UNL     1      -5.036   6.183  71.278  1.00  0.00     0.000 HD 
HETATM    9  O   UNL     1      -8.373   2.540  71.493  1.00  0.00    -0.060 OA 
HETATM   10  O   UNL     1      -8.770   5.388  72.160  1.00  0.00    -0.129 OA 
HETATM   11  H   UNL     1      -9.186   2.169  71.814  1.00  0.00     0.000 HD 
HETATM   12  C   UNL     1      -9.502   4.645  71.170  1.00  0.00    -0.156 C  
HETATM   13  C   UNL     1      -9.450   2.895  69.388  1.00  0.00    -0.158 C  
HETATM   14  C   UNL     1      -8.636   3.552  70.508  1.00  0.00    -0.070 C  
BRANCH   6  15
HETATM   15  O   UNL     1      -8.049   6.953  70.548  1.00  0.00    -0.112 OA 
BRANCH  15  16
HETATM   16  C   UNL     1      -9.461   7.203  70.434  1.00  0.00    -0.162 C  
HETATM   17  H1  UNL     1     -11.076  10.479  67.876  1.00  0.00     0.000 HD 
HETATM   18  C   UNL     1      -9.948   8.448  71.208  1.00  0.00    -0.204 C  
HETATM   19  C   UNL     1      -9.765   7.355  68.918  1.00  0.00    -0.150 C  
HETATM   20  H2  UNL     1     -11.147  11.182  69.407  1.00  0.00     0.000 HD 
HETATM   21  C   UNL     1      -9.526   9.911  69.130  1.00  0.00    -0.196 C  
HETATM   22  C   UNL     1      -9.276   9.709  70.637  1.00  0.00    -0.148 C  
HETATM   23  O   UNL     1     -11.192   7.330  68.696  1.00  0.00    -0.451 OA 
HETATM   24  H   UNL     1     -11.378   7.424  67.769  1.00  0.00     0.000 HD 
HETATM   25  N   UNL     1     -10.911  10.345  68.873  1.00  0.00    -0.232 NA 
HETATM   26  C   UNL     1      -9.126   8.641  68.319  1.00  0.00    -0.141 C  
BRANCH  18  27
HETATM   27  N   UNL     1     -11.409   8.538  71.221  1.00  0.00    -0.259 N  
HETATM   28  H   UNL     1     -11.889   8.774  70.353  1.00  0.00     0.000 HD 
HETATM   29  C   UNL     1     -12.166   8.318  72.349  1.00  0.00    -0.352 C  
HETATM   30  O   UNL     1     -11.699   8.001  73.438  1.00  0.00    -0.032 OA 
BRANCH  29  31
HETATM   31  C   UNL     1     -13.680   8.472  72.132  1.00  0.00    -0.374 C  
HETATM   32  H   UNL     1     -15.289   8.724  73.248  1.00  0.00     0.000 HD 
HETATM   33  O   UNL     1     -14.353   8.629  73.383  1.00  0.00    -0.068 OA 
BRANCH  31  34
HETATM   34  C   UNL     1     -13.987   9.688  71.258  1.00  0.00    -0.033 C  
BRANCH  34  35
HETATM   35  C   UNL     1     -13.512  10.989  71.906  1.00  0.00    -0.195 C  
HETATM   36  H1  UNL     1     -11.881  12.228  71.827  1.00  0.00     0.000 HD 
HETATM   37  H2  UNL     1     -12.190  11.419  70.376  1.00  0.00     0.000 HD 
HETATM   38  N   UNL     1     -12.198  11.361  71.395  1.00  0.00    -0.142 NA 
ENDBRANCH  34  35
ENDBRANCH  31  34
ENDBRANCH  29  31
ENDBRANCH  18  27
BRANCH  26  39
HETATM   39  O   UNL     1      -7.700   8.640  68.312  1.00  0.00    -0.098 OA 
BRANCH  39  40
HETATM   40  C   UNL     1      -7.019   9.807  67.840  1.00  0.00    -0.078 C  
HETATM   41  H1  UNL     1      -5.214   9.834  70.812  1.00  0.00     0.000 HD 
HETATM   42  O   UNL     1      -7.892  10.940  67.785  1.00  0.00    -0.106 OA 
HETATM   43  H2  UNL     1      -6.381   8.750  70.299  1.00  0.00     0.000 HD 
HETATM   44  N   UNL     1      -6.020   9.699  70.202  1.00  0.00    -0.045 NA 
HETATM   45  C   UNL     1      -5.782  10.013  68.776  1.00  0.00    -0.034 C  
HETATM   46  C   UNL     1      -7.247  12.127  67.478  1.00  0.00    -0.133 C  
HETATM   47  C   UNL     1      -5.130  11.389  68.577  1.00  0.00    -0.039 C  
HETATM   48  C   UNL     1      -5.971  12.361  67.820  1.00  0.00    -0.111 C  
BRANCH  46  49
HETATM   49  C   UNL     1      -8.095  13.161  66.773  1.00  0.00     0.219 C  
BRANCH  49  50
HETATM   50  N   UNL     1      -9.433  12.673  66.423  1.00  0.00    -0.267 NA 
HETATM   51  H   UNL     1      -9.659  11.814  66.924  1.00  0.00     0.000 HD 
BRANCH  50  52
HETATM   52  C   UNL     1     -10.458  13.710  66.639  1.00  0.00    -0.272 C  
BRANCH  52  53
HETATM   53  C   UNL     1     -11.808  13.077  66.985  1.00  0.00    -0.377 C  
HETATM   54  O   UNL     1     -12.100  12.000  66.099  1.00  0.00    -0.582 OA 
HETATM   55  H   UNL     1     -12.939  11.607  66.313  1.00  0.00     0.000 HD 
ENDBRANCH  52  53
ENDBRANCH  50  52
ENDBRANCH  49  50
ENDBRANCH  46  49
ENDBRANCH  39  40
ENDBRANCH  26  39
ENDBRANCH  15  16
ENDBRANCH   6  15
ENDBRANCH   2   4
TORSDOF 13
ENDMDL
MODEL      179
REMARK 921   NORMALIZED FREE ENERGY PREDICTED BY IDOCK:   -1.20 KCAL/MOL
REMARK 922        TOTAL FREE ENERGY PREDICTED BY IDOCK:   -5.57 KCAL/MOL
REMARK 923 INTER-LIGAND FREE ENERGY PREDICTED BY IDOCK:   -5.28 KCAL/MOL
REMARK 924 INTRA-LIGAND FREE ENERGY PREDICTED BY IDOCK:   -0.29 KCAL/MOL
REMARK 927      BINDING AFFINITY PREDICTED BY RF-SCORE:    0.00 PKD
ROOT
HETATM    1  C   UNL     1     -11.577   6.485  68.021  1.00  0.00     0.593 C  
HETATM    2  N   UNL     1     -11.017   5.687  66.935  1.00  0.00    -0.494 NA 
HETATM    3  H   UNL     1     -11.287   6.084  66.034  1.00  0.00     0.000 HD 
ENDROOT
BRANCH   2   4
HETATM    4  C   UNL     1      -9.537   5.485  66.980  1.00  0.00    -0.137 C  
HETATM    5  C   UNL     1      -8.809   6.170  65.796  1.00  0.00    -0.124 C  
HETATM    6  C   UNL     1      -7.280   6.069  65.999  1.00  0.00    -0.075 C  
HETATM    7  O   UNL     1      -9.226   7.530  65.652  1.00  0.00    -0.388 OA 
HETATM    8  H   UNL     1      -8.779   7.949  64.926  1.00  0.00     0.000 HD 
HETATM    9  O   UNL     1      -9.451   3.189  66.082  1.00  0.00    -0.317 OA 
HETATM   10  O   UNL     1      -6.909   4.690  66.034  1.00  0.00    -0.055 OA 
HETATM   11  H   UNL     1      -9.130   2.303  66.194  1.00  0.00     0.000 HD 
HETATM   12  C   UNL     1      -7.462   4.008  67.172  1.00  0.00    -0.073 C  
HETATM   13  C   UNL     1      -9.509   3.389  68.465  1.00  0.00    -0.209 C  
HETATM   14  C   UNL     1      -9.006   4.024  67.163  1.00  0.00    -0.133 C  
BRANCH   6  15
HETATM   15  O   UNL     1      -6.881   6.743  67.194  1.00  0.00    -0.064 OA 
BRANCH  15  16
HETATM   16  C   UNL     1      -6.901   8.180  67.150  1.00  0.00    -0.070 C  
HETATM   17  H1  UNL     1      -6.526  10.660  70.838  1.00  0.00     0.000 HD 
HETATM   18  C   UNL     1      -8.223   8.811  67.644  1.00  0.00    -0.110 C  
HETATM   19  C   UNL     1      -5.711   8.669  68.020  1.00  0.00    -0.035 C  
HETATM   20  H2  UNL     1      -8.191  10.698  70.574  1.00  0.00     0.000 HD 
HETATM   21  C   UNL     1      -7.288   8.903  70.042  1.00  0.00    -0.056 C  
HETATM   22  C   UNL     1      -8.443   8.458  69.125  1.00  0.00    -0.123 C  
HETATM   23  O   UNL     1      -5.490  10.081  67.806  1.00  0.00    -0.039 OA 
HETATM   24  H   UNL     1      -4.762  10.380  68.339  1.00  0.00     0.000 HD 
HETATM   25  N   UNL     1      -7.290  10.365  70.231  1.00  0.00    -0.218 NA 
HETATM   26  C   UNL     1      -5.921   8.357  69.530  1.00  0.00    -0.033 C  
BRANCH  18  27
HETATM   27  N   UNL     1      -8.261  10.252  67.389  1.00  0.00    -0.114 N  
HETATM   28  H   UNL     1      -7.401  10.717  67.099  1.00  0.00     0.000 HD 
HETATM   29  C   UNL     1      -9.402  11.010  67.522  1.00  0.00    -0.159 C  
HETATM   30  O   UNL     1     -10.496  10.553  67.837  1.00  0.00    -0.184 OA 
BRANCH  29  31
HETATM   31  C   UNL     1      -9.208  12.502  67.210  1.00  0.00    -0.190 C  
HETATM   32  H   UNL     1      -8.963  13.630  65.609  1.00  0.00     0.000 HD 
HETATM   33  O   UNL     1      -9.083  12.708  65.802  1.00  0.00     0.059 OA 
BRANCH  31  34
HETATM   34  C   UNL     1     -10.389  13.327  67.720  1.00  0.00    -0.233 C  
BRANCH  34  35
HETATM   35  C   UNL     1     -10.008  14.175  68.934  1.00  0.00    -0.127 C  
HETATM   36  H1  UNL     1     -10.784  14.648  70.771  1.00  0.00     0.000 HD 
HETATM   37  H2  UNL     1     -11.231  13.115  70.220  1.00  0.00     0.000 HD 
HETATM   38  N   UNL     1     -11.038  14.083  69.962  1.00  0.00    -0.014 NA 
ENDBRANCH  34  35
ENDBRANCH  31  34
ENDBRANCH  29  31
ENDBRANCH  18  27
BRANCH  26  39
HETATM   39  O   UNL     1      -5.936   6.966  69.845  1.00  0.00    -0.022 OA 
BRANCH  39  40
HETATM   40  C   UNL     1      -6.745   6.524  70.939  1.00  0.00    -0.054 C  
HETATM   41  H1  UNL     1      -4.590   3.820  71.310  1.00  0.00     0.000 HD 
HETATM   42  O   UNL     1      -8.029   6.072  70.496  1.00  0.00    -0.106 OA 
HETATM   43  H2  UNL     1      -4.516   5.083  70.215  1.00  0.00     0.000 HD 
HETATM   44  N   UNL     1      -5.128   4.534  70.819  1.00  0.00     0.000 NA 
HETATM   45  C   UNL     1      -5.920   5.428  71.693  1.00  0.00    -0.028 C  
HETATM   46  C   UNL     1      -8.793   5.495  71.498  1.00  0.00    -0.136 C  
HETATM   47  C   UNL     1      -6.777   4.654  72.705  1.00  0.00    -0.052 C  
HETATM   48  C   UNL     1      -8.246   4.843  72.535  1.00  0.00    -0.115 C  
BRANCH  46  49
HETATM   49  C   UNL     1     -10.290   5.608  71.316  1.00  0.00    -0.228 C  
BRANCH  49  50
HETATM   50  N   UNL     1     -10.817   6.933  71.655  1.00  0.00    -0.223 NA 
HETATM   51  H   UNL     1     -10.387   7.662  71.086  1.00  0.00     0.000 HD 
BRANCH  50  52
HETATM   52  C   UNL     1     -12.287   6.970  71.558  1.00  0.00    -0.379 C  
BRANCH  52  53
HETATM   53  C   UNL     1     -12.810   8.396  71.746  1.00  0.00    -0.345 C  
HETATM   54  O   UNL     1     -12.753   9.118  70.519  1.00  0.00    -0.471 OA 
HETATM   55  H   UNL     1     -13.078  10.003  70.636  1.00  0.00     0.000 HD 
ENDBRANCH  52  53
ENDBRANCH  50  52
ENDBRANCH  49  50
ENDBRANCH  46  49
ENDBRANCH  39  40
ENDBRANCH  26  39
ENDBRANCH  15  16
ENDBRANCH   6  15
ENDBRANCH   2   4
TORSDOF 13
ENDMDL
MODEL      180
REMARK 921   NORMALIZED FREE ENERGY PREDICTED BY IDOCK:   -1.09 KCAL/MOL
REMARK 922        TOTAL FREE ENERGY PREDICTED BY IDOCK:   -5.38 KCAL/MOL
REMARK 923 INTER-LIGAND FREE ENERGY PREDICTED BY IDOCK:   -7.02 KCAL/MOL
REMARK 924 INTRA-LIGAND FREE ENERGY PREDICTED BY IDOCK:    1.64 KCAL/MOL
REMARK 927      BINDING AFFINITY PREDICTED BY RF-SCORE:    0.00 PKD
ROOT
HETATM    1  C   UNL     1      -5.435  15.937  71.097  1.00  0.00     0.092 C  
HETATM    2  N   UNL     1      -5.210  14.575  70.624  1.00  0.00    -0.114 NA 
HETATM    3  H   UNL     1      -5.186  13.930  71.414  1.00  0.00     0.000 HD 
ENDROOT
BRANCH   2   4
HETATM    4  C   UNL     1      -6.174  14.083  69.594  1.00  0.00    -0.127 C  
HETATM    5  C   UNL     1      -5.919  12.605  69.201  1.00  0.00    -0.086 C  
HETATM    6  C   UNL     1      -7.049  12.114  68.268  1.00  0.00    -0.084 C  
HETATM    7  O   UNL     1      -5.803  11.777  70.360  1.00  0.00    -0.150 OA 
HETATM    8  H   UNL     1      -5.647  10.871  70.119  1.00  0.00     0.000 HD 
HETATM    9  O   UNL     1      -5.130  15.095  67.601  1.00  0.00    -0.281 OA 
HETATM   10  O   UNL     1      -7.050  12.913  67.084  1.00  0.00    -0.106 OA 
HETATM   11  H   UNL     1      -5.251  15.624  66.821  1.00  0.00     0.000 HD 
HETATM   12  C   UNL     1      -7.388  14.284  67.355  1.00  0.00    -0.128 C  
HETATM   13  C   UNL     1      -6.871  16.364  68.640  1.00  0.00    -0.152 C  
HETATM   14  C   UNL     1      -6.373  14.953  68.308  1.00  0.00    -0.121 C  
BRANCH   6  15
HETATM   15  O   UNL     1      -8.314  12.168  68.932  1.00  0.00     0.011 OA 
BRANCH  15  16
HETATM   16  C   UNL     1      -9.476  12.075  68.091  1.00  0.00    -0.200 C  
HETATM   17  H1  UNL     1     -11.661   8.231  67.507  1.00  0.00     0.000 HD 
HETATM   18  C   UNL     1      -9.221  11.385  66.731  1.00  0.00    -0.177 C  
HETATM   19  C   UNL     1     -10.549  11.295  68.900  1.00  0.00    -0.207 C  
HETATM   20  H2  UNL     1     -10.736   8.310  66.099  1.00  0.00     0.000 HD 
HETATM   21  C   UNL     1      -9.799   9.102  67.777  1.00  0.00    -0.174 C  
HETATM   22  C   UNL     1      -8.783   9.928  66.965  1.00  0.00    -0.137 C  
HETATM   23  O   UNL     1     -11.832  11.397  68.244  1.00  0.00    -0.501 OA 
HETATM   24  H   UNL     1     -12.489  10.920  68.739  1.00  0.00     0.000 HD 
HETATM   25  N   UNL     1     -10.989   8.777  66.969  1.00  0.00     0.054 NA 
HETATM   26  C   UNL     1     -10.150   9.808  69.122  1.00  0.00    -0.192 C  
BRANCH  18  27
HETATM   27  N   UNL     1     -10.380  11.497  65.844  1.00  0.00    -0.239 N  
HETATM   28  H   UNL     1     -10.700  10.661  65.355  1.00  0.00     0.000 HD 
HETATM   29  C   UNL     1     -11.058  12.676  65.637  1.00  0.00    -0.292 C  
HETATM   30  O   UNL     1     -10.779  13.734  66.192  1.00  0.00    -0.280 OA 
BRANCH  29  31
HETATM   31  C   UNL     1     -12.238  12.562  64.660  1.00  0.00    -0.453 C  
HETATM   32  H   UNL     1     -14.200  12.770  64.722  1.00  0.00     0.000 HD 
HETATM   33  O   UNL     1     -13.470  12.841  65.327  1.00  0.00    -0.277 OA 
BRANCH  31  34
HETATM   34  C   UNL     1     -12.082  13.540  63.495  1.00  0.00    -0.425 C  
BRANCH  34  35
HETATM   35  C   UNL     1     -11.788  14.959  63.981  1.00  0.00    -0.034 C  
HETATM   36  H1  UNL     1     -12.834  16.631  64.540  1.00  0.00     0.000 HD 
HETATM   37  H2  UNL     1     -13.646  15.184  64.857  1.00  0.00     0.000 HD 
HETATM   38  N   UNL     1     -13.030  15.684  64.217  1.00  0.00    -0.098 NA 
ENDBRANCH  34  35
ENDBRANCH  31  34
ENDBRANCH  29  31
ENDBRANCH  18  27
BRANCH  26  39
HETATM   39  O   UNL     1      -9.001   9.625  69.947  1.00  0.00    -0.189 OA 
BRANCH  39  40
HETATM   40  C   UNL     1      -8.921   8.446  70.753  1.00  0.00    -0.155 C  
HETATM   41  H1  UNL     1      -5.456   8.651  70.532  1.00  0.00     0.000 HD 
HETATM   42  O   UNL     1      -9.390   7.292  70.047  1.00  0.00    -0.155 OA 
HETATM   43  H2  UNL     1      -6.614   9.673  69.889  1.00  0.00     0.000 HD 
HETATM   44  N   UNL     1      -6.425   8.728  70.222  1.00  0.00    -0.038 NA 
HETATM   45  C   UNL     1      -7.434   8.328  71.228  1.00  0.00    -0.081 C  
HETATM   46  C   UNL     1      -9.194   6.103  70.730  1.00  0.00    -0.154 C  
HETATM   47  C   UNL     1      -7.134   6.957  71.851  1.00  0.00    -0.074 C  
HETATM   48  C   UNL     1      -8.170   5.919  71.577  1.00  0.00    -0.119 C  
BRANCH  46  49
HETATM   49  C   UNL     1     -10.188   5.007  70.419  1.00  0.00    -0.254 C  
BRANCH  49  50
HETATM   50  N   UNL     1     -10.463   4.862  68.986  1.00  0.00    -0.024 NA 
HETATM   51  H   UNL     1     -11.302   5.375  68.714  1.00  0.00     0.000 HD 
BRANCH  50  52
HETATM   52  C   UNL     1      -9.301   5.258  68.172  1.00  0.00    -0.118 C  
BRANCH  52  53
HETATM   53  C   UNL     1      -9.669   5.310  66.687  1.00  0.00    -0.164 C  
HETATM   54  O   UNL     1     -10.981   5.838  66.512  1.00  0.00    -0.617 OA 
HETATM   55  H   UNL     1     -11.209   5.870  65.590  1.00  0.00     0.000 HD 
ENDBRANCH  52  53
ENDBRANCH  50  52
ENDBRANCH  49  50
ENDBRANCH  46  49
ENDBRANCH  39  40
ENDBRANCH  26  39
ENDBRANCH  15  16
ENDBRANCH   6  15
ENDBRANCH   2   4
TORSDOF 13
ENDMDL
MODEL      181
REMARK 921   NORMALIZED FREE ENERGY PREDICTED BY IDOCK:   -1.07 KCAL/MOL
REMARK 922        TOTAL FREE ENERGY PREDICTED BY IDOCK:   -5.34 KCAL/MOL
REMARK 923 INTER-LIGAND FREE ENERGY PREDICTED BY IDOCK:   -6.08 KCAL/MOL
REMARK 924 INTRA-LIGAND FREE ENERGY PREDICTED BY IDOCK:    0.74 KCAL/MOL
REMARK 927      BINDING AFFINITY PREDICTED BY RF-SCORE:    0.00 PKD
ROOT
HETATM    1  C   UNL     1      -5.451  15.995  71.118  1.00  0.00     0.104 C  
HETATM    2  N   UNL     1      -6.431  16.462  70.142  1.00  0.00     0.029 NA 
HETATM    3  H   UNL     1      -6.029  17.204  69.570  1.00  0.00     0.000 HD 
ENDROOT
BRANCH   2   4
HETATM    4  C   UNL     1      -7.022  15.406  69.266  1.00  0.00    -0.168 C  
HETATM    5  C   UNL     1      -8.023  14.497  70.024  1.00  0.00     0.630 C  
HETATM    6  C   UNL     1      -8.721  13.546  69.026  1.00  0.00     0.370 C  
HETATM    7  O   UNL     1      -8.975  15.275  70.754  1.00  0.00     0.547 OA 
HETATM    8  H   UNL     1      -9.588  14.718  71.219  1.00  0.00     0.000 HD 
HETATM    9  O   UNL     1      -5.132  13.822  69.272  1.00  0.00    -0.081 OA 
HETATM   10  O   UNL     1      -7.732  12.726  68.403  1.00  0.00    -0.126 OA 
HETATM   11  H   UNL     1      -4.537  13.291  68.757  1.00  0.00     0.000 HD 
HETATM   12  C   UNL     1      -6.826  13.490  67.589  1.00  0.00    -0.170 C  
HETATM   13  C   UNL     1      -5.196  15.380  67.459  1.00  0.00     0.046 C  
HETATM   14  C   UNL     1      -6.041  14.531  68.416  1.00  0.00    -0.101 C  
BRANCH   6  15
HETATM   15  O   UNL     1      -9.465  14.287  68.056  1.00  0.00    -0.192 OA 
BRANCH  15  16
HETATM   16  C   UNL     1      -9.562  13.701  66.747  1.00  0.00    -0.275 C  
HETATM   17  H1  UNL     1     -12.717  14.926  63.842  1.00  0.00     0.000 HD 
HETATM   18  C   UNL     1     -10.724  12.693  66.589  1.00  0.00    -0.253 C  
HETATM   19  C   UNL     1      -9.726  14.875  65.744  1.00  0.00    -0.324 C  
HETATM   20  H2  UNL     1     -13.362  13.493  64.455  1.00  0.00     0.000 HD 
HETATM   21  C   UNL     1     -12.285  14.602  65.844  1.00  0.00    -0.156 C  
HETATM   22  C   UNL     1     -12.067  13.414  66.800  1.00  0.00    -0.419 C  
HETATM   23  O   UNL     1      -9.551  14.398  64.392  1.00  0.00    -0.265 OA 
HETATM   24  H   UNL     1      -9.652  15.117  63.778  1.00  0.00     0.000 HD 
HETATM   25  N   UNL     1     -12.573  14.139  64.474  1.00  0.00    -0.675 NA 
HETATM   26  C   UNL     1     -11.091  15.603  65.910  1.00  0.00    -0.155 C  
BRANCH  18  27
HETATM   27  N   UNL     1     -10.652  11.984  65.310  1.00  0.00    -0.276 N  
HETATM   28  H   UNL     1     -11.134  12.384  64.505  1.00  0.00     0.000 HD 
HETATM   29  C   UNL     1      -9.965  10.803  65.143  1.00  0.00    -0.291 C  
HETATM   30  O   UNL     1      -9.328  10.248  66.031  1.00  0.00    -0.166 OA 
BRANCH  29  31
HETATM   31  C   UNL     1     -10.031  10.233  63.717  1.00  0.00    -0.034 C  
HETATM   32  H   UNL     1     -10.192  10.934  61.879  1.00  0.00     0.000 HD 
HETATM   33  O   UNL     1     -10.151  11.287  62.760  1.00  0.00    -0.222 OA 
BRANCH  31  34
HETATM   34  C   UNL     1      -8.777   9.422  63.392  1.00  0.00    -0.219 C  
BRANCH  34  35
HETATM   35  C   UNL     1      -7.593  10.322  63.038  1.00  0.00    -0.136 C  
HETATM   36  H1  UNL     1      -5.637  10.567  63.602  1.00  0.00     0.000 HD 
HETATM   37  H2  UNL     1      -6.192   8.979  63.749  1.00  0.00     0.000 HD 
HETATM   38  N   UNL     1      -6.427   9.967  63.838  1.00  0.00    -0.121 NA 
ENDBRANCH  34  35
ENDBRANCH  31  34
ENDBRANCH  29  31
ENDBRANCH  18  27
BRANCH  26  39
HETATM   39  O   UNL     1     -11.247  16.283  67.154  1.00  0.00    -0.092 OA 
BRANCH  39  40
HETATM   40  C   UNL     1     -10.740  17.616  67.270  1.00  0.00    -0.231 C  
HETATM   41  H1  UNL     1     -11.454  18.074  63.897  1.00  0.00     0.000 HD 
HETATM   42  O   UNL     1      -9.324  17.625  67.478  1.00  0.00    -0.245 OA 
HETATM   43  H2  UNL     1     -11.714  16.726  64.855  1.00  0.00     0.000 HD 
HETATM   44  N   UNL     1     -11.161  17.576  64.738  1.00  0.00    -0.812 NA 
HETATM   45  C   UNL     1     -11.189  18.380  65.980  1.00  0.00     0.831 C  
HETATM   46  C   UNL     1      -8.764  18.892  67.447  1.00  0.00    -0.274 C  
HETATM   47  C   UNL     1     -10.468  19.727  65.826  1.00  0.00    -0.545 C  
HETATM   48  C   UNL     1      -9.274  19.886  66.704  1.00  0.00    -0.483 C  
BRANCH  46  49
HETATM   49  C   UNL     1      -7.509  19.065  68.272  1.00  0.00    -0.292 C  
BRANCH  49  50
HETATM   50  N   UNL     1      -7.106  20.466  68.430  1.00  0.00    -0.204 NA 
HETATM   51  H   UNL     1      -6.633  20.620  69.320  1.00  0.00     0.000 HD 
BRANCH  50  52
HETATM   52  C   UNL     1      -6.284  20.922  67.295  1.00  0.00    -0.292 C  
BRANCH  52  53
HETATM   53  C   UNL     1      -5.530  19.749  66.663  1.00  0.00    -0.165 C  
HETATM   54  O   UNL     1      -5.985  19.519  65.332  1.00  0.00    -0.180 OA 
HETATM   55  H   UNL     1      -5.517  18.791  64.939  1.00  0.00     0.000 HD 
ENDBRANCH  52  53
ENDBRANCH  50  52
ENDBRANCH  49  50
ENDBRANCH  46  49
ENDBRANCH  39  40
ENDBRANCH  26  39
ENDBRANCH  15  16
ENDBRANCH   6  15
ENDBRANCH   2   4
TORSDOF 13
ENDMDL
MODEL      182
REMARK 921   NORMALIZED FREE ENERGY PREDICTED BY IDOCK:   -0.89 KCAL/MOL
REMARK 922        TOTAL FREE ENERGY PREDICTED BY IDOCK:   -5.03 KCAL/MOL
REMARK 923 INTER-LIGAND FREE ENERGY PREDICTED BY IDOCK:   -6.37 KCAL/MOL
REMARK 924 INTRA-LIGAND FREE ENERGY PREDICTED BY IDOCK:    1.34 KCAL/MOL
REMARK 927      BINDING AFFINITY PREDICTED BY RF-SCORE:    0.00 PKD
ROOT
HETATM    1  C   UNL     1     -10.397  14.331  65.740  1.00  0.00    -0.327 C  
HETATM    2  N   UNL     1      -9.400  13.433  66.313  1.00  0.00    -0.450 NA 
HETATM    3  H   UNL     1      -9.453  13.457  67.332  1.00  0.00     0.000 HD 
ENDROOT
BRANCH   2   4
HETATM    4  C   UNL     1      -9.454  12.019  65.833  1.00  0.00    -0.197 C  
HETATM    5  C   UNL     1      -8.064  11.334  65.848  1.00  0.00     0.050 C  
HETATM    6  C   UNL     1      -8.220   9.835  65.508  1.00  0.00    -0.129 C  
HETATM    7  O   UNL     1      -7.413  11.517  67.107  1.00  0.00    -0.126 OA 
HETATM    8  H   UNL     1      -6.560  11.097  67.116  1.00  0.00     0.000 HD 
HETATM    9  O   UNL     1      -9.535  12.457  63.408  1.00  0.00    -0.650 OA 
HETATM   10  O   UNL     1      -8.781   9.715  64.199  1.00  0.00    -0.188 OA 
HETATM   11  H   UNL     1      -9.973  12.287  62.582  1.00  0.00     0.000 HD 
HETATM   12  C   UNL     1     -10.120  10.233  64.133  1.00  0.00    -0.062 C  
HETATM   13  C   UNL     1     -11.644  12.179  64.500  1.00  0.00    -0.403 C  
HETATM   14  C   UNL     1     -10.176  11.738  64.473  1.00  0.00    -0.284 C  
BRANCH   6  15
HETATM   15  O   UNL     1      -9.032   9.176  66.482  1.00  0.00    -0.137 OA 
BRANCH  15  16
HETATM   16  C   UNL     1      -9.393   9.952  67.637  1.00  0.00    -0.140 C  
HETATM   17  H1  UNL     1      -9.637   8.147  71.708  1.00  0.00     0.000 HD 
HETATM   18  C   UNL     1     -10.829   9.697  68.148  1.00  0.00    -0.190 C  
HETATM   19  C   UNL     1      -8.357   9.610  68.744  1.00  0.00    -0.111 C  
HETATM   20  H2  UNL     1     -11.262   8.188  71.260  1.00  0.00     0.000 HD 
HETATM   21  C   UNL     1      -9.956   7.823  69.685  1.00  0.00    -0.190 C  
HETATM   22  C   UNL     1     -10.967   8.232  68.597  1.00  0.00     0.161 C  
HETATM   23  O   UNL     1      -8.477  10.546  69.838  1.00  0.00    -0.380 OA 
HETATM   24  H   UNL     1      -7.844  10.337  70.515  1.00  0.00     0.000 HD 
HETATM   25  N   UNL     1     -10.306   8.417  70.989  1.00  0.00    -0.193 NA 
HETATM   26  C   UNL     1      -8.495   8.143  69.243  1.00  0.00    -0.134 C  
BRANCH  18  27
HETATM   27  N   UNL     1     -11.207  10.651  69.192  1.00  0.00    -0.246 N  
HETATM   28  H   UNL     1     -10.869  10.493  70.141  1.00  0.00     0.000 HD 
HETATM   29  C   UNL     1     -11.999  11.752  68.954  1.00  0.00    -0.271 C  
HETATM   30  O   UNL     1     -12.438  12.055  67.850  1.00  0.00    -0.117 OA 
BRANCH  29  31
HETATM   31  C   UNL     1     -12.273  12.611  70.199  1.00  0.00    -0.238 C  
HETATM   32  H   UNL     1     -12.360  12.350  72.153  1.00  0.00     0.000 HD 
HETATM   33  O   UNL     1     -12.191  11.819  71.384  1.00  0.00    -0.134 OA 
BRANCH  31  34
HETATM   34  C   UNL     1     -11.265  13.756  70.307  1.00  0.00     0.181 C  
BRANCH  34  35
HETATM   35  C   UNL     1     -11.824  15.061  69.739  1.00  0.00    -0.321 C  
HETATM   36  H1  UNL     1     -11.865  17.049  70.235  1.00  0.00     0.000 HD 
HETATM   37  H2  UNL     1     -10.490  16.240  70.790  1.00  0.00     0.000 HD 
HETATM   38  N   UNL     1     -11.492  16.179  70.614  1.00  0.00    -0.390 NA 
ENDBRANCH  34  35
ENDBRANCH  31  34
ENDBRANCH  29  31
ENDBRANCH  18  27
BRANCH  26  39
HETATM   39  O   UNL     1      -8.181   7.157  68.262  1.00  0.00    -0.122 OA 
BRANCH  39  40
HETATM   40  C   UNL     1      -7.193   6.171  68.579  1.00  0.00    -0.084 C  
HETATM   41  H1  UNL     1      -5.896   6.587  65.379  1.00  0.00     0.000 HD 
HETATM   42  O   UNL     1      -7.772   4.869  68.709  1.00  0.00    -0.075 OA 
HETATM   43  H2  UNL     1      -7.186   7.371  66.103  1.00  0.00     0.000 HD 
HETATM   44  N   UNL     1      -6.611   6.528  66.104  1.00  0.00    -0.046 NA 
HETATM   45  C   UNL     1      -6.096   6.262  67.466  1.00  0.00    -0.018 C  
HETATM   46  C   UNL     1      -6.838   3.857  68.867  1.00  0.00    -0.046 C  
HETATM   47  C   UNL     1      -5.131   5.069  67.508  1.00  0.00    -0.004 C  
HETATM   48  C   UNL     1      -5.609   3.923  68.335  1.00  0.00    -0.017 C  
BRANCH  46  49
HETATM   49  C   UNL     1      -7.318   2.649  69.641  1.00  0.00    -0.044 C  
BRANCH  49  50
HETATM   50  N   UNL     1      -8.686   2.249  69.302  1.00  0.00    -0.072 NA 
HETATM   51  H   UNL     1      -8.840   1.257  69.481  1.00  0.00     0.000 HD 
BRANCH  50  52
HETATM   52  C   UNL     1      -9.681   3.082  70.001  1.00  0.00     0.042 C  
BRANCH  52  53
HETATM   53  C   UNL     1      -9.324   3.230  71.482  1.00  0.00    -0.134 C  
HETATM   54  O   UNL     1      -9.606   4.551  71.938  1.00  0.00    -0.140 OA 
HETATM   55  H   UNL     1      -9.385   4.642  72.857  1.00  0.00     0.000 HD 
ENDBRANCH  52  53
ENDBRANCH  50  52
ENDBRANCH  49  50
ENDBRANCH  46  49
ENDBRANCH  39  40
ENDBRANCH  26  39
ENDBRANCH  15  16
ENDBRANCH   6  15
ENDBRANCH   2   4
TORSDOF 13
ENDMDL
MODEL      183
REMARK 921   NORMALIZED FREE ENERGY PREDICTED BY IDOCK:   -0.87 KCAL/MOL
REMARK 922        TOTAL FREE ENERGY PREDICTED BY IDOCK:   -4.99 KCAL/MOL
REMARK 923 INTER-LIGAND FREE ENERGY PREDICTED BY IDOCK:   -4.57 KCAL/MOL
REMARK 924 INTRA-LIGAND FREE ENERGY PREDICTED BY IDOCK:   -0.42 KCAL/MOL
REMARK 927      BINDING AFFINITY PREDICTED BY RF-SCORE:    0.00 PKD
ROOT
HETATM    1  C   UNL     1      -5.125   3.266  68.239  1.00  0.00    -0.011 C  
HETATM    2  N   UNL     1      -5.567   3.008  69.606  1.00  0.00    -0.017 NA 
HETATM    3  H   UNL     1      -4.843   3.290  70.266  1.00  0.00     0.000 HD 
ENDROOT
BRANCH   2   4
HETATM    4  C   UNL     1      -6.873   3.625  69.988  1.00  0.00    -0.034 C  
HETATM    5  C   UNL     1      -6.743   4.591  71.192  1.00  0.00    -0.031 C  
HETATM    6  C   UNL     1      -8.087   5.320  71.421  1.00  0.00    -0.115 C  
HETATM    7  O   UNL     1      -5.675   5.520  70.995  1.00  0.00    -0.012 OA 
HETATM    8  H   UNL     1      -5.595   6.112  71.734  1.00  0.00     0.000 HD 
HETATM    9  O   UNL     1      -7.825   1.726  71.241  1.00  0.00    -0.039 OA 
HETATM   10  O   UNL     1      -9.094   4.350  71.713  1.00  0.00    -0.121 OA 
HETATM   11  H   UNL     1      -8.567   1.147  71.367  1.00  0.00     0.000 HD 
HETATM   12  C   UNL     1      -9.350   3.480  70.597  1.00  0.00    -0.160 C  
HETATM   13  C   UNL     1      -8.420   1.868  68.929  1.00  0.00    -0.086 C  
HETATM   14  C   UNL     1      -8.097   2.671  70.194  1.00  0.00    -0.041 C  
BRANCH   6  15
HETATM   15  O   UNL     1      -8.439   6.104  70.280  1.00  0.00    -0.122 OA 
BRANCH  15  16
HETATM   16  C   UNL     1      -9.807   6.541  70.207  1.00  0.00    -0.168 C  
HETATM   17  H1  UNL     1     -11.197   9.437  67.112  1.00  0.00     0.000 HD 
HETATM   18  C   UNL     1     -10.041   7.979  70.724  1.00  0.00    -0.192 C  
HETATM   19  C   UNL     1     -10.232   6.427  68.717  1.00  0.00    -0.177 C  
HETATM   20  H2  UNL     1     -11.021  10.439  68.457  1.00  0.00     0.000 HD 
HETATM   21  C   UNL     1      -9.625   8.903  68.355  1.00  0.00    -0.146 C  
HETATM   22  C   UNL     1      -9.261   8.977  69.850  1.00  0.00    -0.181 C  
HETATM   23  O   UNL     1     -11.664   6.578  68.600  1.00  0.00    -0.496 OA 
HETATM   24  H   UNL     1     -11.924   6.508  67.688  1.00  0.00     0.000 HD 
HETATM   25  N   UNL     1     -10.956   9.486  68.102  1.00  0.00    -0.149 NA 
HETATM   26  C   UNL     1      -9.484   7.448  67.813  1.00  0.00    -0.140 C  
BRANCH  18  27
HETATM   27  N   UNL     1     -11.468   8.294  70.813  1.00  0.00    -0.294 N  
HETATM   28  H   UNL     1     -12.040   8.199  69.974  1.00  0.00     0.000 HD 
HETATM   29  C   UNL     1     -12.074   8.713  71.975  1.00  0.00    -0.375 C  
HETATM   30  O   UNL     1     -11.491   8.836  73.047  1.00  0.00     0.281 OA 
BRANCH  29  31
HETATM   31  C   UNL     1     -13.579   8.994  71.835  1.00  0.00    -0.431 C  
HETATM   32  H   UNL     1     -15.223   8.644  72.869  1.00  0.00     0.000 HD 
HETATM   33  O   UNL     1     -14.293   8.471  72.956  1.00  0.00    -0.324 OA 
BRANCH  31  34
HETATM   34  C   UNL     1     -13.850  10.495  71.742  1.00  0.00     0.125 C  
BRANCH  34  35
HETATM   35  C   UNL     1     -12.610  11.271  71.298  1.00  0.00    -0.382 C  
HETATM   36  H1  UNL     1     -11.993  12.371  69.682  1.00  0.00     0.000 HD 
HETATM   37  H2  UNL     1     -13.660  12.431  69.947  1.00  0.00     0.000 HD 
HETATM   38  N   UNL     1     -12.820  11.854  69.978  1.00  0.00     0.270 NA 
ENDBRANCH  34  35
ENDBRANCH  31  34
ENDBRANCH  29  31
ENDBRANCH  18  27
BRANCH  26  39
HETATM   39  O   UNL     1      -8.079   7.225  67.713  1.00  0.00    -0.113 OA 
BRANCH  39  40
HETATM   40  C   UNL     1      -7.470   7.280  66.420  1.00  0.00    -0.084 C  
HETATM   41  H1  UNL     1      -7.149  10.719  66.828  1.00  0.00     0.000 HD 
HETATM   42  O   UNL     1      -8.412   6.995  65.381  1.00  0.00    -0.140 OA 
HETATM   43  H2  UNL     1      -7.781   9.587  67.887  1.00  0.00     0.000 HD 
HETATM   44  N   UNL     1      -7.580   9.798  66.909  1.00  0.00    -0.095 NA 
HETATM   45  C   UNL     1      -6.809   8.694  66.296  1.00  0.00    -0.070 C  
HETATM   46  C   UNL     1      -7.909   7.182  64.104  1.00  0.00    -0.113 C  
HETATM   47  C   UNL     1      -6.379   9.005  64.855  1.00  0.00    -0.066 C  
HETATM   48  C   UNL     1      -6.963   8.093  63.830  1.00  0.00    -0.075 C  
BRANCH  46  49
HETATM   49  C   UNL     1      -8.534   6.321  63.030  1.00  0.00     0.170 C  
BRANCH  49  50
HETATM   50  N   UNL     1      -8.866   4.969  63.490  1.00  0.00    -0.302 NA 
HETATM   51  H   UNL     1      -9.501   4.501  62.843  1.00  0.00     0.000 HD 
BRANCH  50  52
HETATM   52  C   UNL     1      -7.654   4.168  63.730  1.00  0.00    -0.070 C  
BRANCH  52  53
HETATM   53  C   UNL     1      -7.028   3.716  62.408  1.00  0.00    -0.035 C  
HETATM   54  O   UNL     1      -5.628   3.498  62.563  1.00  0.00    -0.008 OA 
HETATM   55  H   UNL     1      -5.240   3.217  61.743  1.00  0.00     0.000 HD 
ENDBRANCH  52  53
ENDBRANCH  50  52
ENDBRANCH  49  50
ENDBRANCH  46  49
ENDBRANCH  39  40
ENDBRANCH  26  39
ENDBRANCH  15  16
ENDBRANCH   6  15
ENDBRANCH   2   4
TORSDOF 13
ENDMDL
MODEL      184
REMARK 921   NORMALIZED FREE ENERGY PREDICTED BY IDOCK:   -0.79 KCAL/MOL
REMARK 922        TOTAL FREE ENERGY PREDICTED BY IDOCK:   -4.85 KCAL/MOL
REMARK 923 INTER-LIGAND FREE ENERGY PREDICTED BY IDOCK:   -4.81 KCAL/MOL
REMARK 924 INTRA-LIGAND FREE ENERGY PREDICTED BY IDOCK:   -0.04 KCAL/MOL
REMARK 927      BINDING AFFINITY PREDICTED BY RF-SCORE:    0.00 PKD
ROOT
HETATM    1  C   UNL     1     -12.184  15.700  68.627  1.00  0.00     0.115 C  
HETATM    2  N   UNL     1     -11.079  16.000  67.721  1.00  0.00    -0.308 NA 
HETATM    3  H   UNL     1     -10.741  16.948  67.886  1.00  0.00     0.000 HD 
ENDROOT
BRANCH   2   4
HETATM    4  C   UNL     1      -9.938  15.037  67.756  1.00  0.00    -0.229 C  
HETATM    5  C   UNL     1      -9.606  14.562  69.193  1.00  0.00    -0.027 C  
HETATM    6  C   UNL     1      -8.539  13.446  69.137  1.00  0.00     0.575 C  
HETATM    7  O   UNL     1     -10.783  14.123  69.875  1.00  0.00    -0.453 OA 
HETATM    8  H   UNL     1     -10.579  13.832  70.757  1.00  0.00     0.000 HD 
HETATM    9  O   UNL     1      -8.086  16.654  67.551  1.00  0.00    -0.162 OA 
HETATM   10  O   UNL     1      -7.353  13.970  68.538  1.00  0.00    -0.101 OA 
HETATM   11  H   UNL     1      -7.289  16.898  67.096  1.00  0.00     0.000 HD 
HETATM   12  C   UNL     1      -7.555  14.335  67.162  1.00  0.00     0.032 C  
HETATM   13  C   UNL     1      -8.864  15.678  65.511  1.00  0.00     0.744 C  
HETATM   14  C   UNL     1      -8.623  15.439  67.006  1.00  0.00    -0.234 C  
BRANCH   6  15
HETATM   15  O   UNL     1      -9.027  12.313  68.414  1.00  0.00    -0.188 OA 
BRANCH  15  16
HETATM   16  C   UNL     1      -8.897  11.039  69.067  1.00  0.00    -0.058 C  
HETATM   17  H1  UNL     1      -9.198   7.197  66.822  1.00  0.00     0.000 HD 
HETATM   18  C   UNL     1     -10.232  10.283  69.253  1.00  0.00    -0.227 C  
HETATM   19  C   UNL     1      -7.914  10.196  68.208  1.00  0.00    -0.101 C  
HETATM   20  H2  UNL     1     -10.736   7.310  67.504  1.00  0.00     0.000 HD 
HETATM   21  C   UNL     1      -9.908   9.140  66.967  1.00  0.00    -0.207 C  
HETATM   22  C   UNL     1     -10.841   9.962  67.877  1.00  0.00    -0.312 C  
HETATM   23  O   UNL     1      -7.513   9.014  68.934  1.00  0.00    -0.073 OA 
HETATM   24  H   UNL     1      -6.912   8.498  68.408  1.00  0.00     0.000 HD 
HETATM   25  N   UNL     1      -9.815   7.741  67.424  1.00  0.00    -0.161 NA 
HETATM   26  C   UNL     1      -8.516   9.826  66.822  1.00  0.00    -0.124 C  
BRANCH  18  27
HETATM   27  N   UNL     1     -10.068   9.097  70.094  1.00  0.00    -0.190 N  
HETATM   28  H   UNL     1      -9.423   8.368  69.787  1.00  0.00     0.000 HD 
HETATM   29  C   UNL     1     -10.741   8.917  71.281  1.00  0.00    -0.287 C  
HETATM   30  O   UNL     1     -11.516   9.737  71.761  1.00  0.00    -0.322 OA 
BRANCH  29  31
HETATM   31  C   UNL     1     -10.419   7.594  71.995  1.00  0.00    -0.213 C  
HETATM   32  H   UNL     1     -10.572   6.853  73.817  1.00  0.00     0.000 HD 
HETATM   33  O   UNL     1     -10.772   7.671  73.376  1.00  0.00    -0.379 OA 
BRANCH  31  34
HETATM   34  C   UNL     1     -11.181   6.430  71.361  1.00  0.00    -0.340 C  
BRANCH  34  35
HETATM   35  C   UNL     1     -12.503   6.885  70.743  1.00  0.00    -0.197 C  
HETATM   36  H1  UNL     1     -14.484   6.968  71.262  1.00  0.00     0.000 HD 
HETATM   37  H2  UNL     1     -13.431   7.110  72.576  1.00  0.00     0.000 HD 
HETATM   38  N   UNL     1     -13.602   6.665  71.674  1.00  0.00    -0.078 NA 
ENDBRANCH  34  35
ENDBRANCH  31  34
ENDBRANCH  29  31
ENDBRANCH  18  27
BRANCH  26  39
HETATM   39  O   UNL     1      -8.742  10.942  65.963  1.00  0.00    -0.176 OA 
BRANCH  39  40
HETATM   40  C   UNL     1      -9.791  10.855  64.993  1.00  0.00    -0.281 C  
HETATM   41  H1  UNL     1      -7.466  11.703  62.550  1.00  0.00     0.000 HD 
HETATM   42  O   UNL     1     -10.744  11.911  65.152  1.00  0.00    -0.273 OA 
HETATM   43  H2  UNL     1      -7.236  11.492  64.194  1.00  0.00     0.000 HD 
HETATM   44  N   UNL     1      -7.915  11.714  63.465  1.00  0.00     1.297 NA 
HETATM   45  C   UNL     1      -9.102  10.838  63.588  1.00  0.00    -0.212 C  
HETATM   46  C   UNL     1     -11.696  11.959  64.147  1.00  0.00    -0.340 C  
HETATM   47  C   UNL     1     -10.109  11.049  62.448  1.00  0.00     0.313 C  
HETATM   48  C   UNL     1     -11.438  11.559  62.892  1.00  0.00     0.388 C  
BRANCH  46  49
HETATM   49  C   UNL     1     -13.033  12.539  64.549  1.00  0.00    -0.122 C  
BRANCH  49  50
HETATM   50  N   UNL     1     -12.946  13.922  65.026  1.00  0.00    -0.752 NA 
HETATM   51  H   UNL     1     -12.903  13.963  66.044  1.00  0.00     0.000 HD 
BRANCH  50  52
HETATM   52  C   UNL     1     -11.813  14.635  64.409  1.00  0.00    -0.390 C  
BRANCH  52  53
HETATM   53  C   UNL     1     -12.189  16.085  64.093  1.00  0.00     0.427 C  
HETATM   54  O   UNL     1     -11.095  16.958  64.363  1.00  0.00    -1.184 OA 
HETATM   55  H   UNL     1     -11.329  17.858  64.167  1.00  0.00     0.000 HD 
ENDBRANCH  52  53
ENDBRANCH  50  52
ENDBRANCH  49  50
ENDBRANCH  46  49
ENDBRANCH  39  40
ENDBRANCH  26  39
ENDBRANCH  15  16
ENDBRANCH   6  15
ENDBRANCH   2   4
TORSDOF 13
ENDMDL
MODEL      185
REMARK 921   NORMALIZED FREE ENERGY PREDICTED BY IDOCK:   -0.78 KCAL/MOL
REMARK 922        TOTAL FREE ENERGY PREDICTED BY IDOCK:   -4.84 KCAL/MOL
REMARK 923 INTER-LIGAND FREE ENERGY PREDICTED BY IDOCK:   -5.20 KCAL/MOL
REMARK 924 INTRA-LIGAND FREE ENERGY PREDICTED BY IDOCK:    0.36 KCAL/MOL
REMARK 927      BINDING AFFINITY PREDICTED BY RF-SCORE:    0.00 PKD
ROOT
HETATM    1  C   UNL     1     -12.384  14.443  69.658  1.00  0.00    -0.255 C  
HETATM    2  N   UNL     1     -12.705  13.187  68.988  1.00  0.00     0.481 NA 
HETATM    3  H   UNL     1     -12.666  13.311  67.976  1.00  0.00     0.000 HD 
ENDROOT
BRANCH   2   4
HETATM    4  C   UNL     1     -11.875  12.012  69.390  1.00  0.00    -0.324 C  
HETATM    5  C   UNL     1     -11.420  11.163  68.176  1.00  0.00    -0.303 C  
HETATM    6  C   UNL     1     -10.431  10.073  68.645  1.00  0.00    -0.204 C  
HETATM    7  O   UNL     1     -10.844  11.986  67.159  1.00  0.00    -0.233 OA 
HETATM    8  H   UNL     1     -10.566  11.465  66.414  1.00  0.00     0.000 HD 
HETATM    9  O   UNL     1     -13.691  10.514  70.126  1.00  0.00     0.037 OA 
HETATM   10  O   UNL     1     -11.093   9.222  69.582  1.00  0.00    -0.212 OA 
HETATM   11  H   UNL     1     -14.028   9.948  70.810  1.00  0.00     0.000 HD 
HETATM   12  C   UNL     1     -11.451   9.917  70.789  1.00  0.00    -0.354 C  
HETATM   13  C   UNL     1     -12.662  11.839  71.830  1.00  0.00    -0.299 C  
HETATM   14  C   UNL     1     -12.431  11.079  70.518  1.00  0.00    -0.344 C  
BRANCH   6  15
HETATM   15  O   UNL     1      -9.261  10.662  69.217  1.00  0.00    -0.178 OA 
BRANCH  15  16
HETATM   16  C   UNL     1      -8.577  11.632  68.405  1.00  0.00    -0.156 C  
HETATM   17  H1  UNL     1      -4.978  10.571  65.995  1.00  0.00     0.000 HD 
HETATM   18  C   UNL     1      -7.235  12.120  68.997  1.00  0.00    -0.037 C  
HETATM   19  C   UNL     1      -8.348  10.969  67.019  1.00  0.00    -0.137 C  
HETATM   20  H2  UNL     1      -4.277  11.307  67.341  1.00  0.00     0.000 HD 
HETATM   21  C   UNL     1      -5.999  10.224  67.766  1.00  0.00    -0.045 C  
HETATM   22  C   UNL     1      -6.258  10.936  69.107  1.00  0.00    -0.047 C  
HETATM   23  O   UNL     1      -7.920  11.963  66.062  1.00  0.00    -0.350 OA 
HETATM   24  H   UNL     1      -7.780  11.558  65.214  1.00  0.00     0.000 HD 
HETATM   25  N   UNL     1      -5.149  11.043  66.883  1.00  0.00    -0.050 NA 
HETATM   26  C   UNL     1      -7.336   9.790  67.093  1.00  0.00    -0.087 C  
BRANCH  18  27
HETATM   27  N   UNL     1      -6.686  13.243  68.235  1.00  0.00    -0.091 N  
HETATM   28  H   UNL     1      -5.935  13.058  67.570  1.00  0.00     0.000 HD 
HETATM   29  C   UNL     1      -7.136  14.536  68.372  1.00  0.00    -0.111 C  
HETATM   30  O   UNL     1      -8.051  14.868  69.118  1.00  0.00    -0.167 OA 
BRANCH  29  31
HETATM   31  C   UNL     1      -6.411  15.554  67.477  1.00  0.00    -0.134 C  
HETATM   32  H   UNL     1      -6.874  16.776  65.998  1.00  0.00     0.000 HD 
HETATM   33  O   UNL     1      -7.323  16.147  66.551  1.00  0.00    -0.187 OA 
BRANCH  31  34
HETATM   34  C   UNL     1      -5.775  16.664  68.314  1.00  0.00    -0.118 C  
BRANCH  34  35
HETATM   35  C   UNL     1      -5.386  17.869  67.458  1.00  0.00    -0.135 C  
HETATM   36  H1  UNL     1      -5.734  19.889  67.413  1.00  0.00     0.000 HD 
HETATM   37  H2  UNL     1      -5.766  19.229  68.968  1.00  0.00     0.000 HD 
HETATM   38  N   UNL     1      -5.994  19.085  67.984  1.00  0.00    -0.202 NA 
ENDBRANCH  34  35
ENDBRANCH  31  34
ENDBRANCH  29  31
ENDBRANCH  18  27
BRANCH  26  39
HETATM   39  O   UNL     1      -7.790   8.674  67.857  1.00  0.00    -0.101 OA 
BRANCH  39  40
HETATM   40  C   UNL     1      -6.926   7.541  67.989  1.00  0.00    -0.072 C  
HETATM   41  H1  UNL     1      -7.908   6.548  64.804  1.00  0.00     0.000 HD 
HETATM   42  O   UNL     1      -7.416   6.616  68.964  1.00  0.00    -0.091 OA 
HETATM   43  H2  UNL     1      -8.367   7.902  65.673  1.00  0.00     0.000 HD 
HETATM   44  N   UNL     1      -8.006   6.950  65.736  1.00  0.00    -0.109 NA 
HETATM   45  C   UNL     1      -6.776   6.923  66.558  1.00  0.00    -0.052 C  
HETATM   46  C   UNL     1      -6.696   5.433  69.022  1.00  0.00    -0.053 C  
HETATM   47  C   UNL     1      -6.123   5.534  66.595  1.00  0.00    -0.030 C  
HETATM   48  C   UNL     1      -6.079   4.913  67.950  1.00  0.00    -0.027 C  
BRANCH  46  49
HETATM   49  C   UNL     1      -6.693   4.742  70.367  1.00  0.00    -0.036 C  
BRANCH  49  50
HETATM   50  N   UNL     1      -7.386   3.450  70.358  1.00  0.00    -0.041 NA 
HETATM   51  H   UNL     1      -6.740   2.680  70.529  1.00  0.00     0.000 HD 
BRANCH  50  52
HETATM   52  C   UNL     1      -8.509   3.434  71.311  1.00  0.00    -0.068 C  
BRANCH  52  53
HETATM   53  C   UNL     1      -9.349   2.165  71.142  1.00  0.00    -0.132 C  
HETATM   54  O   UNL     1     -10.183   1.959  72.279  1.00  0.00    -0.151 OA 
HETATM   55  H   UNL     1     -10.704   1.171  72.174  1.00  0.00     0.000 HD 
ENDBRANCH  52  53
ENDBRANCH  50  52
ENDBRANCH  49  50
ENDBRANCH  46  49
ENDBRANCH  39  40
ENDBRANCH  26  39
ENDBRANCH  15  16
ENDBRANCH   6  15
ENDBRANCH   2   4
TORSDOF 13
ENDMDL
MODEL      186
REMARK 921   NORMALIZED FREE ENERGY PREDICTED BY IDOCK:   -0.74 KCAL/MOL
REMARK 922        TOTAL FREE ENERGY PREDICTED BY IDOCK:   -4.76 KCAL/MOL
REMARK 923 INTER-LIGAND FREE ENERGY PREDICTED BY IDOCK:   -7.14 KCAL/MOL
REMARK 924 INTRA-LIGAND FREE ENERGY PREDICTED BY IDOCK:    2.38 KCAL/MOL
REMARK 927      BINDING AFFINITY PREDICTED BY RF-SCORE:    0.00 PKD
ROOT
HETATM    1  C   UNL     1     -11.945  13.789  69.095  1.00  0.00    -0.361 C  
HETATM    2  N   UNL     1     -12.228  12.588  68.316  1.00  0.00    -0.174 NA 
HETATM    3  H   UNL     1     -12.058  12.766  67.325  1.00  0.00     0.000 HD 
ENDROOT
BRANCH   2   4
HETATM    4  C   UNL     1     -11.502  11.355  68.744  1.00  0.00    -0.290 C  
HETATM    5  C   UNL     1     -11.266  10.368  67.573  1.00  0.00    -0.179 C  
HETATM    6  C   UNL     1     -10.365   9.205  68.047  1.00  0.00    -0.222 C  
HETATM    7  O   UNL     1     -10.701  11.035  66.442  1.00  0.00    -0.262 OA 
HETATM    8  H   UNL     1     -10.557  10.430  65.724  1.00  0.00     0.000 HD 
HETATM    9  O   UNL     1     -13.395  10.147  69.763  1.00  0.00    -0.313 OA 
HETATM   10  O   UNL     1     -11.025   8.513  69.109  1.00  0.00    -0.090 OA 
HETATM   11  H   UNL     1     -13.727   9.680  70.521  1.00  0.00     0.000 HD 
HETATM   12  C   UNL     1     -11.184   9.336  70.277  1.00  0.00    -0.231 C  
HETATM   13  C   UNL     1     -12.063  11.464  71.249  1.00  0.00    -0.087 C  
HETATM   14  C   UNL     1     -12.047  10.585  69.993  1.00  0.00    -0.274 C  
BRANCH   6  15
HETATM   15  O   UNL     1      -9.086   9.691  68.462  1.00  0.00    -0.130 OA 
BRANCH  15  16
HETATM   16  C   UNL     1      -8.776  11.048  68.103  1.00  0.00    -0.141 C  
HETATM   17  H1  UNL     1      -5.170  12.086  65.694  1.00  0.00     0.000 HD 
HETATM   18  C   UNL     1      -7.613  11.667  68.912  1.00  0.00    -0.087 C  
HETATM   19  C   UNL     1      -8.437  11.042  66.587  1.00  0.00    -0.153 C  
HETATM   20  H2  UNL     1      -4.649  12.454  67.255  1.00  0.00     0.000 HD 
HETATM   21  C   UNL     1      -5.934  10.823  67.150  1.00  0.00    -0.062 C  
HETATM   22  C   UNL     1      -6.319  10.881  68.641  1.00  0.00    -0.050 C  
HETATM   23  O   UNL     1      -8.387  12.396  66.087  1.00  0.00    -0.367 OA 
HETATM   24  H   UNL     1      -8.179  12.393  65.160  1.00  0.00     0.000 HD 
HETATM   25  N   UNL     1      -5.424  12.125  66.680  1.00  0.00    -0.300 NA 
HETATM   26  C   UNL     1      -7.113  10.283  66.286  1.00  0.00    -0.117 C  
BRANCH  18  27
HETATM   27  N   UNL     1      -7.476  13.100  68.648  1.00  0.00    -0.158 N  
HETATM   28  H   UNL     1      -7.969  13.496  67.847  1.00  0.00     0.000 HD 
HETATM   29  C   UNL     1      -6.713  13.939  69.428  1.00  0.00    -0.095 C  
HETATM   30  O   UNL     1      -6.102  13.578  70.428  1.00  0.00    -0.151 OA 
BRANCH  29  31
HETATM   31  C   UNL     1      -6.709  15.404  68.960  1.00  0.00    -0.128 C  
HETATM   32  H   UNL     1      -5.525  16.975  69.120  1.00  0.00     0.000 HD 
HETATM   33  O   UNL     1      -5.528  16.069  69.409  1.00  0.00    -0.111 OA 
BRANCH  31  34
HETATM   34  C   UNL     1      -6.768  15.492  67.435  1.00  0.00    -0.200 C  
BRANCH  34  35
HETATM   35  C   UNL     1      -8.042  16.188  66.955  1.00  0.00    -0.210 C  
HETATM   36  H1  UNL     1     -10.005  15.710  66.605  1.00  0.00     0.000 HD 
HETATM   37  H2  UNL     1      -9.289  14.788  67.827  1.00  0.00     0.000 HD 
HETATM   38  N   UNL     1      -9.155  15.246  66.926  1.00  0.00    -0.223 NA 
ENDBRANCH  34  35
ENDBRANCH  31  34
ENDBRANCH  29  31
ENDBRANCH  18  27
BRANCH  26  39
HETATM   39  O   UNL     1      -7.162   8.884  66.560  1.00  0.00    -0.083 OA 
BRANCH  39  40
HETATM   40  C   UNL     1      -7.009   7.970  65.470  1.00  0.00    -0.059 C  
HETATM   41  H1  UNL     1      -9.439   9.769  63.751  1.00  0.00     0.000 HD 
HETATM   42  O   UNL     1      -7.503   6.668  65.800  1.00  0.00    -0.077 OA 
HETATM   43  H2  UNL     1      -8.799  10.050  65.271  1.00  0.00     0.000 HD 
HETATM   44  N   UNL     1      -8.973   9.346  64.554  1.00  0.00    -0.208 NA 
HETATM   45  C   UNL     1      -7.724   8.618  64.237  1.00  0.00    -0.128 C  
HETATM   46  C   UNL     1      -7.515   5.788  64.730  1.00  0.00    -0.076 C  
HETATM   47  C   UNL     1      -7.899   7.622  63.082  1.00  0.00    -0.134 C  
HETATM   48  C   UNL     1      -7.685   6.197  63.464  1.00  0.00    -0.105 C  
BRANCH  46  49
HETATM   49  C   UNL     1      -7.371   4.327  65.093  1.00  0.00    -0.072 C  
BRANCH  49  50
HETATM   50  N   UNL     1      -8.018   3.425  64.135  1.00  0.00    -0.081 NA 
HETATM   51  H   UNL     1      -7.396   2.665  63.860  1.00  0.00     0.000 HD 
BRANCH  50  52
HETATM   52  C   UNL     1      -9.298   2.913  64.656  1.00  0.00    -0.147 C  
BRANCH  52  53
HETATM   53  C   UNL     1     -10.410   3.067  63.616  1.00  0.00    -0.209 C  
HETATM   54  O   UNL     1     -11.427   2.089  63.819  1.00  0.00    -0.598 OA 
HETATM   55  H   UNL     1     -12.117   2.184  63.174  1.00  0.00     0.000 HD 
ENDBRANCH  52  53
ENDBRANCH  50  52
ENDBRANCH  49  50
ENDBRANCH  46  49
ENDBRANCH  39  40
ENDBRANCH  26  39
ENDBRANCH  15  16
ENDBRANCH   6  15
ENDBRANCH   2   4
TORSDOF 13
ENDMDL
MODEL      187
REMARK 921   NORMALIZED FREE ENERGY PREDICTED BY IDOCK:   -0.73 KCAL/MOL
REMARK 922        TOTAL FREE ENERGY PREDICTED BY IDOCK:   -4.74 KCAL/MOL
REMARK 923 INTER-LIGAND FREE ENERGY PREDICTED BY IDOCK:   -5.11 KCAL/MOL
REMARK 924 INTRA-LIGAND FREE ENERGY PREDICTED BY IDOCK:    0.37 KCAL/MOL
REMARK 927      BINDING AFFINITY PREDICTED BY RF-SCORE:    0.00 PKD
ROOT
HETATM    1  C   UNL     1     -13.209  10.317  72.559  1.00  0.00     0.173 C  
HETATM    2  N   UNL     1     -13.391   9.127  71.734  1.00  0.00    -0.382 NA 
HETATM    3  H   UNL     1     -14.139   9.281  71.058  1.00  0.00     0.000 HD 
ENDROOT
BRANCH   2   4
HETATM    4  C   UNL     1     -12.166   8.633  71.036  1.00  0.00    -0.179 C  
HETATM    5  C   UNL     1     -11.968   9.292  69.648  1.00  0.00     0.670 C  
HETATM    6  C   UNL     1     -10.603   8.869  69.062  1.00  0.00    -0.183 C  
HETATM    7  O   UNL     1     -12.080  10.715  69.732  1.00  0.00    -0.368 OA 
HETATM    8  H   UNL     1     -11.959  11.119  68.880  1.00  0.00     0.000 HD 
HETATM    9  O   UNL     1     -13.053   6.484  70.212  1.00  0.00     0.375 OA 
HETATM   10  O   UNL     1     -10.588   7.449  68.906  1.00  0.00    -0.207 OA 
HETATM   11  H   UNL     1     -12.930   5.545  70.148  1.00  0.00     0.000 HD 
HETATM   12  C   UNL     1     -10.658   6.763  70.167  1.00  0.00    -0.218 C  
HETATM   13  C   UNL     1     -11.902   6.416  72.307  1.00  0.00    -0.315 C  
HETATM   14  C   UNL     1     -11.963   7.085  70.929  1.00  0.00    -0.364 C  
BRANCH   6  15
HETATM   15  O   UNL     1      -9.532   9.309  69.901  1.00  0.00    -0.172 OA 
BRANCH  15  16
HETATM   16  C   UNL     1      -8.285   8.607  69.760  1.00  0.00    -0.121 C  
HETATM   17  H1  UNL     1      -4.787  10.413  67.665  1.00  0.00     0.000 HD 
HETATM   18  C   UNL     1      -8.025   8.056  68.339  1.00  0.00    -0.120 C  
HETATM   19  C   UNL     1      -7.165   9.604  70.166  1.00  0.00    -0.128 C  
HETATM   20  H2  UNL     1      -5.410   9.402  66.468  1.00  0.00     0.000 HD 
HETATM   21  C   UNL     1      -6.854  10.258  67.694  1.00  0.00    -0.075 C  
HETATM   22  C   UNL     1      -7.938   9.222  67.340  1.00  0.00    -0.106 C  
HETATM   23  O   UNL     1      -5.912   8.903  70.321  1.00  0.00    -0.029 OA 
HETATM   24  H   UNL     1      -5.227   9.512  70.569  1.00  0.00     0.000 HD 
HETATM   25  N   UNL     1      -5.504   9.728  67.430  1.00  0.00    -0.036 NA 
HETATM   26  C   UNL     1      -7.030  10.778  69.153  1.00  0.00    -0.091 C  
BRANCH  18  27
HETATM   27  N   UNL     1      -6.849   7.187  68.305  1.00  0.00    -0.071 N  
HETATM   28  H   UNL     1      -5.925   7.620  68.296  1.00  0.00     0.000 HD 
HETATM   29  C   UNL     1      -6.928   5.813  68.285  1.00  0.00    -0.069 C  
HETATM   30  O   UNL     1      -7.982   5.187  68.321  1.00  0.00    -0.087 OA 
BRANCH  29  31
HETATM   31  C   UNL     1      -5.565   5.103  68.243  1.00  0.00    -0.016 C  
HETATM   32  H   UNL     1      -4.654   3.652  69.223  1.00  0.00     0.000 HD 
HETATM   33  O   UNL     1      -5.496   4.091  69.249  1.00  0.00    -0.011 OA 
BRANCH  31  34
HETATM   34  C   UNL     1      -5.328   4.453  66.880  1.00  0.00    -0.013 C  
BRANCH  34  35
HETATM   35  C   UNL     1      -5.132   5.495  65.779  1.00  0.00    -0.009 C  
HETATM   36  H1  UNL     1      -5.659   5.761  63.816  1.00  0.00     0.000 HD 
HETATM   37  H2  UNL     1      -6.775   4.853  64.701  1.00  0.00     0.000 HD 
HETATM   38  N   UNL     1      -5.789   5.066  64.551  1.00  0.00    -0.017 NA 
ENDBRANCH  34  35
ENDBRANCH  31  34
ENDBRANCH  29  31
ENDBRANCH  18  27
BRANCH  26  39
HETATM   39  O   UNL     1      -8.161  11.645  69.104  1.00  0.00     0.041 OA 
BRANCH  39  40
HETATM   40  C   UNL     1      -8.123  12.766  68.217  1.00  0.00    -0.154 C  
HETATM   41  H1  UNL     1      -5.192  13.782  69.789  1.00  0.00     0.000 HD 
HETATM   42  O   UNL     1      -9.176  13.694  68.495  1.00  0.00    -0.190 OA 
HETATM   43  H2  UNL     1      -6.132  12.430  70.087  1.00  0.00     0.000 HD 
HETATM   44  N   UNL     1      -6.125  13.378  69.708  1.00  0.00    -0.124 NA 
HETATM   45  C   UNL     1      -6.691  13.387  68.341  1.00  0.00    -0.096 C  
HETATM   46  C   UNL     1      -9.093  14.868  67.763  1.00  0.00    -0.185 C  
HETATM   47  C   UNL     1      -6.601  14.768  67.675  1.00  0.00    -0.181 C  
HETATM   48  C   UNL     1      -7.922  15.384  67.361  1.00  0.00    -0.213 C  
BRANCH  46  49
HETATM   49  C   UNL     1     -10.413  15.554  67.489  1.00  0.00    -0.282 C  
BRANCH  49  50
HETATM   50  N   UNL     1     -10.748  15.620  66.063  1.00  0.00    -0.324 NA 
HETATM   51  H   UNL     1      -9.922  15.485  65.480  1.00  0.00     0.000 HD 
BRANCH  50  52
HETATM   52  C   UNL     1     -11.816  14.666  65.716  1.00  0.00    -0.274 C  
BRANCH  52  53
HETATM   53  C   UNL     1     -11.346  13.693  64.631  1.00  0.00    -0.366 C  
HETATM   54  O   UNL     1      -9.939  13.486  64.717  1.00  0.00    -0.599 OA 
HETATM   55  H   UNL     1      -9.647  12.883  64.043  1.00  0.00     0.000 HD 
ENDBRANCH  52  53
ENDBRANCH  50  52
ENDBRANCH  49  50
ENDBRANCH  46  49
ENDBRANCH  39  40
ENDBRANCH  26  39
ENDBRANCH  15  16
ENDBRANCH   6  15
ENDBRANCH   2   4
TORSDOF 13
ENDMDL
MODEL      188
REMARK 921   NORMALIZED FREE ENERGY PREDICTED BY IDOCK:   -0.69 KCAL/MOL
REMARK 922        TOTAL FREE ENERGY PREDICTED BY IDOCK:   -4.68 KCAL/MOL
REMARK 923 INTER-LIGAND FREE ENERGY PREDICTED BY IDOCK:   -6.55 KCAL/MOL
REMARK 924 INTRA-LIGAND FREE ENERGY PREDICTED BY IDOCK:    1.86 KCAL/MOL
REMARK 927      BINDING AFFINITY PREDICTED BY RF-SCORE:    0.00 PKD
ROOT
HETATM    1  C   UNL     1     -11.367  15.997  70.647  1.00  0.00    -0.399 C  
HETATM    2  N   UNL     1      -9.965  16.125  70.262  1.00  0.00     0.283 NA 
HETATM    3  H   UNL     1      -9.369  16.070  71.089  1.00  0.00     0.000 HD 
ENDROOT
BRANCH   2   4
HETATM    4  C   UNL     1      -9.490  15.159  69.226  1.00  0.00    -0.212 C  
HETATM    5  C   UNL     1      -7.961  14.914  69.299  1.00  0.00    -0.153 C  
HETATM    6  C   UNL     1      -7.568  13.784  68.322  1.00  0.00    -0.129 C  
HETATM    7  O   UNL     1      -7.550  14.614  70.635  1.00  0.00     0.101 OA 
HETATM    8  H   UNL     1      -6.613  14.465  70.680  1.00  0.00     0.000 HD 
HETATM    9  O   UNL     1      -9.446  16.685  67.290  1.00  0.00    -0.228 OA 
HETATM   10  O   UNL     1      -7.910  14.182  66.994  1.00  0.00    -0.102 OA 
HETATM   11  H   UNL     1      -9.709  16.838  66.390  1.00  0.00     0.000 HD 
HETATM   12  C   UNL     1      -9.330  14.324  66.817  1.00  0.00    -0.276 C  
HETATM   13  C   UNL     1     -11.447  15.409  67.582  1.00  0.00    -0.255 C  
HETATM   14  C   UNL     1      -9.923  15.409  67.743  1.00  0.00    -0.225 C  
BRANCH   6  15
HETATM   15  O   UNL     1      -8.215  12.559  68.678  1.00  0.00    -0.107 OA 
BRANCH  15  16
HETATM   16  C   UNL     1      -8.941  11.897  67.629  1.00  0.00    -0.169 C  
HETATM   17  H1  UNL     1      -8.996   7.454  67.240  1.00  0.00     0.000 HD 
HETATM   18  C   UNL     1      -8.050  11.334  66.498  1.00  0.00    -0.160 C  
HETATM   19  C   UNL     1      -9.749  10.752  68.301  1.00  0.00    -0.164 C  
HETATM   20  H2  UNL     1      -7.848   7.880  66.080  1.00  0.00     0.000 HD 
HETATM   21  C   UNL     1      -7.848   9.099  67.763  1.00  0.00    -0.100 C  
HETATM   22  C   UNL     1      -7.109  10.259  67.067  1.00  0.00    -0.090 C  
HETATM   23  O   UNL     1     -10.715  10.216  67.370  1.00  0.00    -0.260 OA 
HETATM   24  H   UNL     1     -11.208   9.516  67.781  1.00  0.00     0.000 HD 
HETATM   25  N   UNL     1      -8.508   8.221  66.779  1.00  0.00    -0.119 NA 
HETATM   26  C   UNL     1      -8.824   9.630  68.856  1.00  0.00    -0.136 C  
BRANCH  18  27
HETATM   27  N   UNL     1      -8.850  10.854  65.370  1.00  0.00    -0.217 N  
HETATM   28  H   UNL     1      -8.696   9.902  65.037  1.00  0.00     0.000 HD 
HETATM   29  C   UNL     1      -9.798  11.624  64.738  1.00  0.00    -0.229 C  
HETATM   30  O   UNL     1     -10.085  12.769  65.071  1.00  0.00    -0.275 OA 
BRANCH  29  31
HETATM   31  C   UNL     1     -10.511  10.917  63.574  1.00  0.00    -0.199 C  
HETATM   32  H   UNL     1     -11.988  11.307  62.324  1.00  0.00     0.000 HD 
HETATM   33  O   UNL     1     -11.548  11.745  63.044  1.00  0.00    -0.182 OA 
BRANCH  31  34
HETATM   34  C   UNL     1      -9.529  10.586  62.450  1.00  0.00    -0.246 C  
BRANCH  34  35
HETATM   35  C   UNL     1      -8.751   9.301  62.735  1.00  0.00    -0.214 C  
HETATM   36  H1  UNL     1      -6.809   8.732  63.062  1.00  0.00     0.000 HD 
HETATM   37  H2  UNL     1      -7.151  10.304  63.576  1.00  0.00     0.000 HD 
HETATM   38  N   UNL     1      -7.328   9.588  62.872  1.00  0.00    -0.102 NA 
ENDBRANCH  34  35
ENDBRANCH  31  34
ENDBRANCH  29  31
ENDBRANCH  18  27
BRANCH  26  39
HETATM   39  O   UNL     1      -7.985  10.041  69.934  1.00  0.00    -0.165 OA 
BRANCH  39  40
HETATM   40  C   UNL     1      -7.787   9.138  71.026  1.00  0.00    -0.116 C  
HETATM   41  H1  UNL     1      -4.373   9.257  70.374  1.00  0.00     0.000 HD 
HETATM   42  O   UNL     1      -8.298   7.835  70.731  1.00  0.00    -0.113 OA 
HETATM   43  H2  UNL     1      -5.621  10.060  69.601  1.00  0.00     0.000 HD 
HETATM   44  N   UNL     1      -5.371   9.247  70.165  1.00  0.00    -0.027 NA 
HETATM   45  C   UNL     1      -6.255   9.153  71.348  1.00  0.00    -0.078 C  
HETATM   46  C   UNL     1      -7.998   6.886  71.696  1.00  0.00    -0.101 C  
HETATM   47  C   UNL     1      -5.853   8.013  72.295  1.00  0.00    -0.042 C  
HETATM   48  C   UNL     1      -6.884   6.946  72.441  1.00  0.00    -0.062 C  
BRANCH  46  49
HETATM   49  C   UNL     1      -8.990   5.751  71.818  1.00  0.00    -0.139 C  
BRANCH  49  50
HETATM   50  N   UNL     1      -9.641   5.689  73.130  1.00  0.00    -0.149 NA 
HETATM   51  H   UNL     1      -9.316   6.435  73.744  1.00  0.00     0.000 HD 
BRANCH  50  52
HETATM   52  C   UNL     1     -11.109   5.695  73.004  1.00  0.00    -0.282 C  
BRANCH  52  53
HETATM   53  C   UNL     1     -11.549   6.523  71.794  1.00  0.00    -0.312 C  
HETATM   54  O   UNL     1     -12.180   7.730  72.213  1.00  0.00    -0.393 OA 
HETATM   55  H   UNL     1     -12.453   8.243  71.461  1.00  0.00     0.000 HD 
ENDBRANCH  52  53
ENDBRANCH  50  52
ENDBRANCH  49  50
ENDBRANCH  46  49
ENDBRANCH  39  40
ENDBRANCH  26  39
ENDBRANCH  15  16
ENDBRANCH   6  15
ENDBRANCH   2   4
TORSDOF 13
ENDMDL
MODEL      189
REMARK 921   NORMALIZED FREE ENERGY PREDICTED BY IDOCK:   -0.66 KCAL/MOL
REMARK 922        TOTAL FREE ENERGY PREDICTED BY IDOCK:   -4.62 KCAL/MOL
REMARK 923 INTER-LIGAND FREE ENERGY PREDICTED BY IDOCK:   -5.28 KCAL/MOL
REMARK 924 INTRA-LIGAND FREE ENERGY PREDICTED BY IDOCK:    0.67 KCAL/MOL
REMARK 927      BINDING AFFINITY PREDICTED BY RF-SCORE:    0.00 PKD
ROOT
HETATM    1  C   UNL     1      -7.993   8.575  72.791  1.00  0.00    -0.025 C  
HETATM    2  N   UNL     1      -9.027   7.597  72.466  1.00  0.00    -0.133 NA 
HETATM    3  H   UNL     1      -9.852   7.755  73.045  1.00  0.00     0.000 HD 
ENDROOT
BRANCH   2   4
HETATM    4  C   UNL     1      -9.419   7.527  71.026  1.00  0.00    -0.160 C  
HETATM    5  C   UNL     1     -10.268   8.746  70.583  1.00  0.00    -0.202 C  
HETATM    6  C   UNL     1     -10.491   8.696  69.055  1.00  0.00    -0.199 C  
HETATM    7  O   UNL     1      -9.655   9.974  70.981  1.00  0.00    -0.213 OA 
HETATM    8  H   UNL     1     -10.176  10.720  70.709  1.00  0.00     0.000 HD 
HETATM    9  O   UNL     1     -11.288   5.931  71.230  1.00  0.00    -0.261 OA 
HETATM   10  O   UNL     1     -11.197   7.498  68.730  1.00  0.00     0.115 OA 
HETATM   11  H   UNL     1     -11.685   5.126  70.919  1.00  0.00     0.000 HD 
HETATM   12  C   UNL     1     -10.424   6.319  69.013  1.00  0.00    -0.237 C  
HETATM   13  C   UNL     1      -9.152   4.992  70.706  1.00  0.00    -0.174 C  
HETATM   14  C   UNL     1     -10.074   6.202  70.512  1.00  0.00    -0.189 C  
BRANCH   6  15
HETATM   15  O   UNL     1      -9.244   8.768  68.359  1.00  0.00    -0.138 OA 
BRANCH  15  16
HETATM   16  C   UNL     1      -9.136   9.792  67.356  1.00  0.00    -0.134 C  
HETATM   17  H1  UNL     1      -5.189  11.408  66.051  1.00  0.00     0.000 HD 
HETATM   18  C   UNL     1      -8.793  11.192  67.913  1.00  0.00    -0.136 C  
HETATM   19  C   UNL     1      -8.040   9.324  66.358  1.00  0.00    -0.107 C  
HETATM   20  H2  UNL     1      -5.707  12.606  67.118  1.00  0.00     0.000 HD 
HETATM   21  C   UNL     1      -6.280  10.683  67.658  1.00  0.00    -0.055 C  
HETATM   22  C   UNL     1      -7.412  11.155  68.591  1.00  0.00    -0.119 C  
HETATM   23  O   UNL     1      -8.063  10.153  65.175  1.00  0.00    -0.138 OA 
HETATM   24  H   UNL     1      -7.393   9.867  64.565  1.00  0.00     0.000 HD 
HETATM   25  N   UNL     1      -5.938  11.720  66.668  1.00  0.00    -0.182 NA 
HETATM   26  C   UNL     1      -6.626   9.310  67.006  1.00  0.00    -0.068 C  
BRANCH  18  27
HETATM   27  N   UNL     1      -8.893  12.224  66.880  1.00  0.00    -0.204 N  
HETATM   28  H   UNL     1      -8.124  12.324  66.217  1.00  0.00     0.000 HD 
HETATM   29  C   UNL     1      -9.975  13.066  66.760  1.00  0.00    -0.245 C  
HETATM   30  O   UNL     1     -10.964  13.018  67.482  1.00  0.00    -0.248 OA 
BRANCH  29  31
HETATM   31  C   UNL     1      -9.862  14.077  65.607  1.00  0.00    -0.228 C  
HETATM   32  H   UNL     1     -11.057  14.871  64.251  1.00  0.00     0.000 HD 
HETATM   33  O   UNL     1     -11.126  14.246  64.964  1.00  0.00    -0.335 OA 
BRANCH  31  34
HETATM   34  C   UNL     1      -9.387  15.438  66.115  1.00  0.00    -0.367 C  
BRANCH  34  35
HETATM   35  C   UNL     1      -8.590  15.313  67.414  1.00  0.00    -0.180 C  
HETATM   36  H1  UNL     1      -6.969  14.273  68.117  1.00  0.00     0.000 HD 
HETATM   37  H2  UNL     1      -6.903  14.592  66.460  1.00  0.00     0.000 HD 
HETATM   38  N   UNL     1      -7.501  14.356  67.251  1.00  0.00    -0.148 NA 
ENDBRANCH  34  35
ENDBRANCH  31  34
ENDBRANCH  29  31
ENDBRANCH  18  27
BRANCH  26  39
HETATM   39  O   UNL     1      -6.469   8.353  68.052  1.00  0.00    -0.055 OA 
BRANCH  39  40
HETATM   40  C   UNL     1      -6.945   7.021  67.835  1.00  0.00    -0.083 C  
HETATM   41  H1  UNL     1      -4.964   5.986  70.499  1.00  0.00     0.000 HD 
HETATM   42  O   UNL     1      -6.445   6.476  66.610  1.00  0.00    -0.040 OA 
HETATM   43  H2  UNL     1      -5.171   7.526  69.877  1.00  0.00     0.000 HD 
HETATM   44  N   UNL     1      -5.224   6.527  69.675  1.00  0.00    -0.013 NA 
HETATM   45  C   UNL     1      -6.546   6.191  69.101  1.00  0.00    -0.047 C  
HETATM   46  C   UNL     1      -6.755   5.138  66.428  1.00  0.00    -0.057 C  
HETATM   47  C   UNL     1      -6.726   4.682  68.881  1.00  0.00    -0.049 C  
HETATM   48  C   UNL     1      -6.902   4.287  67.454  1.00  0.00    -0.052 C  
BRANCH  46  49
HETATM   49  C   UNL     1      -6.870   4.691  64.988  1.00  0.00    -0.053 C  
BRANCH  49  50
HETATM   50  N   UNL     1      -5.598   4.744  64.261  1.00  0.00    -0.013 NA 
HETATM   51  H   UNL     1      -4.997   3.958  64.504  1.00  0.00     0.000 HD 
BRANCH  50  52
HETATM   52  C   UNL     1      -5.812   4.830  62.805  1.00  0.00    -0.017 C  
BRANCH  52  53
HETATM   53  C   UNL     1      -7.092   5.607  62.487  1.00  0.00    -0.041 C  
HETATM   54  O   UNL     1      -6.987   6.955  62.939  1.00  0.00    -0.049 OA 
HETATM   55  H   UNL     1      -7.781   7.437  62.742  1.00  0.00     0.000 HD 
ENDBRANCH  52  53
ENDBRANCH  50  52
ENDBRANCH  49  50
ENDBRANCH  46  49
ENDBRANCH  39  40
ENDBRANCH  26  39
ENDBRANCH  15  16
ENDBRANCH   6  15
ENDBRANCH   2   4
TORSDOF 13
ENDMDL
MODEL      190
REMARK 921   NORMALIZED FREE ENERGY PREDICTED BY IDOCK:   -0.57 KCAL/MOL
REMARK 922        TOTAL FREE ENERGY PREDICTED BY IDOCK:   -4.46 KCAL/MOL
REMARK 923 INTER-LIGAND FREE ENERGY PREDICTED BY IDOCK:   -4.01 KCAL/MOL
REMARK 924 INTRA-LIGAND FREE ENERGY PREDICTED BY IDOCK:   -0.44 KCAL/MOL
REMARK 927      BINDING AFFINITY PREDICTED BY RF-SCORE:    0.00 PKD
ROOT
HETATM    1  C   UNL     1     -10.415  15.638  64.618  1.00  0.00     0.136 C  
HETATM    2  N   UNL     1     -10.811  14.440  63.885  1.00  0.00    -0.035 NA 
HETATM    3  H   UNL     1     -10.211  14.315  63.069  1.00  0.00     0.000 HD 
ENDROOT
BRANCH   2   4
HETATM    4  C   UNL     1     -10.854  13.179  64.685  1.00  0.00    -0.366 C  
HETATM    5  C   UNL     1     -10.228  11.978  63.933  1.00  0.00    -0.398 C  
HETATM    6  C   UNL     1     -10.149  10.757  64.877  1.00  0.00    -0.322 C  
HETATM    7  O   UNL     1      -8.942  12.313  63.406  1.00  0.00    -0.274 OA 
HETATM    8  H   UNL     1      -8.558  11.576  62.944  1.00  0.00     0.000 HD 
HETATM    9  O   UNL     1     -13.211  12.571  64.290  1.00  0.00    -0.738 OA 
HETATM   10  O   UNL     1     -11.470  10.407  65.290  1.00  0.00     0.976 OA 
HETATM   11  H   UNL     1     -14.043  12.319  64.672  1.00  0.00     0.000 HD 
HETATM   12  C   UNL     1     -12.080  11.434  66.090  1.00  0.00     1.304 C  
HETATM   13  C   UNL     1     -12.765  13.830  66.273  1.00  0.00    -0.258 C  
HETATM   14  C   UNL     1     -12.224  12.762  65.316  1.00  0.00    -0.483 C  
BRANCH   6  15
HETATM   15  O   UNL     1      -9.313  11.040  66.002  1.00  0.00    -0.187 OA 
BRANCH  15  16
HETATM   16  C   UNL     1      -8.751   9.902  66.677  1.00  0.00    -0.128 C  
HETATM   17  H1  UNL     1      -9.064   9.392  71.097  1.00  0.00     0.000 HD 
HETATM   18  C   UNL     1      -7.452  10.206  67.458  1.00  0.00    -0.090 C  
HETATM   19  C   UNL     1      -9.848   9.370  67.640  1.00  0.00    -0.174 C  
HETATM   20  H2  UNL     1      -7.493   9.983  70.936  1.00  0.00     0.000 HD 
HETATM   21  C   UNL     1      -8.839  10.762  69.557  1.00  0.00     0.153 C  
HETATM   22  C   UNL     1      -7.746  11.223  68.574  1.00  0.00    -0.131 C  
HETATM   23  O   UNL     1      -9.471   8.071  68.149  1.00  0.00    -0.142 OA 
HETATM   24  H   UNL     1     -10.142   7.746  68.738  1.00  0.00     0.000 HD 
HETATM   25  N   UNL     1      -8.341   9.697  70.447  1.00  0.00    -0.187 NA 
HETATM   26  C   UNL     1     -10.142  10.363  68.801  1.00  0.00    -0.187 C  
BRANCH  18  27
HETATM   27  N   UNL     1      -6.822   8.981  67.954  1.00  0.00    -0.069 N  
HETATM   28  H   UNL     1      -7.213   8.084  67.667  1.00  0.00     0.000 HD 
HETATM   29  C   UNL     1      -5.728   8.983  68.789  1.00  0.00    -0.041 C  
HETATM   30  O   UNL     1      -5.161  10.000  69.173  1.00  0.00    -0.036 OA 
BRANCH  29  31
HETATM   31  C   UNL     1      -5.238   7.582  69.188  1.00  0.00    -0.015 C  
HETATM   32  H   UNL     1      -4.863   6.596  70.857  1.00  0.00     0.000 HD 
HETATM   33  O   UNL     1      -5.166   7.463  70.610  1.00  0.00    -0.023 OA 
BRANCH  31  34
HETATM   34  C   UNL     1      -6.178   6.500  68.656  1.00  0.00    -0.030 C  
BRANCH  34  35
HETATM   35  C   UNL     1      -5.967   5.164  69.367  1.00  0.00    -0.021 C  
HETATM   36  H1  UNL     1      -5.961   3.168  68.898  1.00  0.00     0.000 HD 
HETATM   37  H2  UNL     1      -5.480   4.166  67.623  1.00  0.00     0.000 HD 
HETATM   38  N   UNL     1      -6.102   4.060  68.424  1.00  0.00    -0.030 NA 
ENDBRANCH  34  35
ENDBRANCH  31  34
ENDBRANCH  29  31
ENDBRANCH  18  27
BRANCH  26  39
HETATM   39  O   UNL     1     -10.721  11.598  68.384  1.00  0.00    -0.198 OA 
BRANCH  39  40
HETATM   40  C   UNL     1     -10.711  12.699  69.298  1.00  0.00     0.081 C  
HETATM   41  H1  UNL     1     -13.949  11.832  70.223  1.00  0.00     0.000 HD 
HETATM   42  O   UNL     1     -10.716  13.954  68.611  1.00  0.00    -0.248 OA 
HETATM   43  H2  UNL     1     -12.934  11.088  69.120  1.00  0.00     0.000 HD 
HETATM   44  N   UNL     1     -13.151  11.961  69.602  1.00  0.00     0.937 NA 
HETATM   45  C   UNL     1     -11.936  12.501  70.252  1.00  0.00    -0.283 C  
HETATM   46  C   UNL     1     -10.857  15.048  69.450  1.00  0.00    -0.260 C  
HETATM   47  C   UNL     1     -12.224  13.756  71.089  1.00  0.00    -0.362 C  
HETATM   48  C   UNL     1     -11.537  14.987  70.604  1.00  0.00    -0.358 C  
BRANCH  46  49
HETATM   49  C   UNL     1     -10.231  16.331  68.950  1.00  0.00    -0.256 C  
BRANCH  49  50
HETATM   50  N   UNL     1     -10.807  16.805  67.688  1.00  0.00    -0.298 NA 
HETATM   51  H   UNL     1     -11.817  16.671  67.666  1.00  0.00     0.000 HD 
BRANCH  50  52
HETATM   52  C   UNL     1     -10.443  18.208  67.423  1.00  0.00    -0.399 C  
BRANCH  52  53
HETATM   53  C   UNL     1      -8.938  18.424  67.599  1.00  0.00    -0.274 C  
HETATM   54  O   UNL     1      -8.580  19.763  67.266  1.00  0.00    -0.298 OA 
HETATM   55  H   UNL     1      -7.645  19.896  67.374  1.00  0.00     0.000 HD 
ENDBRANCH  52  53
ENDBRANCH  50  52
ENDBRANCH  49  50
ENDBRANCH  46  49
ENDBRANCH  39  40
ENDBRANCH  26  39
ENDBRANCH  15  16
ENDBRANCH   6  15
ENDBRANCH   2   4
TORSDOF 13
ENDMDL
MODEL      191
REMARK 921   NORMALIZED FREE ENERGY PREDICTED BY IDOCK:   -0.51 KCAL/MOL
REMARK 922        TOTAL FREE ENERGY PREDICTED BY IDOCK:   -4.35 KCAL/MOL
REMARK 923 INTER-LIGAND FREE ENERGY PREDICTED BY IDOCK:   -4.13 KCAL/MOL
REMARK 924 INTRA-LIGAND FREE ENERGY PREDICTED BY IDOCK:   -0.23 KCAL/MOL
REMARK 927      BINDING AFFINITY PREDICTED BY RF-SCORE:    0.00 PKD
ROOT
HETATM    1  C   UNL     1     -10.750  10.399  70.649  1.00  0.00     0.090 C  
HETATM    2  N   UNL     1     -10.640  10.904  69.284  1.00  0.00    -0.242 NA 
HETATM    3  H   UNL     1     -10.396  11.894  69.296  1.00  0.00     0.000 HD 
ENDROOT
BRANCH   2   4
HETATM    4  C   UNL     1      -9.701  10.157  68.394  1.00  0.00    -0.147 C  
HETATM    5  C   UNL     1      -8.333   9.887  69.069  1.00  0.00    -0.130 C  
HETATM    6  C   UNL     1      -7.480   8.969  68.165  1.00  0.00    -0.084 C  
HETATM    7  O   UNL     1      -8.503   9.322  70.371  1.00  0.00    -0.167 OA 
HETATM    8  H   UNL     1      -7.664   9.157  70.785  1.00  0.00     0.000 HD 
HETATM    9  O   UNL     1      -8.959  12.038  66.981  1.00  0.00    -0.184 OA 
HETATM   10  O   UNL     1      -7.257   9.627  66.917  1.00  0.00    -0.089 OA 
HETATM   11  H   UNL     1      -8.828  12.369  66.101  1.00  0.00     0.000 HD 
HETATM   12  C   UNL     1      -8.476   9.817  66.178  1.00  0.00    -0.124 C  
HETATM   13  C   UNL     1     -10.793  10.751  66.146  1.00  0.00    -0.124 C  
HETATM   14  C   UNL     1      -9.485  10.702  66.942  1.00  0.00    -0.165 C  
BRANCH   6  15
HETATM   15  O   UNL     1      -8.121   7.705  67.977  1.00  0.00    -0.120 OA 
BRANCH  15  16
HETATM   16  C   UNL     1      -7.696   6.641  68.846  1.00  0.00    -0.109 C  
HETATM   17  H1  UNL     1      -9.350   2.513  68.506  1.00  0.00     0.000 HD 
HETATM   18  C   UNL     1      -8.726   6.264  69.936  1.00  0.00    -0.141 C  
HETATM   19  C   UNL     1      -7.397   5.417  67.939  1.00  0.00    -0.073 C  
HETATM   20  H2  UNL     1     -10.236   3.125  69.804  1.00  0.00     0.000 HD 
HETATM   21  C   UNL     1      -9.782   4.535  68.345  1.00  0.00    -0.122 C  
HETATM   22  C   UNL     1     -10.013   5.743  69.273  1.00  0.00    -0.238 C  
HETATM   23  O   UNL     1      -6.703   4.400  68.694  1.00  0.00    -0.044 OA 
HETATM   24  H   UNL     1      -6.520   3.651  68.139  1.00  0.00     0.000 HD 
HETATM   25  N   UNL     1      -9.502   3.312  69.120  1.00  0.00    -0.158 NA 
HETATM   26  C   UNL     1      -8.686   4.845  67.281  1.00  0.00    -0.103 C  
BRANCH  18  27
HETATM   27  N   UNL     1      -8.163   5.324  70.907  1.00  0.00    -0.109 N  
HETATM   28  H   UNL     1      -7.346   4.777  70.636  1.00  0.00     0.000 HD 
HETATM   29  C   UNL     1      -8.684   5.144  72.168  1.00  0.00    -0.129 C  
HETATM   30  O   UNL     1      -9.643   5.767  72.609  1.00  0.00    -0.153 OA 
BRANCH  29  31
HETATM   31  C   UNL     1      -7.937   4.101  73.015  1.00  0.00    -0.089 C  
HETATM   32  H   UNL     1      -6.602   4.099  74.469  1.00  0.00     0.000 HD 
HETATM   33  O   UNL     1      -7.064   4.744  73.946  1.00  0.00    -0.073 OA 
BRANCH  31  34
HETATM   34  C   UNL     1      -8.917   3.223  73.793  1.00  0.00    -0.083 C  
BRANCH  34  35
HETATM   35  C   UNL     1      -9.985   2.619  72.881  1.00  0.00    -0.130 C  
HETATM   36  H1  UNL     1     -11.987   2.183  72.955  1.00  0.00     0.000 HD 
HETATM   37  H2  UNL     1     -11.546   3.506  73.907  1.00  0.00     0.000 HD 
HETATM   38  N   UNL     1     -11.274   2.586  73.562  1.00  0.00    -0.215 NA 
ENDBRANCH  34  35
ENDBRANCH  31  34
ENDBRANCH  29  31
ENDBRANCH  18  27
BRANCH  26  39
HETATM   39  O   UNL     1      -9.312   5.727  66.351  1.00  0.00    -0.149 OA 
BRANCH  39  40
HETATM   40  C   UNL     1      -8.782   5.807  65.024  1.00  0.00    -0.031 C  
HETATM   41  H1  UNL     1     -10.593   2.944  64.238  1.00  0.00     0.000 HD 
HETATM   42  O   UNL     1      -7.380   5.523  64.999  1.00  0.00    -0.065 OA 
HETATM   43  H2  UNL     1     -10.526   3.783  65.684  1.00  0.00     0.000 HD 
HETATM   44  N   UNL     1     -10.037   3.578  64.813  1.00  0.00    -0.129 NA 
HETATM   45  C   UNL     1      -9.635   4.834  64.143  1.00  0.00     0.197 C  
HETATM   46  C   UNL     1      -6.850   5.440  63.722  1.00  0.00    -0.046 C  
HETATM   47  C   UNL     1      -8.995   4.590  62.768  1.00  0.00    -0.127 C  
HETATM   48  C   UNL     1      -7.571   5.024  62.670  1.00  0.00    -0.057 C  
BRANCH  46  49
HETATM   49  C   UNL     1      -5.388   5.805  63.602  1.00  0.00    -0.017 C  
BRANCH  49  50
HETATM   50  N   UNL     1      -5.133   6.872  62.630  1.00  0.00    -0.031 NA 
HETATM   51  H   UNL     1      -5.037   6.501  61.685  1.00  0.00     0.000 HD 
BRANCH  50  52
HETATM   52  C   UNL     1      -6.169   7.919  62.695  1.00  0.00    -0.077 C  
BRANCH  52  53
HETATM   53  C   UNL     1      -5.578   9.240  63.195  1.00  0.00    -0.079 C  
HETATM   54  O   UNL     1      -5.604   9.295  64.619  1.00  0.00    -0.060 OA 
HETATM   55  H   UNL     1      -5.238  10.115  64.929  1.00  0.00     0.000 HD 
ENDBRANCH  52  53
ENDBRANCH  50  52
ENDBRANCH  49  50
ENDBRANCH  46  49
ENDBRANCH  39  40
ENDBRANCH  26  39
ENDBRANCH  15  16
ENDBRANCH   6  15
ENDBRANCH   2   4
TORSDOF 13
ENDMDL
MODEL      192
REMARK 921   NORMALIZED FREE ENERGY PREDICTED BY IDOCK:   -0.45 KCAL/MOL
REMARK 922        TOTAL FREE ENERGY PREDICTED BY IDOCK:   -4.25 KCAL/MOL
REMARK 923 INTER-LIGAND FREE ENERGY PREDICTED BY IDOCK:   -6.94 KCAL/MOL
REMARK 924 INTRA-LIGAND FREE ENERGY PREDICTED BY IDOCK:    2.69 KCAL/MOL
REMARK 927      BINDING AFFINITY PREDICTED BY RF-SCORE:    0.00 PKD
ROOT
HETATM    1  C   UNL     1     -12.725  14.469  69.270  1.00  0.00     0.327 C  
HETATM    2  N   UNL     1     -12.612  13.725  68.020  1.00  0.00    -0.124 NA 
HETATM    3  H   UNL     1     -13.385  13.966  67.399  1.00  0.00     0.000 HD 
ENDROOT
BRANCH   2   4
HETATM    4  C   UNL     1     -11.313  13.873  67.297  1.00  0.00    -0.323 C  
HETATM    5  C   UNL     1     -10.111  14.024  68.263  1.00  0.00    -0.246 C  
HETATM    6  C   UNL     1      -8.792  13.997  67.459  1.00  0.00    -0.199 C  
HETATM    7  O   UNL     1     -10.127  13.009  69.269  1.00  0.00    -0.364 OA 
HETATM    8  H   UNL     1      -9.390  13.102  69.862  1.00  0.00     0.000 HD 
HETATM    9  O   UNL     1     -11.498  16.255  66.689  1.00  0.00     0.279 OA 
HETATM   10  O   UNL     1      -8.788  15.092  66.541  1.00  0.00    -0.273 OA 
HETATM   11  H   UNL     1     -11.446  16.908  66.000  1.00  0.00     0.000 HD 
HETATM   12  C   UNL     1      -9.814  14.966  65.541  1.00  0.00    -0.313 C  
HETATM   13  C   UNL     1     -12.248  14.687  65.047  1.00  0.00    -0.323 C  
HETATM   14  C   UNL     1     -11.228  14.947  66.162  1.00  0.00    -0.325 C  
BRANCH   6  15
HETATM   15  O   UNL     1      -8.639  12.750  66.777  1.00  0.00    -0.174 OA 
BRANCH  15  16
HETATM   16  C   UNL     1      -8.482  11.587  67.609  1.00  0.00    -0.135 C  
HETATM   17  H1  UNL     1      -4.469  10.159  68.932  1.00  0.00     0.000 HD 
HETATM   18  C   UNL     1      -7.959  10.339  66.861  1.00  0.00    -0.112 C  
HETATM   19  C   UNL     1      -7.503  11.984  68.748  1.00  0.00    -0.086 C  
HETATM   20  H2  UNL     1      -4.794   9.112  67.651  1.00  0.00     0.000 HD 
HETATM   21  C   UNL     1      -5.535  11.035  67.384  1.00  0.00    -0.047 C  
HETATM   22  C   UNL     1      -6.553  10.620  66.305  1.00  0.00    -0.126 C  
HETATM   23  O   UNL     1      -7.507  10.971  69.778  1.00  0.00    -0.349 OA 
HETATM   24  H   UNL     1      -6.908  11.213  70.475  1.00  0.00     0.000 HD 
HETATM   25  N   UNL     1      -5.143   9.884  68.218  1.00  0.00    -0.036 NA 
HETATM   26  C   UNL     1      -6.062  12.241  68.220  1.00  0.00    -0.054 C  
BRANCH  18  27
HETATM   27  N   UNL     1      -8.010   9.145  67.705  1.00  0.00    -0.100 N  
HETATM   28  H   UNL     1      -7.285   9.017  68.411  1.00  0.00     0.000 HD 
HETATM   29  C   UNL     1      -8.990   8.185  67.592  1.00  0.00    -0.132 C  
HETATM   30  O   UNL     1      -9.924   8.248  66.800  1.00  0.00    -0.235 OA 
BRANCH  29  31
HETATM   31  C   UNL     1      -8.841   7.014  68.576  1.00  0.00    -0.124 C  
HETATM   32  H   UNL     1      -7.371   5.983  69.396  1.00  0.00     0.000 HD 
HETATM   33  O   UNL     1      -7.462   6.707  68.787  1.00  0.00    -0.091 OA 
BRANCH  31  34
HETATM   34  C   UNL     1      -9.478   7.348  69.926  1.00  0.00    -0.153 C  
BRANCH  34  35
HETATM   35  C   UNL     1     -10.984   7.576  69.803  1.00  0.00    -0.184 C  
HETATM   36  H1  UNL     1     -12.712   6.484  69.954  1.00  0.00     0.000 HD 
HETATM   37  H2  UNL     1     -11.459   5.910  70.930  1.00  0.00     0.000 HD 
HETATM   38  N   UNL     1     -11.708   6.332  70.036  1.00  0.00    -0.331 NA 
ENDBRANCH  34  35
ENDBRANCH  31  34
ENDBRANCH  29  31
ENDBRANCH  18  27
BRANCH  26  39
HETATM   39  O   UNL     1      -5.946  13.370  67.355  1.00  0.00    -0.331 OA 
BRANCH  39  40
HETATM   40  C   UNL     1      -5.348  14.563  67.870  1.00  0.00    -0.074 C  
HETATM   41  H1  UNL     1      -7.233  14.143  70.761  1.00  0.00     0.000 HD 
HETATM   42  O   UNL     1      -5.791  15.723  67.158  1.00  0.00    -0.334 OA 
HETATM   43  H2  UNL     1      -7.168  13.176  69.397  1.00  0.00     0.000 HD 
HETATM   44  N   UNL     1      -7.022  14.117  69.764  1.00  0.00    -0.023 NA 
HETATM   45  C   UNL     1      -5.673  14.604  69.400  1.00  0.00    -0.095 C  
HETATM   46  C   UNL     1      -5.358  16.917  67.713  1.00  0.00    -0.122 C  
HETATM   47  C   UNL     1      -5.353  15.971  70.022  1.00  0.00    -0.147 C  
HETATM   48  C   UNL     1      -5.136  17.061  69.028  1.00  0.00    -0.134 C  
BRANCH  46  49
HETATM   49  C   UNL     1      -5.198  18.062  66.738  1.00  0.00    -0.138 C  
BRANCH  49  50
HETATM   50  N   UNL     1      -5.688  19.341  67.261  1.00  0.00    -0.171 NA 
HETATM   51  H   UNL     1      -4.924  19.997  67.418  1.00  0.00     0.000 HD 
BRANCH  50  52
HETATM   52  C   UNL     1      -6.723  19.920  66.386  1.00  0.00    -0.209 C  
BRANCH  52  53
HETATM   53  C   UNL     1      -6.248  19.960  64.931  1.00  0.00    -0.274 C  
HETATM   54  O   UNL     1      -6.731  21.131  64.277  1.00  0.00    -0.535 OA 
HETATM   55  H   UNL     1      -6.436  21.156  63.374  1.00  0.00     0.000 HD 
ENDBRANCH  52  53
ENDBRANCH  50  52
ENDBRANCH  49  50
ENDBRANCH  46  49
ENDBRANCH  39  40
ENDBRANCH  26  39
ENDBRANCH  15  16
ENDBRANCH   6  15
ENDBRANCH   2   4
TORSDOF 13
ENDMDL
MODEL      193
REMARK 921   NORMALIZED FREE ENERGY PREDICTED BY IDOCK:   -0.44 KCAL/MOL
REMARK 922        TOTAL FREE ENERGY PREDICTED BY IDOCK:   -4.24 KCAL/MOL
REMARK 923 INTER-LIGAND FREE ENERGY PREDICTED BY IDOCK:   -5.72 KCAL/MOL
REMARK 924 INTRA-LIGAND FREE ENERGY PREDICTED BY IDOCK:    1.48 KCAL/MOL
REMARK 927      BINDING AFFINITY PREDICTED BY RF-SCORE:    0.00 PKD
ROOT
HETATM    1  C   UNL     1     -13.714  12.925  72.396  1.00  0.00    -0.431 C  
HETATM    2  N   UNL     1     -12.907  12.341  71.330  1.00  0.00    -0.312 NA 
HETATM    3  H   UNL     1     -13.500  11.802  70.698  1.00  0.00     0.000 HD 
ENDROOT
BRANCH   2   4
HETATM    4  C   UNL     1     -12.075  13.305  70.549  1.00  0.00    -0.314 C  
HETATM    5  C   UNL     1     -10.667  12.745  70.222  1.00  0.00     1.790 C  
HETATM    6  C   UNL     1      -9.929  13.716  69.274  1.00  0.00     0.369 C  
HETATM    7  O   UNL     1     -10.752  11.433  69.661  1.00  0.00    -0.439 OA 
HETATM    8  H   UNL     1      -9.889  11.089  69.461  1.00  0.00     0.000 HD 
HETATM    9  O   UNL     1     -11.378  14.774  72.403  1.00  0.00    -0.302 OA 
HETATM   10  O   UNL     1      -9.784  14.978  69.926  1.00  0.00    -0.083 OA 
HETATM   11  H   UNL     1     -11.306  15.663  72.731  1.00  0.00     0.000 HD 
HETATM   12  C   UNL     1     -11.051  15.614  70.167  1.00  0.00    -0.336 C  
HETATM   13  C   UNL     1     -13.324  15.456  71.193  1.00  0.00    -0.580 C  
HETATM   14  C   UNL     1     -11.957  14.770  71.089  1.00  0.00    -0.335 C  
BRANCH   6  15
HETATM   15  O   UNL     1     -10.634  13.850  68.037  1.00  0.00    -0.240 OA 
BRANCH  15  16
HETATM   16  C   UNL     1     -10.948  15.192  67.628  1.00  0.00    -0.308 C  
HETATM   17  H1  UNL     1     -12.368  16.130  63.506  1.00  0.00     0.000 HD 
HETATM   18  C   UNL     1      -9.887  15.839  66.709  1.00  0.00    -0.245 C  
HETATM   19  C   UNL     1     -12.321  15.127  66.905  1.00  0.00     0.659 C  
HETATM   20  H2  UNL     1     -10.739  16.555  63.406  1.00  0.00     0.000 HD 
HETATM   21  C   UNL     1     -11.117  14.925  64.638  1.00  0.00    -0.323 C  
HETATM   22  C   UNL     1      -9.781  15.041  65.398  1.00  0.00    -0.227 C  
HETATM   23  O   UNL     1     -12.840  16.461  66.710  1.00  0.00     3.005 OA 
HETATM   24  H   UNL     1     -13.680  16.422  66.267  1.00  0.00     0.000 HD 
HETATM   25  N   UNL     1     -11.484  16.206  64.008  1.00  0.00    -0.856 NA 
HETATM   26  C   UNL     1     -12.239  14.354  65.557  1.00  0.00    -0.348 C  
BRANCH  18  27
HETATM   27  N   UNL     1     -10.157  17.261  66.490  1.00  0.00    -0.298 N  
HETATM   28  H   UNL     1     -11.110  17.600  66.623  1.00  0.00     0.000 HD 
HETATM   29  C   UNL     1      -9.188  18.162  66.114  1.00  0.00    -0.119 C  
HETATM   30  O   UNL     1      -8.007  17.872  65.954  1.00  0.00    -0.523 OA 
BRANCH  29  31
HETATM   31  C   UNL     1      -9.700  19.600  65.935  1.00  0.00    -0.239 C  
HETATM   32  H   UNL     1     -11.111  20.522  64.908  1.00  0.00     0.000 HD 
HETATM   33  O   UNL     1     -10.795  19.633  65.019  1.00  0.00    -0.304 OA 
BRANCH  31  34
HETATM   34  C   UNL     1     -10.164  20.187  67.269  1.00  0.00    -0.540 C  
BRANCH  34  35
HETATM   35  C   UNL     1      -9.280  19.729  68.429  1.00  0.00    -0.297 C  
HETATM   36  H1  UNL     1      -9.417  18.495  70.060  1.00  0.00     0.000 HD 
HETATM   37  H2  UNL     1     -10.381  18.011  68.760  1.00  0.00     0.000 HD 
HETATM   38  N   UNL     1     -10.006  18.800  69.286  1.00  0.00    -0.210 NA 
ENDBRANCH  34  35
ENDBRANCH  31  34
ENDBRANCH  29  31
ENDBRANCH  18  27
BRANCH  26  39
HETATM   39  O   UNL     1     -11.937  12.967  65.693  1.00  0.00    -0.381 OA 
BRANCH  39  40
HETATM   40  C   UNL     1     -10.815  12.440  64.978  1.00  0.00    -0.295 C  
HETATM   41  H1  UNL     1     -13.000  11.520  62.433  1.00  0.00     0.000 HD 
HETATM   42  O   UNL     1     -10.284  11.274  65.615  1.00  0.00    -0.235 OA 
HETATM   43  H2  UNL     1     -13.331  12.310  63.870  1.00  0.00     0.000 HD 
HETATM   44  N   UNL     1     -12.685  11.684  63.389  1.00  0.00    -0.379 NA 
HETATM   45  C   UNL     1     -11.299  12.188  63.510  1.00  0.00    -0.453 C  
HETATM   46  C   UNL     1      -9.294  10.640  64.882  1.00  0.00    -0.228 C  
HETATM   47  C   UNL     1     -10.294  11.348  62.708  1.00  0.00    -0.000 C  
HETATM   48  C   UNL     1      -9.264  10.664  63.541  1.00  0.00    -0.283 C  
BRANCH  46  49
HETATM   49  C   UNL     1      -8.274   9.877  65.698  1.00  0.00    -0.138 C  
BRANCH  49  50
HETATM   50  N   UNL     1      -8.598   8.456  65.850  1.00  0.00    -0.150 NA 
HETATM   51  H   UNL     1      -7.888   7.968  66.396  1.00  0.00     0.000 HD 
BRANCH  50  52
HETATM   52  C   UNL     1      -9.943   8.268  66.423  1.00  0.00    -0.194 C  
BRANCH  52  53
HETATM   53  C   UNL     1      -9.860   7.967  67.921  1.00  0.00    -0.165 C  
HETATM   54  O   UNL     1     -11.115   7.501  68.410  1.00  0.00    -0.436 OA 
HETATM   55  H   UNL     1     -11.064   7.314  69.340  1.00  0.00     0.000 HD 
ENDBRANCH  52  53
ENDBRANCH  50  52
ENDBRANCH  49  50
ENDBRANCH  46  49
ENDBRANCH  39  40
ENDBRANCH  26  39
ENDBRANCH  15  16
ENDBRANCH   6  15
ENDBRANCH   2   4
TORSDOF 13
ENDMDL
MODEL      194
REMARK 921   NORMALIZED FREE ENERGY PREDICTED BY IDOCK:   -0.38 KCAL/MOL
REMARK 922        TOTAL FREE ENERGY PREDICTED BY IDOCK:   -4.14 KCAL/MOL
REMARK 923 INTER-LIGAND FREE ENERGY PREDICTED BY IDOCK:   -8.22 KCAL/MOL
REMARK 924 INTRA-LIGAND FREE ENERGY PREDICTED BY IDOCK:    4.08 KCAL/MOL
REMARK 927      BINDING AFFINITY PREDICTED BY RF-SCORE:    0.00 PKD
ROOT
HETATM    1  C   UNL     1      -6.448  13.979  70.414  1.00  0.00     0.001 C  
HETATM    2  N   UNL     1      -6.767  12.565  70.247  1.00  0.00    -0.281 NA 
HETATM    3  H   UNL     1      -7.408  12.262  70.981  1.00  0.00     0.000 HD 
ENDROOT
BRANCH   2   4
HETATM    4  C   UNL     1      -7.307  12.180  68.908  1.00  0.00    -0.054 C  
HETATM    5  C   UNL     1      -7.889  10.744  68.894  1.00  0.00    -0.136 C  
HETATM    6  C   UNL     1      -8.581  10.476  67.538  1.00  0.00    -0.121 C  
HETATM    7  O   UNL     1      -8.789  10.541  69.986  1.00  0.00    -0.336 OA 
HETATM    8  H   UNL     1      -9.146   9.660  69.977  1.00  0.00     0.000 HD 
HETATM    9  O   UNL     1      -5.175  11.639  67.793  1.00  0.00    -0.045 OA 
HETATM   10  O   UNL     1      -7.612  10.593  66.495  1.00  0.00    -0.121 OA 
HETATM   11  H   UNL     1      -4.616  11.771  67.036  1.00  0.00     0.000 HD 
HETATM   12  C   UNL     1      -7.102  11.932  66.374  1.00  0.00     0.336 C  
HETATM   13  C   UNL     1      -5.986  13.868  67.492  1.00  0.00     0.049 C  
HETATM   14  C   UNL     1      -6.387  12.398  67.661  1.00  0.00    -0.131 C  
BRANCH   6  15
HETATM   15  O   UNL     1      -9.669  11.381  67.338  1.00  0.00    -0.179 OA 
BRANCH  15  16
HETATM   16  C   UNL     1      -9.444  12.744  67.737  1.00  0.00    -0.205 C  
HETATM   17  H1  UNL     1     -12.756  15.356  69.183  1.00  0.00     0.000 HD 
HETATM   18  C   UNL     1      -9.935  13.794  66.714  1.00  0.00    -0.270 C  
HETATM   19  C   UNL     1     -10.169  12.935  69.098  1.00  0.00     0.258 C  
HETATM   20  H2  UNL     1     -12.594  15.872  67.585  1.00  0.00     0.000 HD 
HETATM   21  C   UNL     1     -12.240  13.843  67.864  1.00  0.00    -0.159 C  
HETATM   22  C   UNL     1     -11.460  13.678  66.545  1.00  0.00    -0.357 C  
HETATM   23  O   UNL     1      -9.764  14.183  69.702  1.00  0.00    -0.214 OA 
HETATM   24  H   UNL     1     -10.208  14.300  70.534  1.00  0.00     0.000 HD 
HETATM   25  N   UNL     1     -12.241  15.248  68.311  1.00  0.00     0.020 NA 
HETATM   26  C   UNL     1     -11.716  12.858  68.953  1.00  0.00    -0.327 C  
BRANCH  18  27
HETATM   27  N   UNL     1      -9.502  15.144  67.077  1.00  0.00    -0.218 N  
HETATM   28  H   UNL     1      -9.231  15.324  68.044  1.00  0.00     0.000 HD 
HETATM   29  C   UNL     1      -9.444  16.183  66.176  1.00  0.00    -0.327 C  
HETATM   30  O   UNL     1      -9.719  16.075  64.986  1.00  0.00    -0.257 OA 
BRANCH  29  31
HETATM   31  C   UNL     1      -8.967  17.514  66.779  1.00  0.00    -0.256 C  
HETATM   32  H   UNL     1      -7.406  18.708  66.609  1.00  0.00     0.000 HD 
HETATM   33  O   UNL     1      -7.700  17.885  66.236  1.00  0.00    -0.255 OA 
BRANCH  31  34
HETATM   34  C   UNL     1      -9.967  18.634  66.493  1.00  0.00    -0.408 C  
BRANCH  34  35
HETATM   35  C   UNL     1     -10.250  19.476  67.738  1.00  0.00    -0.429 C  
HETATM   36  H1  UNL     1      -9.738  19.487  69.723  1.00  0.00     0.000 HD 
HETATM   37  H2  UNL     1      -8.550  18.828  68.720  1.00  0.00     0.000 HD 
HETATM   38  N   UNL     1      -9.550  18.926  68.893  1.00  0.00    -0.364 NA 
ENDBRANCH  34  35
ENDBRANCH  31  34
ENDBRANCH  29  31
ENDBRANCH  18  27
BRANCH  26  39
HETATM   39  O   UNL     1     -12.206  11.577  68.560  1.00  0.00    -0.524 OA 
BRANCH  39  40
HETATM   40  C   UNL     1     -12.508  10.621  69.581  1.00  0.00    -0.052 C  
HETATM   41  H1  UNL     1     -12.695  13.250  71.850  1.00  0.00     0.000 HD 
HETATM   42  O   UNL     1     -11.379   9.794  69.879  1.00  0.00    -0.240 OA 
HETATM   43  H2  UNL     1     -12.386  13.297  70.206  1.00  0.00     0.000 HD 
HETATM   44  N   UNL     1     -12.352  12.722  71.047  1.00  0.00    -0.313 NA 
HETATM   45  C   UNL     1     -13.035  11.431  70.812  1.00  0.00    -0.049 C  
HETATM   46  C   UNL     1     -11.574   8.953  70.962  1.00  0.00    -0.293 C  
HETATM   47  C   UNL     1     -13.115  10.567  72.079  1.00  0.00    -0.511 C  
HETATM   48  C   UNL     1     -12.376   9.275  71.988  1.00  0.00    -0.433 C  
BRANCH  46  49
HETATM   49  C   UNL     1     -10.782   7.665  70.933  1.00  0.00    -0.235 C  
BRANCH  49  50
HETATM   50  N   UNL     1     -11.549   6.523  70.426  1.00  0.00    -0.401 NA 
HETATM   51  H   UNL     1     -11.969   6.729  69.520  1.00  0.00     0.000 HD 
BRANCH  50  52
HETATM   52  C   UNL     1     -10.727   5.302  70.373  1.00  0.00    -0.146 C  
BRANCH  52  53
HETATM   53  C   UNL     1      -9.509   5.424  71.293  1.00  0.00    -0.150 C  
HETATM   54  O   UNL     1      -8.381   4.766  70.723  1.00  0.00    -0.090 OA 
HETATM   55  H   UNL     1      -7.625   4.842  71.294  1.00  0.00     0.000 HD 
ENDBRANCH  52  53
ENDBRANCH  50  52
ENDBRANCH  49  50
ENDBRANCH  46  49
ENDBRANCH  39  40
ENDBRANCH  26  39
ENDBRANCH  15  16
ENDBRANCH   6  15
ENDBRANCH   2   4
TORSDOF 13
ENDMDL
MODEL      195
REMARK 921   NORMALIZED FREE ENERGY PREDICTED BY IDOCK:   -0.35 KCAL/MOL
REMARK 922        TOTAL FREE ENERGY PREDICTED BY IDOCK:   -4.07 KCAL/MOL
REMARK 923 INTER-LIGAND FREE ENERGY PREDICTED BY IDOCK:   -3.80 KCAL/MOL
REMARK 924 INTRA-LIGAND FREE ENERGY PREDICTED BY IDOCK:   -0.27 KCAL/MOL
REMARK 927      BINDING AFFINITY PREDICTED BY RF-SCORE:    0.00 PKD
ROOT
HETATM    1  C   UNL     1     -12.637  12.765  66.967  1.00  0.00     0.921 C  
HETATM    2  N   UNL     1     -11.784  13.266  68.040  1.00  0.00    -0.340 NA 
HETATM    3  H   UNL     1     -12.041  14.226  68.271  1.00  0.00     0.000 HD 
ENDROOT
BRANCH   2   4
HETATM    4  C   UNL     1     -11.751  12.433  69.280  1.00  0.00    -0.329 C  
HETATM    5  C   UNL     1     -12.367  11.027  69.068  1.00  0.00     0.076 C  
HETATM    6  C   UNL     1     -12.145  10.166  70.331  1.00  0.00    -0.246 C  
HETATM    7  O   UNL     1     -11.823  10.397  67.906  1.00  0.00    -0.702 OA 
HETATM    8  H   UNL     1     -12.201   9.535  67.775  1.00  0.00     0.000 HD 
HETATM    9  O   UNL     1     -13.688  13.425  70.441  1.00  0.00     0.702 OA 
HETATM   10  O   UNL     1     -12.795  10.793  71.437  1.00  0.00    -0.388 OA 
HETATM   11  H   UNL     1     -14.024  13.811  71.241  1.00  0.00     0.000 HD 
HETATM   12  C   UNL     1     -12.205  12.062  71.766  1.00  0.00     0.685 C  
HETATM   13  C   UNL     1     -11.548  14.344  70.986  1.00  0.00    -0.167 C  
HETATM   14  C   UNL     1     -12.306  13.068  70.599  1.00  0.00    -0.310 C  
BRANCH   6  15
HETATM   15  O   UNL     1     -10.749   9.988  70.584  1.00  0.00    -0.303 OA 
BRANCH  15  16
HETATM   16  C   UNL     1     -10.404   8.999  71.569  1.00  0.00    -0.342 C  
HETATM   17  H1  UNL     1      -6.458   6.920  71.541  1.00  0.00     0.000 HD 
HETATM   18  C   UNL     1     -10.441   7.544  71.047  1.00  0.00    -0.215 C  
HETATM   19  C   UNL     1      -8.979   9.354  72.076  1.00  0.00     1.080 C  
HETATM   20  H2  UNL     1      -7.454   5.761  70.828  1.00  0.00     0.000 HD 
HETATM   21  C   UNL     1      -7.964   7.722  70.362  1.00  0.00    -0.095 C  
HETATM   22  C   UNL     1      -9.400   7.369  69.928  1.00  0.00    -0.154 C  
HETATM   23  O   UNL     1      -8.669   8.583  73.258  1.00  0.00    -0.337 OA 
HETATM   24  H   UNL     1      -7.797   8.800  73.568  1.00  0.00     0.000 HD 
HETATM   25  N   UNL     1      -7.408   6.687  71.254  1.00  0.00    -0.082 NA 
HETATM   26  C   UNL     1      -7.898   9.153  70.975  1.00  0.00    -0.116 C  
BRANCH  18  27
HETATM   27  N   UNL     1     -10.280   6.577  72.133  1.00  0.00    -0.184 N  
HETATM   28  H   UNL     1     -10.001   6.921  73.052  1.00  0.00     0.000 HD 
HETATM   29  C   UNL     1     -10.485   5.226  71.974  1.00  0.00    -0.222 C  
HETATM   30  O   UNL     1     -10.848   4.706  70.924  1.00  0.00     0.188 OA 
BRANCH  29  31
HETATM   31  C   UNL     1     -10.251   4.398  73.248  1.00  0.00    -0.162 C  
HETATM   32  H   UNL     1     -11.330   3.310  74.492  1.00  0.00     0.000 HD 
HETATM   33  O   UNL     1     -11.475   3.822  73.704  1.00  0.00    -0.208 OA 
BRANCH  31  34
HETATM   34  C   UNL     1      -9.248   3.273  72.994  1.00  0.00    -0.114 C  
BRANCH  34  35
HETATM   35  C   UNL     1      -8.180   3.682  71.979  1.00  0.00    -0.072 C  
HETATM   36  H1  UNL     1      -7.408   2.988  70.211  1.00  0.00     0.000 HD 
HETATM   37  H2  UNL     1      -9.030   2.582  70.448  1.00  0.00     0.000 HD 
HETATM   38  N   UNL     1      -8.120   2.716  70.888  1.00  0.00    -0.049 NA 
ENDBRANCH  34  35
ENDBRANCH  31  34
ENDBRANCH  29  31
ENDBRANCH  18  27
BRANCH  26  39
HETATM   39  O   UNL     1      -8.020  10.038  69.863  1.00  0.00    -0.165 OA 
BRANCH  39  40
HETATM   40  C   UNL     1      -7.924   9.493  68.544  1.00  0.00    -0.093 C  
HETATM   41  H1  UNL     1      -4.790  10.974  68.267  1.00  0.00     0.000 HD 
HETATM   42  O   UNL     1      -8.846  10.121  67.647  1.00  0.00    -0.125 OA 
HETATM   43  H2  UNL     1      -5.849  10.985  69.562  1.00  0.00     0.000 HD 
HETATM   44  N   UNL     1      -5.766  10.882  68.551  1.00  0.00    -0.043 NA 
HETATM   45  C   UNL     1      -6.428   9.635  68.108  1.00  0.00    -0.057 C  
HETATM   46  C   UNL     1      -8.689   9.733  66.326  1.00  0.00    -0.139 C  
HETATM   47  C   UNL     1      -6.236   9.367  66.608  1.00  0.00    -0.065 C  
HETATM   48  C   UNL     1      -7.502   9.370  65.818  1.00  0.00    -0.099 C  
BRANCH  46  49
HETATM   49  C   UNL     1      -9.942   9.795  65.481  1.00  0.00    -0.259 C  
BRANCH  49  50
HETATM   50  N   UNL     1     -10.372  11.163  65.178  1.00  0.00    -0.282 NA 
HETATM   51  H   UNL     1     -10.522  11.703  66.030  1.00  0.00     0.000 HD 
BRANCH  50  52
HETATM   52  C   UNL     1      -9.426  11.838  64.272  1.00  0.00     0.033 C  
BRANCH  52  53
HETATM   53  C   UNL     1      -9.067  10.936  63.088  1.00  0.00    -0.273 C  
HETATM   54  O   UNL     1     -10.239  10.564  62.367  1.00  0.00    -0.746 OA 
HETATM   55  H   UNL     1     -10.016  10.004  61.632  1.00  0.00     0.000 HD 
ENDBRANCH  52  53
ENDBRANCH  50  52
ENDBRANCH  49  50
ENDBRANCH  46  49
ENDBRANCH  39  40
ENDBRANCH  26  39
ENDBRANCH  15  16
ENDBRANCH   6  15
ENDBRANCH   2   4
TORSDOF 13
ENDMDL
MODEL      196
REMARK 921   NORMALIZED FREE ENERGY PREDICTED BY IDOCK:   -0.34 KCAL/MOL
REMARK 922        TOTAL FREE ENERGY PREDICTED BY IDOCK:   -4.06 KCAL/MOL
REMARK 923 INTER-LIGAND FREE ENERGY PREDICTED BY IDOCK:   -6.88 KCAL/MOL
REMARK 924 INTRA-LIGAND FREE ENERGY PREDICTED BY IDOCK:    2.81 KCAL/MOL
REMARK 927      BINDING AFFINITY PREDICTED BY RF-SCORE:    0.00 PKD
ROOT
HETATM    1  C   UNL     1     -11.862   9.982  69.924  1.00  0.00    -0.074 C  
HETATM    2  N   UNL     1     -11.615   8.563  69.690  1.00  0.00    -0.236 NA 
HETATM    3  H   UNL     1     -12.473   8.104  69.384  1.00  0.00     0.000 HD 
ENDROOT
BRANCH   2   4
HETATM    4  C   UNL     1     -10.503   8.250  68.742  1.00  0.00    -0.177 C  
HETATM    5  C   UNL     1     -10.369   9.306  67.616  1.00  0.00    -0.253 C  
HETATM    6  C   UNL     1      -9.103   9.016  66.780  1.00  0.00    -0.145 C  
HETATM    7  O   UNL     1     -10.347  10.631  68.152  1.00  0.00    -0.163 OA 
HETATM    8  H   UNL     1     -10.265  11.279  67.461  1.00  0.00     0.000 HD 
HETATM    9  O   UNL     1     -11.645   6.531  67.391  1.00  0.00    -0.719 OA 
HETATM   10  O   UNL     1      -9.227   7.723  66.187  1.00  0.00    -0.174 OA 
HETATM   11  H   UNL     1     -11.611   5.656  67.023  1.00  0.00     0.000 HD 
HETATM   12  C   UNL     1      -9.248   6.675  67.171  1.00  0.00    -0.126 C  
HETATM   13  C   UNL     1     -10.326   5.732  69.219  1.00  0.00    -0.326 C  
HETATM   14  C   UNL     1     -10.448   6.808  68.134  1.00  0.00    -0.211 C  
BRANCH   6  15
HETATM   15  O   UNL     1      -7.929   9.105  67.591  1.00  0.00    -0.100 OA 
BRANCH  15  16
HETATM   16  C   UNL     1      -8.115   8.901  69.002  1.00  0.00    -0.115 C  
HETATM   17  H1  UNL     1      -5.714  11.111  72.042  1.00  0.00     0.000 HD 
HETATM   18  C   UNL     1      -7.000   8.070  69.675  1.00  0.00    -0.049 C  
HETATM   19  C   UNL     1      -8.203  10.311  69.648  1.00  0.00    -0.133 C  
HETATM   20  H2  UNL     1      -4.922   9.623  72.003  1.00  0.00     0.000 HD 
HETATM   21  C   UNL     1      -5.682  10.228  70.166  1.00  0.00    -0.058 C  
HETATM   22  C   UNL     1      -5.658   8.813  69.557  1.00  0.00    -0.034 C  
HETATM   23  O   UNL     1      -8.666  10.202  71.012  1.00  0.00    -0.032 OA 
HETATM   24  H   UNL     1      -8.720  11.065  71.407  1.00  0.00     0.000 HD 
HETATM   25  N   UNL     1      -5.699  10.175  71.639  1.00  0.00    -0.291 NA 
HETATM   26  C   UNL     1      -6.849  11.075  69.574  1.00  0.00    -0.133 C  
BRANCH  18  27
HETATM   27  N   UNL     1      -7.342   7.727  71.056  1.00  0.00    -0.071 N  
HETATM   28  H   UNL     1      -7.610   8.479  71.692  1.00  0.00     0.000 HD 
HETATM   29  C   UNL     1      -7.319   6.438  71.539  1.00  0.00    -0.088 C  
HETATM   30  O   UNL     1      -7.039   5.456  70.860  1.00  0.00    -0.060 OA 
BRANCH  29  31
HETATM   31  C   UNL     1      -7.708   6.313  73.021  1.00  0.00    -0.100 C  
HETATM   32  H   UNL     1      -7.123   7.076  74.745  1.00  0.00     0.000 HD 
HETATM   33  O   UNL     1      -6.882   7.153  73.829  1.00  0.00    -0.073 OA 
BRANCH  31  34
HETATM   34  C   UNL     1      -9.168   6.711  73.239  1.00  0.00    -0.145 C  
BRANCH  34  35
HETATM   35  C   UNL     1      -9.983   5.570  73.849  1.00  0.00    -0.195 C  
HETATM   36  H1  UNL     1     -10.046   3.523  73.765  1.00  0.00     0.000 HD 
HETATM   37  H2  UNL     1      -8.502   4.165  73.522  1.00  0.00     0.000 HD 
HETATM   38  N   UNL     1      -9.502   4.284  73.359  1.00  0.00    -0.110 NA 
ENDBRANCH  34  35
ENDBRANCH  31  34
ENDBRANCH  29  31
ENDBRANCH  18  27
BRANCH  26  39
HETATM   39  O   UNL     1      -6.433  11.406  68.251  1.00  0.00    -0.055 OA 
BRANCH  39  40
HETATM   40  C   UNL     1      -6.971  12.584  67.642  1.00  0.00    -0.139 C  
HETATM   41  H1  UNL     1      -4.655  14.451  69.443  1.00  0.00     0.000 HD 
HETATM   42  O   UNL     1      -8.295  12.861  68.109  1.00  0.00    -0.155 OA 
HETATM   43  H2  UNL     1      -4.876  12.793  69.413  1.00  0.00     0.000 HD 
HETATM   44  N   UNL     1      -5.319  13.699  69.260  1.00  0.00    -0.077 NA 
HETATM   45  C   UNL     1      -5.952  13.739  67.923  1.00  0.00    -0.142 C  
HETATM   46  C   UNL     1      -8.802  14.071  67.664  1.00  0.00    -0.190 C  
HETATM   47  C   UNL     1      -6.537  15.118  67.590  1.00  0.00    -0.195 C  
HETATM   48  C   UNL     1      -8.017  15.128  67.405  1.00  0.00    -0.215 C  
BRANCH  46  49
HETATM   49  C   UNL     1     -10.307  14.134  67.535  1.00  0.00    -0.248 C  
BRANCH  49  50
HETATM   50  N   UNL     1     -10.804  15.467  67.181  1.00  0.00    -0.319 NA 
HETATM   51  H   UNL     1     -10.337  16.194  67.722  1.00  0.00     0.000 HD 
BRANCH  50  52
HETATM   52  C   UNL     1     -10.693  15.717  65.733  1.00  0.00    -0.341 C  
BRANCH  52  53
HETATM   53  C   UNL     1     -10.696  17.219  65.437  1.00  0.00    -0.066 C  
HETATM   54  O   UNL     1     -10.197  17.952  66.553  1.00  0.00    -0.347 OA 
HETATM   55  H   UNL     1     -10.200  18.884  66.369  1.00  0.00     0.000 HD 
ENDBRANCH  52  53
ENDBRANCH  50  52
ENDBRANCH  49  50
ENDBRANCH  46  49
ENDBRANCH  39  40
ENDBRANCH  26  39
ENDBRANCH  15  16
ENDBRANCH   6  15
ENDBRANCH   2   4
TORSDOF 13
ENDMDL
MODEL      197
REMARK 921   NORMALIZED FREE ENERGY PREDICTED BY IDOCK:   -0.33 KCAL/MOL
REMARK 922        TOTAL FREE ENERGY PREDICTED BY IDOCK:   -4.05 KCAL/MOL
REMARK 923 INTER-LIGAND FREE ENERGY PREDICTED BY IDOCK:   -5.88 KCAL/MOL
REMARK 924 INTRA-LIGAND FREE ENERGY PREDICTED BY IDOCK:    1.83 KCAL/MOL
REMARK 927      BINDING AFFINITY PREDICTED BY RF-SCORE:    0.00 PKD
ROOT
HETATM    1  C   UNL     1     -10.728  10.299  68.572  1.00  0.00    -0.227 C  
HETATM    2  N   UNL     1      -9.733  11.050  69.333  1.00  0.00    -0.427 NA 
HETATM    3  H   UNL     1      -9.662  10.676  70.279  1.00  0.00     0.000 HD 
ENDROOT
BRANCH   2   4
HETATM    4  C   UNL     1      -8.376  11.132  68.714  1.00  0.00    -0.136 C  
HETATM    5  C   UNL     1      -7.251  10.703  69.690  1.00  0.00    -0.139 C  
HETATM    6  C   UNL     1      -5.903  10.646  68.937  1.00  0.00    -0.040 C  
HETATM    7  O   UNL     1      -7.556   9.450  70.308  1.00  0.00    -0.102 OA 
HETATM    8  H   UNL     1      -6.866   9.188  70.907  1.00  0.00     0.000 HD 
HETATM    9  O   UNL     1      -8.024  13.564  68.918  1.00  0.00    -0.317 OA 
HETATM   10  O   UNL     1      -5.603  11.947  68.429  1.00  0.00    -0.049 OA 
HETATM   11  H   UNL     1      -7.786  14.374  68.482  1.00  0.00     0.000 HD 
HETATM   12  C   UNL     1      -6.547  12.372  67.432  1.00  0.00    -0.157 C  
HETATM   13  C   UNL     1      -8.938  12.802  66.844  1.00  0.00    -0.213 C  
HETATM   14  C   UNL     1      -7.982  12.465  67.995  1.00  0.00    -0.155 C  
BRANCH   6  15
HETATM   15  O   UNL     1      -5.950   9.678  67.886  1.00  0.00    -0.050 OA 
BRANCH  15  16
HETATM   16  C   UNL     1      -7.022   9.820  66.939  1.00  0.00    -0.088 C  
HETATM   17  H1  UNL     1      -8.033   6.603  64.020  1.00  0.00     0.000 HD 
HETATM   18  C   UNL     1      -6.557  10.091  65.491  1.00  0.00    -0.100 C  
HETATM   19  C   UNL     1      -7.851   8.507  67.005  1.00  0.00    -0.096 C  
HETATM   20  H2  UNL     1      -7.138   7.661  63.059  1.00  0.00     0.000 HD 
HETATM   21  C   UNL     1      -6.494   7.556  65.033  1.00  0.00    -0.038 C  
HETATM   22  C   UNL     1      -5.734   8.895  64.979  1.00  0.00    -0.055 C  
HETATM   23  O   UNL     1      -9.098   8.674  66.295  1.00  0.00    -0.161 OA 
HETATM   24  H   UNL     1      -9.604   7.871  66.335  1.00  0.00     0.000 HD 
HETATM   25  N   UNL     1      -7.530   7.489  63.985  1.00  0.00    -0.096 NA 
HETATM   26  C   UNL     1      -7.055   7.285  66.461  1.00  0.00    -0.078 C  
BRANCH  18  27
HETATM   27  N   UNL     1      -7.683  10.423  64.616  1.00  0.00    -0.292 N  
HETATM   28  H   UNL     1      -8.612  10.505  65.030  1.00  0.00     0.000 HD 
HETATM   29  C   UNL     1      -7.548  10.631  63.262  1.00  0.00     0.084 C  
HETATM   30  O   UNL     1      -6.478  10.586  62.665  1.00  0.00    -0.140 OA 
BRANCH  29  31
HETATM   31  C   UNL     1      -8.864  10.962  62.541  1.00  0.00    -0.315 C  
HETATM   32  H   UNL     1     -10.456   9.984  61.903  1.00  0.00     0.000 HD 
HETATM   33  O   UNL     1      -9.642   9.780  62.349  1.00  0.00    -0.194 OA 
BRANCH  31  34
HETATM   34  C   UNL     1      -9.692  11.965  63.345  1.00  0.00    -0.296 C  
BRANCH  34  35
HETATM   35  C   UNL     1     -10.895  11.301  64.015  1.00  0.00    -0.344 C  
HETATM   36  H1  UNL     1     -12.935  11.276  63.813  1.00  0.00     0.000 HD 
HETATM   37  H2  UNL     1     -12.113  11.544  62.362  1.00  0.00     0.000 HD 
HETATM   38  N   UNL     1     -12.133  11.718  63.366  1.00  0.00    -0.441 NA 
ENDBRANCH  34  35
ENDBRANCH  31  34
ENDBRANCH  29  31
ENDBRANCH  18  27
BRANCH  26  39
HETATM   39  O   UNL     1      -5.918   6.929  67.245  1.00  0.00    -0.016 OA 
BRANCH  39  40
HETATM   40  C   UNL     1      -6.125   6.181  68.447  1.00  0.00    -0.024 C  
HETATM   41  H1  UNL     1      -4.958   3.363  66.775  1.00  0.00     0.000 HD 
HETATM   42  O   UNL     1      -7.518   6.034  68.743  1.00  0.00    -0.083 OA 
HETATM   43  H2  UNL     1      -5.112   4.932  66.213  1.00  0.00     0.000 HD 
HETATM   44  N   UNL     1      -5.446   4.251  66.896  1.00  0.00    -0.013 NA 
HETATM   45  C   UNL     1      -5.377   4.818  68.261  1.00  0.00    -0.011 C  
HETATM   46  C   UNL     1      -7.775   5.192  69.812  1.00  0.00    -0.071 C  
HETATM   47  C   UNL     1      -5.759   3.798  69.343  1.00  0.00    -0.018 C  
HETATM   48  C   UNL     1      -6.978   4.158  70.122  1.00  0.00    -0.041 C  
BRANCH  46  49
HETATM   49  C   UNL     1      -9.044   5.489  70.579  1.00  0.00    -0.147 C  
BRANCH  49  50
HETATM   50  N   UNL     1      -8.822   6.313  71.771  1.00  0.00    -0.137 NA 
HETATM   51  H   UNL     1      -8.013   6.923  71.657  1.00  0.00     0.000 HD 
BRANCH  50  52
HETATM   52  C   UNL     1     -10.028   7.080  72.129  1.00  0.00    -0.165 C  
BRANCH  52  53
HETATM   53  C   UNL     1     -10.661   7.712  70.887  1.00  0.00    -0.235 C  
HETATM   54  O   UNL     1     -11.269   8.960  71.212  1.00  0.00    -0.255 OA 
HETATM   55  H   UNL     1     -11.662   9.352  70.441  1.00  0.00     0.000 HD 
ENDBRANCH  52  53
ENDBRANCH  50  52
ENDBRANCH  49  50
ENDBRANCH  46  49
ENDBRANCH  39  40
ENDBRANCH  26  39
ENDBRANCH  15  16
ENDBRANCH   6  15
ENDBRANCH   2   4
TORSDOF 13
ENDMDL
MODEL      198
REMARK 921   NORMALIZED FREE ENERGY PREDICTED BY IDOCK:   -0.18 KCAL/MOL
REMARK 922        TOTAL FREE ENERGY PREDICTED BY IDOCK:   -3.77 KCAL/MOL
REMARK 923 INTER-LIGAND FREE ENERGY PREDICTED BY IDOCK:   -8.78 KCAL/MOL
REMARK 924 INTRA-LIGAND FREE ENERGY PREDICTED BY IDOCK:    5.01 KCAL/MOL
REMARK 927      BINDING AFFINITY PREDICTED BY RF-SCORE:    0.00 PKD
ROOT
HETATM    1  C   UNL     1     -11.450  16.090  70.315  1.00  0.00    -0.359 C  
HETATM    2  N   UNL     1     -10.327  15.216  70.641  1.00  0.00    -0.471 NA 
HETATM    3  H   UNL     1     -10.597  14.561  71.375  1.00  0.00     0.000 HD 
ENDROOT
BRANCH   2   4
HETATM    4  C   UNL     1      -9.731  14.476  69.489  1.00  0.00     0.211 C  
HETATM    5  C   UNL     1     -10.015  12.953  69.551  1.00  0.00     1.073 C  
HETATM    6  C   UNL     1      -9.522  12.279  68.251  1.00  0.00    -0.209 C  
HETATM    7  O   UNL     1     -11.402  12.696  69.778  1.00  0.00    -0.469 OA 
HETATM    8  H   UNL     1     -11.576  11.763  69.816  1.00  0.00     0.000 HD 
HETATM    9  O   UNL     1      -7.400  14.369  70.286  1.00  0.00    -0.370 OA 
HETATM   10  O   UNL     1      -8.114  12.482  68.130  1.00  0.00    -0.150 OA 
HETATM   11  H   UNL     1      -6.484  14.521  70.090  1.00  0.00     0.000 HD 
HETATM   12  C   UNL     1      -7.778  13.870  67.958  1.00  0.00    -0.151 C  
HETATM   13  C   UNL     1      -7.938  16.200  68.846  1.00  0.00    -0.223 C  
HETATM   14  C   UNL     1      -8.221  14.727  69.164  1.00  0.00    -0.106 C  
BRANCH   6  15
HETATM   15  O   UNL     1     -10.220  12.798  67.116  1.00  0.00    -0.231 OA 
BRANCH  15  16
HETATM   16  C   UNL     1     -10.538  14.199  67.152  1.00  0.00    -0.278 C  
HETATM   17  H1  UNL     1     -13.436  16.034  64.302  1.00  0.00     0.000 HD 
HETATM   18  C   UNL     1      -9.894  15.026  66.016  1.00  0.00    -0.319 C  
HETATM   19  C   UNL     1     -12.087  14.306  67.087  1.00  0.00    -0.377 C  
HETATM   20  H2  UNL     1     -11.961  16.460  63.603  1.00  0.00     0.000 HD 
HETATM   21  C   UNL     1     -11.956  14.600  64.532  1.00  0.00    -0.460 C  
HETATM   22  C   UNL     1     -10.422  14.536  64.657  1.00  0.00    -0.240 C  
HETATM   23  O   UNL     1     -12.503  15.654  67.398  1.00  0.00     0.380 OA 
HETATM   24  H   UNL     1     -13.450  15.719  67.357  1.00  0.00     0.000 HD 
HETATM   25  N   UNL     1     -12.421  15.992  64.384  1.00  0.00    -0.164 NA 
HETATM   26  C   UNL     1     -12.648  13.849  65.709  1.00  0.00    -0.494 C  
BRANCH  18  27
HETATM   27  N   UNL     1     -10.087  16.462  66.218  1.00  0.00    -0.313 N  
HETATM   28  H   UNL     1     -10.997  16.790  66.542  1.00  0.00     0.000 HD 
HETATM   29  C   UNL     1      -9.099  17.393  65.992  1.00  0.00    -0.051 C  
HETATM   30  O   UNL     1      -7.962  17.112  65.629  1.00  0.00    -0.381 OA 
BRANCH  29  31
HETATM   31  C   UNL     1      -9.526  18.845  66.264  1.00  0.00    -0.297 C  
HETATM   32  H   UNL     1     -10.677  20.203  65.412  1.00  0.00     0.000 HD 
HETATM   33  O   UNL     1     -10.413  19.306  65.243  1.00  0.00    -0.342 OA 
BRANCH  31  34
HETATM   34  C   UNL     1     -10.233  18.964  67.614  1.00  0.00    -0.459 C  
BRANCH  34  35
HETATM   35  C   UNL     1      -9.335  19.610  68.670  1.00  0.00    -0.321 C  
HETATM   36  H1  UNL     1      -9.358  19.954  70.691  1.00  0.00     0.000 HD 
HETATM   37  H2  UNL     1     -10.199  18.564  70.230  1.00  0.00     0.000 HD 
HETATM   38  N   UNL     1      -9.956  19.524  69.986  1.00  0.00     0.282 NA 
ENDBRANCH  34  35
ENDBRANCH  31  34
ENDBRANCH  29  31
ENDBRANCH  18  27
BRANCH  26  39
HETATM   39  O   UNL     1     -12.458  12.464  65.428  1.00  0.00    -0.637 OA 
BRANCH  39  40
HETATM   40  C   UNL     1     -11.189  12.039  64.919  1.00  0.00    -0.320 C  
HETATM   41  H1  UNL     1     -12.696  11.586  61.818  1.00  0.00     0.000 HD 
HETATM   42  O   UNL     1     -10.799  10.775  65.465  1.00  0.00    -0.132 OA 
HETATM   43  H2  UNL     1     -13.372  12.138  63.246  1.00  0.00     0.000 HD 
HETATM   44  N   UNL     1     -12.618  11.587  62.835  1.00  0.00     0.104 NA 
HETATM   45  C   UNL     1     -11.309  12.038  63.359  1.00  0.00    -0.397 C  
HETATM   46  C   UNL     1      -9.652  10.251  64.893  1.00  0.00    -0.304 C  
HETATM   47  C   UNL     1     -10.128  11.322  62.689  1.00  0.00     0.007 C  
HETATM   48  C   UNL     1      -9.308  10.492  63.619  1.00  0.00    -0.324 C  
BRANCH  46  49
HETATM   49  C   UNL     1      -8.836   9.347  65.790  1.00  0.00    -0.171 C  
BRANCH  49  50
HETATM   50  N   UNL     1      -9.516   8.091  66.120  1.00  0.00    -0.384 NA 
HETATM   51  H   UNL     1      -8.891   7.291  66.020  1.00  0.00     0.000 HD 
BRANCH  50  52
HETATM   52  C   UNL     1     -10.117   8.140  67.464  1.00  0.00    -0.224 C  
BRANCH  52  53
HETATM   53  C   UNL     1     -10.158   6.745  68.095  1.00  0.00    -0.164 C  
HETATM   54  O   UNL     1     -11.492   6.399  68.460  1.00  0.00    -0.547 OA 
HETATM   55  H   UNL     1     -11.517   5.534  68.852  1.00  0.00     0.000 HD 
ENDBRANCH  52  53
ENDBRANCH  50  52
ENDBRANCH  49  50
ENDBRANCH  46  49
ENDBRANCH  39  40
ENDBRANCH  26  39
ENDBRANCH  15  16
ENDBRANCH   6  15
ENDBRANCH   2   4
TORSDOF 13
ENDMDL
MODEL      199
REMARK 921   NORMALIZED FREE ENERGY PREDICTED BY IDOCK:    0.22 KCAL/MOL
REMARK 922        TOTAL FREE ENERGY PREDICTED BY IDOCK:   -3.08 KCAL/MOL
REMARK 923 INTER-LIGAND FREE ENERGY PREDICTED BY IDOCK:   -3.57 KCAL/MOL
REMARK 924 INTRA-LIGAND FREE ENERGY PREDICTED BY IDOCK:    0.49 KCAL/MOL
REMARK 927      BINDING AFFINITY PREDICTED BY RF-SCORE:    0.00 PKD
ROOT
HETATM    1  C   UNL     1     -13.611  13.731  65.419  1.00  0.00     1.118 C  
HETATM    2  N   UNL     1     -12.790  12.524  65.393  1.00  0.00    -0.422 NA 
HETATM    3  H   UNL     1     -12.735  12.159  64.442  1.00  0.00     0.000 HD 
ENDROOT
BRANCH   2   4
HETATM    4  C   UNL     1     -11.418  12.665  65.965  1.00  0.00    -0.368 C  
HETATM    5  C   UNL     1     -11.366  12.323  67.476  1.00  0.00    -0.325 C  
HETATM    6  C   UNL     1      -9.898  12.322  67.959  1.00  0.00    -0.204 C  
HETATM    7  O   UNL     1     -12.003  11.071  67.743  1.00  0.00    -0.661 OA 
HETATM    8  H   UNL     1     -11.971  10.861  68.669  1.00  0.00     0.000 HD 
HETATM    9  O   UNL     1     -11.377  15.117  66.223  1.00  0.00    -0.317 OA 
HETATM   10  O   UNL     1      -9.347  13.625  67.761  1.00  0.00    -0.201 OA 
HETATM   11  H   UNL     1     -10.910  15.928  66.057  1.00  0.00     0.000 HD 
HETATM   12  C   UNL     1      -9.260  13.972  66.368  1.00  0.00    -0.162 C  
HETATM   13  C   UNL     1     -10.455  14.255  64.192  1.00  0.00     0.678 C  
HETATM   14  C   UNL     1     -10.648  14.000  65.691  1.00  0.00    -0.307 C  
BRANCH   6  15
HETATM   15  O   UNL     1      -9.138  11.327  67.268  1.00  0.00    -0.153 OA 
BRANCH  15  16
HETATM   16  C   UNL     1      -8.967  10.073  67.950  1.00  0.00    -0.131 C  
HETATM   17  H1  UNL     1      -4.970   8.678  69.353  1.00  0.00     0.000 HD 
HETATM   18  C   UNL     1      -8.328   8.963  67.085  1.00  0.00    -0.103 C  
HETATM   19  C   UNL     1      -8.086  10.361  69.197  1.00  0.00    -0.151 C  
HETATM   20  H2  UNL     1      -5.152   7.798  67.927  1.00  0.00     0.000 HD 
HETATM   21  C   UNL     1      -5.985   9.701  67.862  1.00  0.00    -0.051 C  
HETATM   22  C   UNL     1      -6.907   9.385  66.669  1.00  0.00    -0.080 C  
HETATM   23  O   UNL     1      -8.096   9.220  70.083  1.00  0.00    -0.108 OA 
HETATM   24  H   UNL     1      -7.557   9.396  70.846  1.00  0.00     0.000 HD 
HETATM   25  N   UNL     1      -5.580   8.469  68.564  1.00  0.00    -0.037 NA 
HETATM   26  C   UNL     1      -6.632  10.757  68.809  1.00  0.00    -0.054 C  
BRANCH  18  27
HETATM   27  N   UNL     1      -8.362   7.665  67.760  1.00  0.00    -0.118 N  
HETATM   28  H   UNL     1      -8.482   7.648  68.773  1.00  0.00     0.000 HD 
HETATM   29  C   UNL     1      -8.240   6.467  67.094  1.00  0.00    -0.113 C  
HETATM   30  O   UNL     1      -8.120   6.368  65.878  1.00  0.00    -0.111 OA 
BRANCH  29  31
HETATM   31  C   UNL     1      -8.299   5.231  68.006  1.00  0.00    -0.098 C  
HETATM   32  H   UNL     1      -9.022   4.770  69.783  1.00  0.00     0.000 HD 
HETATM   33  O   UNL     1      -8.987   5.535  69.220  1.00  0.00    -0.111 OA 
BRANCH  31  34
HETATM   34  C   UNL     1      -9.019   4.074  67.314  1.00  0.00    -0.148 C  
BRANCH  34  35
HETATM   35  C   UNL     1      -9.189   2.872  68.244  1.00  0.00    -0.193 C  
HETATM   36  H1  UNL     1      -8.835   0.853  68.212  1.00  0.00     0.000 HD 
HETATM   37  H2  UNL     1      -7.762   1.746  67.261  1.00  0.00     0.000 HD 
HETATM   38  N   UNL     1      -8.722   1.655  67.592  1.00  0.00    -0.090 NA 
ENDBRANCH  34  35
ENDBRANCH  31  34
ENDBRANCH  29  31
ENDBRANCH  18  27
BRANCH  26  39
HETATM   39  O   UNL     1      -6.527  11.995  68.109  1.00  0.00    -0.050 OA 
BRANCH  39  40
HETATM   40  C   UNL     1      -5.774  13.054  68.707  1.00  0.00    -0.072 C  
HETATM   41  H1  UNL     1      -6.769  11.868  71.822  1.00  0.00     0.000 HD 
HETATM   42  O   UNL     1      -6.369  14.331  68.455  1.00  0.00    -0.081 OA 
HETATM   43  H2  UNL     1      -7.122  11.262  70.302  1.00  0.00     0.000 HD 
HETATM   44  N   UNL     1      -6.851  12.092  70.830  1.00  0.00     1.213 NA 
HETATM   45  C   UNL     1      -5.648  12.711  70.229  1.00  0.00    -0.153 C  
HETATM   46  C   UNL     1      -5.762  15.374  69.137  1.00  0.00    -0.100 C  
HETATM   47  C   UNL     1      -5.126  13.900  71.048  1.00  0.00    -0.126 C  
HETATM   48  C   UNL     1      -5.171  15.206  70.330  1.00  0.00    -0.117 C  
BRANCH  46  49
HETATM   49  C   UNL     1      -5.854  16.726  68.467  1.00  0.00    -0.130 C  
BRANCH  49  50
HETATM   50  N   UNL     1      -7.196  17.036  67.967  1.00  0.00    -0.164 NA 
HETATM   51  H   UNL     1      -7.918  16.709  68.609  1.00  0.00     0.000 HD 
BRANCH  50  52
HETATM   52  C   UNL     1      -7.345  18.473  67.675  1.00  0.00    -0.216 C  
BRANCH  52  53
HETATM   53  C   UNL     1      -8.481  18.712  66.678  1.00  0.00    -0.292 C  
HETATM   54  O   UNL     1      -9.235  17.519  66.479  1.00  0.00    -0.258 OA 
HETATM   55  H   UNL     1      -9.940  17.668  65.859  1.00  0.00     0.000 HD 
ENDBRANCH  52  53
ENDBRANCH  50  52
ENDBRANCH  49  50
ENDBRANCH  46  49
ENDBRANCH  39  40
ENDBRANCH  26  39
ENDBRANCH  15  16
ENDBRANCH   6  15
ENDBRANCH   2   4
TORSDOF 13
ENDMDL
MODEL      200
REMARK 921   NORMALIZED FREE ENERGY PREDICTED BY IDOCK:    0.22 KCAL/MOL
REMARK 922        TOTAL FREE ENERGY PREDICTED BY IDOCK:   -3.07 KCAL/MOL
REMARK 923 INTER-LIGAND FREE ENERGY PREDICTED BY IDOCK:   -4.78 KCAL/MOL
REMARK 924 INTRA-LIGAND FREE ENERGY PREDICTED BY IDOCK:    1.71 KCAL/MOL
REMARK 927      BINDING AFFINITY PREDICTED BY RF-SCORE:    0.00 PKD
ROOT
HETATM    1  C   UNL     1      -8.856   8.907  71.852  1.00  0.00    -0.052 C  
HETATM    2  N   UNL     1      -9.416   8.888  70.504  1.00  0.00    -0.188 NA 
HETATM    3  H   UNL     1     -10.224   9.509  70.453  1.00  0.00     0.000 HD 
ENDROOT
BRANCH   2   4
HETATM    4  C   UNL     1      -8.457   9.205  69.403  1.00  0.00    -0.130 C  
HETATM    5  C   UNL     1      -6.986   9.234  69.888  1.00  0.00    -0.061 C  
HETATM    6  C   UNL     1      -6.042   9.396  68.675  1.00  0.00    -0.044 C  
HETATM    7  O   UNL     1      -6.668   8.062  70.642  1.00  0.00    -0.037 OA 
HETATM    8  H   UNL     1      -5.766   8.080  70.939  1.00  0.00     0.000 HD 
HETATM    9  O   UNL     1      -8.784  11.649  69.324  1.00  0.00    -0.343 OA 
HETATM   10  O   UNL     1      -6.338  10.631  68.021  1.00  0.00    -0.057 OA 
HETATM   11  H   UNL     1      -8.965  12.411  68.787  1.00  0.00     0.000 HD 
HETATM   12  C   UNL     1      -7.656  10.640  67.447  1.00  0.00    -0.095 C  
HETATM   13  C   UNL     1     -10.112  10.358  67.812  1.00  0.00    -0.212 C  
HETATM   14  C   UNL     1      -8.755  10.461  68.517  1.00  0.00    -0.135 C  
BRANCH   6  15
HETATM   15  O   UNL     1      -6.176   8.290  67.778  1.00  0.00    -0.050 OA 
BRANCH  15  16
HETATM   16  C   UNL     1      -7.095   8.466  66.686  1.00  0.00    -0.073 C  
HETATM   17  H1  UNL     1      -8.600   5.018  64.292  1.00  0.00     0.000 HD 
HETATM   18  C   UNL     1      -6.453   8.319  65.288  1.00  0.00    -0.052 C  
HETATM   19  C   UNL     1      -8.220   7.413  66.877  1.00  0.00    -0.121 C  
HETATM   20  H2  UNL     1      -7.393   5.627  63.283  1.00  0.00     0.000 HD 
HETATM   21  C   UNL     1      -6.970   5.795  65.311  1.00  0.00    -0.063 C  
HETATM   22  C   UNL     1      -5.905   6.891  65.117  1.00  0.00    -0.036 C  
HETATM   23  O   UNL     1      -9.322   7.700  65.988  1.00  0.00    -0.348 OA 
HETATM   24  H   UNL     1     -10.011   7.056  66.105  1.00  0.00     0.000 HD 
HETATM   25  N   UNL     1      -7.895   5.743  64.164  1.00  0.00    -0.111 NA 
HETATM   26  C   UNL     1      -7.703   5.959  66.677  1.00  0.00    -0.100 C  
BRANCH  18  27
HETATM   27  N   UNL     1      -7.382   8.703  64.224  1.00  0.00    -0.101 N  
HETATM   28  H   UNL     1      -8.109   8.042  63.952  1.00  0.00     0.000 HD 
HETATM   29  C   UNL     1      -7.322   9.915  63.574  1.00  0.00    -0.132 C  
HETATM   30  O   UNL     1      -6.509  10.795  63.838  1.00  0.00     0.099 OA 
BRANCH  29  31
HETATM   31  C   UNL     1      -8.393  10.101  62.488  1.00  0.00    -0.156 C  
HETATM   32  H   UNL     1      -9.838   9.030  61.675  1.00  0.00     0.000 HD 
HETATM   33  O   UNL     1      -9.175   8.914  62.346  1.00  0.00    -0.028 OA 
BRANCH  31  34
HETATM   34  C   UNL     1      -9.326  11.262  62.832  1.00  0.00    -0.376 C  
BRANCH  34  35
HETATM   35  C   UNL     1      -9.794  11.203  64.286  1.00  0.00    -0.286 C  
HETATM   36  H1  UNL     1     -11.495  11.593  65.361  1.00  0.00     0.000 HD 
HETATM   37  H2  UNL     1     -11.794  11.096  63.775  1.00  0.00     0.000 HD 
HETATM   38  N   UNL     1     -11.183  11.632  64.391  1.00  0.00    -0.316 NA 
ENDBRANCH  34  35
ENDBRANCH  31  34
ENDBRANCH  29  31
ENDBRANCH  18  27
BRANCH  26  39
HETATM   39  O   UNL     1      -6.760   5.531  67.657  1.00  0.00    -0.052 OA 
BRANCH  39  40
HETATM   40  C   UNL     1      -7.130   5.603  69.037  1.00  0.00    -0.068 C  
HETATM   41  H1  UNL     1      -4.509   3.431  69.751  1.00  0.00     0.000 HD 
HETATM   42  O   UNL     1      -8.384   4.957  69.280  1.00  0.00    -0.084 OA 
HETATM   43  H2  UNL     1      -4.979   4.066  68.275  1.00  0.00     0.000 HD 
HETATM   44  N   UNL     1      -5.284   3.829  69.219  1.00  0.00    -0.010 NA 
HETATM   45  C   UNL     1      -5.942   4.993  69.853  1.00  0.00    -0.021 C  
HETATM   46  C   UNL     1      -8.714   4.868  70.623  1.00  0.00    -0.116 C  
HETATM   47  C   UNL     1      -6.321   4.731  71.317  1.00  0.00    -0.019 C  
HETATM   48  C   UNL     1      -7.787   4.774  71.587  1.00  0.00    -0.098 C  
BRANCH  46  49
HETATM   49  C   UNL     1     -10.196   4.837  70.924  1.00  0.00    -0.177 C  
BRANCH  49  50
HETATM   50  N   UNL     1     -10.543   3.949  72.037  1.00  0.00     0.066 NA 
HETATM   51  H   UNL     1      -9.717   3.489  72.419  1.00  0.00     0.000 HD 
BRANCH  50  52
HETATM   52  C   UNL     1     -11.294   4.665  73.083  1.00  0.00    -0.265 C  
BRANCH  52  53
HETATM   53  C   UNL     1     -10.612   4.513  74.445  1.00  0.00    -0.237 C  
HETATM   54  O   UNL     1      -9.352   3.863  74.306  1.00  0.00    -0.098 OA 
HETATM   55  H   UNL     1      -8.929   3.768  75.151  1.00  0.00     0.000 HD 
ENDBRANCH  52  53
ENDBRANCH  50  52
ENDBRANCH  49  50
ENDBRANCH  46  49
ENDBRANCH  39  40
ENDBRANCH  26  39
ENDBRANCH  15  16
ENDBRANCH   6  15
ENDBRANCH   2   4
TORSDOF 13
ENDMDL
MODEL      201
REMARK 921   NORMALIZED FREE ENERGY PREDICTED BY IDOCK:    0.41 KCAL/MOL
REMARK 922        TOTAL FREE ENERGY PREDICTED BY IDOCK:   -2.73 KCAL/MOL
REMARK 923 INTER-LIGAND FREE ENERGY PREDICTED BY IDOCK:   -5.46 KCAL/MOL
REMARK 924 INTRA-LIGAND FREE ENERGY PREDICTED BY IDOCK:    2.72 KCAL/MOL
REMARK 927      BINDING AFFINITY PREDICTED BY RF-SCORE:    0.00 PKD
ROOT
HETATM    1  C   UNL     1      -7.425  15.014  69.889  1.00  0.00    -0.021 C  
HETATM    2  N   UNL     1      -8.609  14.216  70.193  1.00  0.00     0.978 NA 
HETATM    3  H   UNL     1      -8.662  14.038  71.196  1.00  0.00     0.000 HD 
ENDROOT
BRANCH   2   4
HETATM    4  C   UNL     1      -9.906  14.774  69.705  1.00  0.00     0.094 C  
HETATM    5  C   UNL     1      -9.966  16.319  69.817  1.00  0.00    -0.052 C  
HETATM    6  C   UNL     1     -11.255  16.838  69.140  1.00  0.00    -0.040 C  
HETATM    7  O   UNL     1      -8.801  16.922  69.251  1.00  0.00    -0.127 OA 
HETATM    8  H   UNL     1      -8.838  17.869  69.319  1.00  0.00     0.000 HD 
HETATM    9  O   UNL     1     -11.287  14.287  71.689  1.00  0.00    -0.183 OA 
HETATM   10  O   UNL     1     -12.386  16.282  69.811  1.00  0.00    -0.030 OA 
HETATM   11  H   UNL     1     -12.088  13.904  72.027  1.00  0.00     0.000 HD 
HETATM   12  C   UNL     1     -12.459  14.854  69.660  1.00  0.00    -0.139 C  
HETATM   13  C   UNL     1     -11.324  12.646  69.950  1.00  0.00    -0.038 C  
HETATM   14  C   UNL     1     -11.226  14.144  70.262  1.00  0.00     0.061 C  
BRANCH   6  15
HETATM   15  O   UNL     1     -11.264  16.509  67.748  1.00  0.00    -0.239 OA 
BRANCH  15  16
HETATM   16  C   UNL     1     -10.805  15.191  67.405  1.00  0.00    -0.302 C  
HETATM   17  H1  UNL     1      -9.302  14.207  63.323  1.00  0.00     0.000 HD 
HETATM   18  C   UNL     1     -11.790  14.384  66.529  1.00  0.00    -0.390 C  
HETATM   19  C   UNL     1      -9.449  15.370  66.668  1.00  0.00    -0.259 C  
HETATM   20  H2  UNL     1     -10.874  13.599  63.259  1.00  0.00     0.000 HD 
HETATM   21  C   UNL     1     -10.676  15.322  64.404  1.00  0.00     0.210 C  
HETATM   22  C   UNL     1     -11.987  15.098  65.180  1.00  0.00    -0.051 C  
HETATM   23  O   UNL     1      -8.786  14.094  66.535  1.00  0.00    -0.438 OA 
HETATM   24  H   UNL     1      -7.957  14.203  66.084  1.00  0.00     0.000 HD 
HETATM   25  N   UNL     1     -10.170  14.059  63.836  1.00  0.00     0.764 NA 
HETATM   26  C   UNL     1      -9.621  16.060  65.283  1.00  0.00     0.295 C  
BRANCH  18  27
HETATM   27  N   UNL     1     -11.364  12.992  66.380  1.00  0.00    -0.304 N  
HETATM   28  H   UNL     1     -10.540  12.679  66.893  1.00  0.00     0.000 HD 
HETATM   29  C   UNL     1     -12.021  12.086  65.580  1.00  0.00    -0.095 C  
HETATM   30  O   UNL     1     -13.036  12.344  64.941  1.00  0.00    -0.762 OA 
BRANCH  29  31
HETATM   31  C   UNL     1     -11.394  10.683  65.569  1.00  0.00     0.760 C  
HETATM   32  H   UNL     1      -9.918   9.759  64.640  1.00  0.00     0.000 HD 
HETATM   33  O   UNL     1     -10.306  10.627  64.646  1.00  0.00    -0.345 OA 
BRANCH  31  34
HETATM   34  C   UNL     1     -10.875  10.305  66.957  1.00  0.00    -0.248 C  
BRANCH  34  35
HETATM   35  C   UNL     1      -9.375  10.010  66.942  1.00  0.00    -0.159 C  
HETATM   36  H1  UNL     1      -7.624  10.976  67.393  1.00  0.00     0.000 HD 
HETATM   37  H2  UNL     1      -8.940  11.489  68.319  1.00  0.00     0.000 HD 
HETATM   38  N   UNL     1      -8.624  11.172  67.403  1.00  0.00    -0.135 NA 
ENDBRANCH  34  35
ENDBRANCH  31  34
ENDBRANCH  29  31
ENDBRANCH  18  27
BRANCH  26  39
HETATM   39  O   UNL     1     -10.075  17.410  65.352  1.00  0.00    -0.562 OA 
BRANCH  39  40
HETATM   40  C   UNL     1      -9.434  18.299  66.272  1.00  0.00    -0.230 C  
HETATM   41  H1  UNL     1     -11.743  20.738  65.370  1.00  0.00     0.000 HD 
HETATM   42  O   UNL     1      -8.126  18.669  65.822  1.00  0.00    -0.479 OA 
HETATM   43  H2  UNL     1     -11.617  19.157  64.834  1.00  0.00     0.000 HD 
HETATM   44  N   UNL     1     -11.114  19.945  65.243  1.00  0.00    -0.187 NA 
HETATM   45  C   UNL     1     -10.399  19.516  66.466  1.00  0.00    -0.482 C  
HETATM   46  C   UNL     1      -7.524  19.644  66.601  1.00  0.00    -0.253 C  
HETATM   47  C   UNL     1      -9.715  20.685  67.190  1.00  0.00    -0.530 C  
HETATM   48  C   UNL     1      -8.229  20.581  67.253  1.00  0.00    -0.360 C  
BRANCH  46  49
HETATM   49  C   UNL     1      -6.013  19.609  66.628  1.00  0.00    -0.164 C  
BRANCH  49  50
HETATM   50  N   UNL     1      -5.461  19.403  67.970  1.00  0.00    -0.190 NA 
HETATM   51  H   UNL     1      -4.546  18.954  67.932  1.00  0.00     0.000 HD 
BRANCH  50  52
HETATM   52  C   UNL     1      -5.411  20.664  68.732  1.00  0.00    -0.303 C  
BRANCH  52  53
HETATM   53  C   UNL     1      -5.518  20.397  70.235  1.00  0.00    -0.310 C  
HETATM   54  O   UNL     1      -6.862  20.560  70.680  1.00  0.00    -0.211 OA 
HETATM   55  H   UNL     1      -6.928  20.395  71.613  1.00  0.00     0.000 HD 
ENDBRANCH  52  53
ENDBRANCH  50  52
ENDBRANCH  49  50
ENDBRANCH  46  49
ENDBRANCH  39  40
ENDBRANCH  26  39
ENDBRANCH  15  16
ENDBRANCH   6  15
ENDBRANCH   2   4
TORSDOF 13
ENDMDL
MODEL      202
REMARK 921   NORMALIZED FREE ENERGY PREDICTED BY IDOCK:    0.56 KCAL/MOL
REMARK 922        TOTAL FREE ENERGY PREDICTED BY IDOCK:   -2.47 KCAL/MOL
REMARK 923 INTER-LIGAND FREE ENERGY PREDICTED BY IDOCK:   -6.02 KCAL/MOL
REMARK 924 INTRA-LIGAND FREE ENERGY PREDICTED BY IDOCK:    3.55 KCAL/MOL
REMARK 927      BINDING AFFINITY PREDICTED BY RF-SCORE:    0.00 PKD
ROOT
HETATM    1  C   UNL     1      -6.548  12.430  67.265  1.00  0.00    -0.136 C  
HETATM    2  N   UNL     1      -7.638  12.052  66.371  1.00  0.00    -0.359 NA 
HETATM    3  H   UNL     1      -7.264  11.761  65.468  1.00  0.00     0.000 HD 
ENDROOT
BRANCH   2   4
HETATM    4  C   UNL     1      -8.572  11.011  66.896  1.00  0.00    -0.143 C  
HETATM    5  C   UNL     1      -8.852   9.890  65.864  1.00  0.00    -0.148 C  
HETATM    6  C   UNL     1      -9.679   8.767  66.529  1.00  0.00    -0.259 C  
HETATM    7  O   UNL     1      -7.635   9.383  65.312  1.00  0.00    -0.103 OA 
HETATM    8  H   UNL     1      -7.807   8.695  64.679  1.00  0.00     0.000 HD 
HETATM    9  O   UNL     1     -10.694  12.228  66.584  1.00  0.00    -0.235 OA 
HETATM   10  O   UNL     1     -10.924   9.310  66.970  1.00  0.00    -0.106 OA 
HETATM   11  H   UNL     1     -11.508  12.522  66.975  1.00  0.00     0.000 HD 
HETATM   12  C   UNL     1     -10.752  10.286  68.012  1.00  0.00    -0.255 C  
HETATM   13  C   UNL     1      -9.676  12.421  68.739  1.00  0.00     0.031 C  
HETATM   14  C   UNL     1      -9.914  11.495  67.541  1.00  0.00    -0.190 C  
BRANCH   6  15
HETATM   15  O   UNL     1      -8.957   8.179  67.613  1.00  0.00    -0.131 OA 
BRANCH  15  16
HETATM   16  C   UNL     1      -9.695   7.975  68.831  1.00  0.00    -0.159 C  
HETATM   17  H1  UNL     1      -9.329   4.220  71.209  1.00  0.00     0.000 HD 
HETATM   18  C   UNL     1     -10.888   7.003  68.693  1.00  0.00    -0.147 C  
HETATM   19  C   UNL     1      -8.682   7.442  69.881  1.00  0.00    -0.141 C  
HETATM   20  H2  UNL     1     -10.769   3.951  70.373  1.00  0.00     0.000 HD 
HETATM   21  C   UNL     1      -9.352   5.025  69.298  1.00  0.00    -0.125 C  
HETATM   22  C   UNL     1     -10.375   5.605  68.303  1.00  0.00    -0.253 C  
HETATM   23  O   UNL     1      -9.274   7.475  71.199  1.00  0.00    -0.147 OA 
HETATM   24  H   UNL     1      -8.654   7.149  71.841  1.00  0.00     0.000 HD 
HETATM   25  N   UNL     1     -10.006   4.604  70.550  1.00  0.00    -0.228 NA 
HETATM   26  C   UNL     1      -8.171   6.015  69.531  1.00  0.00    -0.115 C  
BRANCH  18  27
HETATM   27  N   UNL     1     -11.715   6.989  69.900  1.00  0.00    -0.587 N  
HETATM   28  H   UNL     1     -12.059   6.092  70.244  1.00  0.00     0.000 HD 
HETATM   29  C   UNL     1     -12.051   8.129  70.594  1.00  0.00     0.037 C  
HETATM   30  O   UNL     1     -11.672   9.255  70.289  1.00  0.00    -0.189 OA 
BRANCH  29  31
HETATM   31  C   UNL     1     -12.934   7.879  71.828  1.00  0.00    -0.325 C  
HETATM   32  H   UNL     1     -14.596   6.903  72.250  1.00  0.00     0.000 HD 
HETATM   33  O   UNL     1     -14.051   7.057  71.487  1.00  0.00    -0.346 OA 
BRANCH  31  34
HETATM   34  C   UNL     1     -12.141   7.187  72.937  1.00  0.00     0.352 C  
BRANCH  34  35
HETATM   35  C   UNL     1     -11.302   6.028  72.398  1.00  0.00    -0.301 C  
HETATM   36  H1  UNL     1      -9.917   4.689  73.099  1.00  0.00     0.000 HD 
HETATM   37  H2  UNL     1     -11.033   5.184  74.266  1.00  0.00     0.000 HD 
HETATM   38  N   UNL     1     -10.476   5.462  73.458  1.00  0.00    -0.226 NA 
ENDBRANCH  34  35
ENDBRANCH  31  34
ENDBRANCH  29  31
ENDBRANCH  18  27
BRANCH  26  39
HETATM   39  O   UNL     1      -7.389   5.947  68.340  1.00  0.00    -0.080 OA 
BRANCH  39  40
HETATM   40  C   UNL     1      -7.505   4.784  67.514  1.00  0.00    -0.079 C  
HETATM   41  H1  UNL     1      -4.421   3.735  68.731  1.00  0.00     0.000 HD 
HETATM   42  O   UNL     1      -7.399   5.112  66.125  1.00  0.00    -0.079 OA 
HETATM   43  H2  UNL     1      -5.294   5.109  69.119  1.00  0.00     0.000 HD 
HETATM   44  N   UNL     1      -5.132   4.392  68.411  1.00  0.00    -0.006 NA 
HETATM   45  C   UNL     1      -6.414   3.775  68.006  1.00  0.00    -0.038 C  
HETATM   46  C   UNL     1      -7.355   4.005  65.293  1.00  0.00    -0.072 C  
HETATM   47  C   UNL     1      -6.222   2.610  67.024  1.00  0.00    -0.028 C  
HETATM   48  C   UNL     1      -6.829   2.834  65.681  1.00  0.00    -0.048 C  
BRANCH  46  49
HETATM   49  C   UNL     1      -7.898   4.222  63.899  1.00  0.00    -0.084 C  
BRANCH  49  50
HETATM   50  N   UNL     1      -8.600   3.053  63.360  1.00  0.00    -0.086 NA 
HETATM   51  H   UNL     1      -8.855   2.399  64.100  1.00  0.00     0.000 HD 
BRANCH  50  52
HETATM   52  C   UNL     1      -9.773   3.449  62.561  1.00  0.00    -0.099 C  
BRANCH  52  53
HETATM   53  C   UNL     1     -11.050   2.814  63.117  1.00  0.00    -0.109 C  
HETATM   54  O   UNL     1     -10.807   1.471  63.528  1.00  0.00    -0.278 OA 
HETATM   55  H   UNL     1     -11.600   1.078  63.873  1.00  0.00     0.000 HD 
ENDBRANCH  52  53
ENDBRANCH  50  52
ENDBRANCH  49  50
ENDBRANCH  46  49
ENDBRANCH  39  40
ENDBRANCH  26  39
ENDBRANCH  15  16
ENDBRANCH   6  15
ENDBRANCH   2   4
TORSDOF 13
ENDMDL
MODEL      203
REMARK 921   NORMALIZED FREE ENERGY PREDICTED BY IDOCK:    0.62 KCAL/MOL
REMARK 922        TOTAL FREE ENERGY PREDICTED BY IDOCK:   -2.37 KCAL/MOL
REMARK 923 INTER-LIGAND FREE ENERGY PREDICTED BY IDOCK:   -4.71 KCAL/MOL
REMARK 924 INTRA-LIGAND FREE ENERGY PREDICTED BY IDOCK:    2.34 KCAL/MOL
REMARK 927      BINDING AFFINITY PREDICTED BY RF-SCORE:    0.00 PKD
ROOT
HETATM    1  C   UNL     1     -13.219  10.736  72.640  1.00  0.00     0.952 C  
HETATM    2  N   UNL     1     -13.405   9.472  71.934  1.00  0.00    -0.410 NA 
HETATM    3  H   UNL     1     -14.243   9.517  71.353  1.00  0.00     0.000 HD 
ENDROOT
BRANCH   2   4
HETATM    4  C   UNL     1     -12.242   9.012  71.118  1.00  0.00    -0.275 C  
HETATM    5  C   UNL     1     -12.213   9.657  69.709  1.00  0.00     0.502 C  
HETATM    6  C   UNL     1     -10.901   9.273  68.989  1.00  0.00    -0.111 C  
HETATM    7  O   UNL     1     -12.368  11.076  69.789  1.00  0.00    -0.321 OA 
HETATM    8  H   UNL     1     -12.351  11.471  68.925  1.00  0.00     0.000 HD 
HETATM    9  O   UNL     1     -13.129   6.821  70.415  1.00  0.00    -0.258 OA 
HETATM   10  O   UNL     1     -10.850   7.853  68.848  1.00  0.00    -0.122 OA 
HETATM   11  H   UNL     1     -12.979   5.885  70.348  1.00  0.00     0.000 HD 
HETATM   12  C   UNL     1     -10.764   7.184  70.118  1.00  0.00    -0.240 C  
HETATM   13  C   UNL     1     -11.765   6.825  72.379  1.00  0.00    -0.255 C  
HETATM   14  C   UNL     1     -11.994   7.470  71.007  1.00  0.00    -0.290 C  
BRANCH   6  15
HETATM   15  O   UNL     1      -9.767   9.764  69.707  1.00  0.00    -0.202 OA 
BRANCH  15  16
HETATM   16  C   UNL     1      -8.503   9.156  69.390  1.00  0.00    -0.130 C  
HETATM   17  H1  UNL     1      -5.395  11.284  67.002  1.00  0.00     0.000 HD 
HETATM   18  C   UNL     1      -8.377   8.684  67.923  1.00  0.00    -0.123 C  
HETATM   19  C   UNL     1      -7.408  10.209  69.714  1.00  0.00    -0.158 C  
HETATM   20  H2  UNL     1      -6.089  10.283  65.835  1.00  0.00     0.000 HD 
HETATM   21  C   UNL     1      -7.431  10.986  67.259  1.00  0.00    -0.107 C  
HETATM   22  C   UNL     1      -8.481   9.894  66.979  1.00  0.00    -0.121 C  
HETATM   23  O   UNL     1      -6.103   9.589  69.690  1.00  0.00    -0.038 OA 
HETATM   24  H   UNL     1      -5.434  10.233  69.888  1.00  0.00     0.000 HD 
HETATM   25  N   UNL     1      -6.090  10.561  66.817  1.00  0.00    -0.063 NA 
HETATM   26  C   UNL     1      -7.466  11.431  68.753  1.00  0.00    -0.124 C  
BRANCH  18  27
HETATM   27  N   UNL     1      -7.160   7.899  67.712  1.00  0.00    -0.084 N  
HETATM   28  H   UNL     1      -6.420   8.297  67.133  1.00  0.00     0.000 HD 
HETATM   29  C   UNL     1      -6.966   6.650  68.257  1.00  0.00    -0.077 C  
HETATM   30  O   UNL     1      -7.773   6.089  68.989  1.00  0.00    -0.089 OA 
BRANCH  29  31
HETATM   31  C   UNL     1      -5.616   6.009  67.897  1.00  0.00    -0.008 C  
HETATM   32  H   UNL     1      -4.341   4.749  68.723  1.00  0.00     0.000 HD 
HETATM   33  O   UNL     1      -5.175   5.146  68.946  1.00  0.00     0.000 OA 
BRANCH  31  34
HETATM   34  C   UNL     1      -5.724   5.193  66.608  1.00  0.00    -0.018 C  
BRANCH  34  35
HETATM   35  C   UNL     1      -6.386   5.990  65.485  1.00  0.00    -0.038 C  
HETATM   36  H1  UNL     1      -6.875   5.731  63.510  1.00  0.00     0.000 HD 
HETATM   37  H2  UNL     1      -6.889   4.299  64.406  1.00  0.00     0.000 HD 
HETATM   38  N   UNL     1      -6.433   5.200  64.260  1.00  0.00    -0.036 NA 
ENDBRANCH  34  35
ENDBRANCH  31  34
ENDBRANCH  29  31
ENDBRANCH  18  27
BRANCH  26  39
HETATM   39  O   UNL     1      -8.648  12.220  68.876  1.00  0.00     0.063 OA 
BRANCH  39  40
HETATM   40  C   UNL     1      -8.818  13.336  67.997  1.00  0.00    -0.190 C  
HETATM   41  H1  UNL     1      -5.408  13.956  68.289  1.00  0.00     0.000 HD 
HETATM   42  O   UNL     1      -9.563  14.387  68.619  1.00  0.00    -0.213 OA 
HETATM   43  H2  UNL     1      -6.319  12.732  68.977  1.00  0.00     0.000 HD 
HETATM   44  N   UNL     1      -6.343  13.674  68.587  1.00  0.00    -0.084 NA 
HETATM   45  C   UNL     1      -7.385  13.768  67.540  1.00  0.00    -0.162 C  
HETATM   46  C   UNL     1      -9.627  15.548  67.865  1.00  0.00    -0.206 C  
HETATM   47  C   UNL     1      -7.391  15.133  66.836  1.00  0.00     0.177 C  
HETATM   48  C   UNL     1      -8.646  15.915  67.026  1.00  0.00    -0.245 C  
BRANCH  46  49
HETATM   49  C   UNL     1     -10.856  16.399  68.088  1.00  0.00    -0.346 C  
BRANCH  49  50
HETATM   50  N   UNL     1     -10.828  17.138  69.353  1.00  0.00    -0.341 NA 
HETATM   51  H   UNL     1     -10.409  16.585  70.100  1.00  0.00     0.000 HD 
BRANCH  50  52
HETATM   52  C   UNL     1     -10.152  18.439  69.203  1.00  0.00    -0.143 C  
BRANCH  52  53
HETATM   53  C   UNL     1     -10.296  18.966  67.773  1.00  0.00    -0.421 C  
HETATM   54  O   UNL     1     -10.162  20.385  67.744  1.00  0.00    -0.358 OA 
HETATM   55  H   UNL     1     -10.252  20.712  66.857  1.00  0.00     0.000 HD 
ENDBRANCH  52  53
ENDBRANCH  50  52
ENDBRANCH  49  50
ENDBRANCH  46  49
ENDBRANCH  39  40
ENDBRANCH  26  39
ENDBRANCH  15  16
ENDBRANCH   6  15
ENDBRANCH   2   4
TORSDOF 13
ENDMDL
MODEL      204
REMARK 921   NORMALIZED FREE ENERGY PREDICTED BY IDOCK:    0.62 KCAL/MOL
REMARK 922        TOTAL FREE ENERGY PREDICTED BY IDOCK:   -2.37 KCAL/MOL
REMARK 923 INTER-LIGAND FREE ENERGY PREDICTED BY IDOCK:   -3.88 KCAL/MOL
REMARK 924 INTRA-LIGAND FREE ENERGY PREDICTED BY IDOCK:    1.52 KCAL/MOL
REMARK 927      BINDING AFFINITY PREDICTED BY RF-SCORE:    0.00 PKD
ROOT
HETATM    1  C   UNL     1     -14.411  12.913  72.308  1.00  0.00     0.218 C  
HETATM    2  N   UNL     1     -13.620  12.685  71.102  1.00  0.00     0.435 NA 
HETATM    3  H   UNL     1     -14.236  12.580  70.296  1.00  0.00     0.000 HD 
ENDROOT
BRANCH   2   4
HETATM    4  C   UNL     1     -12.573  13.711  70.814  1.00  0.00    -0.325 C  
HETATM    5  C   UNL     1     -11.179  13.082  70.565  1.00  0.00     1.070 C  
HETATM    6  C   UNL     1     -10.190  14.177  70.107  1.00  0.00     1.031 C  
HETATM    7  O   UNL     1     -11.256  12.018  69.614  1.00  0.00    -0.433 OA 
HETATM    8  H   UNL     1     -10.401  11.633  69.462  1.00  0.00     0.000 HD 
HETATM    9  O   UNL     1     -12.145  14.459  73.125  1.00  0.00    -0.046 OA 
HETATM   10  O   UNL     1     -10.076  15.159  71.138  1.00  0.00     0.491 OA 
HETATM   11  H   UNL     1     -12.069  15.193  73.723  1.00  0.00     0.000 HD 
HETATM   12  C   UNL     1     -11.310  15.865  71.353  1.00  0.00    -0.339 C  
HETATM   13  C   UNL     1     -13.748  15.729  71.886  1.00  0.00    -0.371 C  
HETATM   14  C   UNL     1     -12.448  14.921  71.800  1.00  0.00    -0.339 C  
BRANCH   6  15
HETATM   15  O   UNL     1     -10.619  14.765  68.877  1.00  0.00    -0.236 OA 
BRANCH  15  16
HETATM   16  C   UNL     1     -10.022  16.028  68.534  1.00  0.00    -0.222 C  
HETATM   17  H1  UNL     1      -9.537  17.334  64.297  1.00  0.00     0.000 HD 
HETATM   18  C   UNL     1      -8.582  15.919  67.983  1.00  0.00    -0.164 C  
HETATM   19  C   UNL     1     -10.954  16.690  67.482  1.00  0.00    -0.147 C  
HETATM   20  H2  UNL     1      -7.986  16.778  64.658  1.00  0.00     0.000 HD 
HETATM   21  C   UNL     1      -9.508  15.712  65.588  1.00  0.00    -0.237 C  
HETATM   22  C   UNL     1      -8.589  15.115  66.671  1.00  0.00    -0.279 C  
HETATM   23  O   UNL     1     -10.580  18.072  67.292  1.00  0.00    -0.380 OA 
HETATM   24  H   UNL     1     -11.149  18.478  66.648  1.00  0.00     0.000 HD 
HETATM   25  N   UNL     1      -8.928  16.939  65.014  1.00  0.00     1.617 NA 
HETATM   26  C   UNL     1     -10.955  15.918  66.131  1.00  0.00    -0.126 C  
BRANCH  18  27
HETATM   27  N   UNL     1      -7.957  17.235  67.843  1.00  0.00    -0.200 N  
HETATM   28  H   UNL     1      -8.104  17.752  66.976  1.00  0.00     0.000 HD 
HETATM   29  C   UNL     1      -7.180  17.808  68.824  1.00  0.00    -0.271 C  
HETATM   30  O   UNL     1      -6.960  17.290  69.913  1.00  0.00     0.134 OA 
BRANCH  29  31
HETATM   31  C   UNL     1      -6.621  19.192  68.457  1.00  0.00    -0.255 C  
HETATM   32  H   UNL     1      -5.111  19.917  67.413  1.00  0.00     0.000 HD 
HETATM   33  O   UNL     1      -5.457  19.061  67.640  1.00  0.00    -0.170 OA 
BRANCH  31  34
HETATM   34  C   UNL     1      -7.659  20.018  67.698  1.00  0.00    -0.327 C  
BRANCH  34  35
HETATM   35  C   UNL     1      -7.013  20.897  66.627  1.00  0.00    -0.215 C  
HETATM   36  H1  UNL     1      -5.445  20.797  65.310  1.00  0.00     0.000 HD 
HETATM   37  H2  UNL     1      -6.135  19.295  65.659  1.00  0.00     0.000 HD 
HETATM   38  N   UNL     1      -5.876  20.211  66.025  1.00  0.00    -0.169 NA 
ENDBRANCH  34  35
ENDBRANCH  31  34
ENDBRANCH  29  31
ENDBRANCH  18  27
BRANCH  26  39
HETATM   39  O   UNL     1     -11.514  14.608  66.204  1.00  0.00    -0.346 OA 
BRANCH  39  40
HETATM   40  C   UNL     1     -10.937  13.575  65.399  1.00  0.00    -0.292 C  
HETATM   41  H1  UNL     1     -14.155  12.451  64.711  1.00  0.00     0.000 HD 
HETATM   42  O   UNL     1     -10.241  12.613  66.198  1.00  0.00    -0.248 OA 
HETATM   43  H2  UNL     1     -13.672  13.758  65.638  1.00  0.00     0.000 HD 
HETATM   44  N   UNL     1     -13.395  12.850  65.263  1.00  0.00    -0.324 NA 
HETATM   45  C   UNL     1     -12.102  12.962  64.553  1.00  0.00    -0.413 C  
HETATM   46  C   UNL     1      -9.792  11.514  65.483  1.00  0.00    -0.234 C  
HETATM   47  C   UNL     1     -11.690  11.651  63.868  1.00  0.00    -0.370 C  
HETATM   48  C   UNL     1     -10.432  11.052  64.398  1.00  0.00    -0.422 C  
BRANCH  46  49
HETATM   49  C   UNL     1      -8.557  10.841  66.038  1.00  0.00    -0.178 C  
BRANCH  49  50
HETATM   50  N   UNL     1      -7.639  11.770  66.703  1.00  0.00    -0.343 NA 
HETATM   51  H   UNL     1      -8.128  12.600  67.040  1.00  0.00     0.000 HD 
BRANCH  50  52
HETATM   52  C   UNL     1      -6.892  11.107  67.787  1.00  0.00    -0.073 C  
BRANCH  52  53
HETATM   53  C   UNL     1      -5.390  11.367  67.651  1.00  0.00    -0.050 C  
HETATM   54  O   UNL     1      -5.135  12.322  66.625  1.00  0.00    -0.337 OA 
HETATM   55  H   UNL     1      -4.202  12.482  66.540  1.00  0.00     0.000 HD 
ENDBRANCH  52  53
ENDBRANCH  50  52
ENDBRANCH  49  50
ENDBRANCH  46  49
ENDBRANCH  39  40
ENDBRANCH  26  39
ENDBRANCH  15  16
ENDBRANCH   6  15
ENDBRANCH   2   4
TORSDOF 13
ENDMDL
MODEL      205
REMARK 921   NORMALIZED FREE ENERGY PREDICTED BY IDOCK:    0.64 KCAL/MOL
REMARK 922        TOTAL FREE ENERGY PREDICTED BY IDOCK:   -2.33 KCAL/MOL
REMARK 923 INTER-LIGAND FREE ENERGY PREDICTED BY IDOCK:   -5.03 KCAL/MOL
REMARK 924 INTRA-LIGAND FREE ENERGY PREDICTED BY IDOCK:    2.70 KCAL/MOL
REMARK 927      BINDING AFFINITY PREDICTED BY RF-SCORE:    0.00 PKD
ROOT
HETATM    1  C   UNL     1     -12.598  12.165  70.213  1.00  0.00     0.034 C  
HETATM    2  N   UNL     1     -12.786  12.456  68.795  1.00  0.00     0.702 NA 
HETATM    3  H   UNL     1     -13.496  13.180  68.679  1.00  0.00     0.000 HD 
ENDROOT
BRANCH   2   4
HETATM    4  C   UNL     1     -11.550  12.829  68.044  1.00  0.00    -0.341 C  
HETATM    5  C   UNL     1     -10.276  12.758  68.924  1.00  0.00     0.017 C  
HETATM    6  C   UNL     1      -9.025  12.985  68.047  1.00  0.00    -0.199 C  
HETATM    7  O   UNL     1     -10.202  11.514  69.624  1.00  0.00    -0.391 OA 
HETATM    8  H   UNL     1      -9.422  11.470  70.164  1.00  0.00     0.000 HD 
HETATM    9  O   UNL     1     -11.807  15.281  68.104  1.00  0.00    -0.443 OA 
HETATM   10  O   UNL     1      -9.106  14.282  67.454  1.00  0.00    -0.180 OA 
HETATM   11  H   UNL     1     -11.817  16.093  67.611  1.00  0.00     0.000 HD 
HETATM   12  C   UNL     1     -10.206  14.392  66.535  1.00  0.00    -0.274 C  
HETATM   13  C   UNL     1     -12.668  14.178  66.165  1.00  0.00    -0.251 C  
HETATM   14  C   UNL     1     -11.566  14.167  67.231  1.00  0.00    -0.373 C  
BRANCH   6  15
HETATM   15  O   UNL     1      -8.913  11.966  67.050  1.00  0.00    -0.177 OA 
BRANCH  15  16
HETATM   16  C   UNL     1      -8.535  10.660  67.516  1.00  0.00    -0.121 C  
HETATM   17  H1  UNL     1      -4.303   9.254  67.414  1.00  0.00     0.000 HD 
HETATM   18  C   UNL     1      -8.214   9.652  66.389  1.00  0.00    -0.119 C  
HETATM   19  C   UNL     1      -7.296  10.857  68.434  1.00  0.00    -0.094 C  
HETATM   20  H2  UNL     1      -4.941   8.503  66.045  1.00  0.00     0.000 HD 
HETATM   21  C   UNL     1      -5.743  10.380  66.435  1.00  0.00    -0.070 C  
HETATM   22  C   UNL     1      -7.003  10.150  65.580  1.00  0.00    -0.131 C  
HETATM   23  O   UNL     1      -7.023   9.639  69.162  1.00  0.00    -0.049 OA 
HETATM   24  H   UNL     1      -6.266   9.759  69.723  1.00  0.00     0.000 HD 
HETATM   25  N   UNL     1      -5.137   9.101  66.848  1.00  0.00    -0.034 NA 
HETATM   26  C   UNL     1      -6.045  11.326  67.637  1.00  0.00    -0.051 C  
BRANCH  18  27
HETATM   27  N   UNL     1      -8.033   8.298  66.912  1.00  0.00    -0.099 N  
HETATM   28  H   UNL     1      -7.679   8.187  67.862  1.00  0.00     0.000 HD 
HETATM   29  C   UNL     1      -8.316   7.165  66.182  1.00  0.00    -0.133 C  
HETATM   30  O   UNL     1      -8.770   7.179  65.043  1.00  0.00     0.037 OA 
BRANCH  29  31
HETATM   31  C   UNL     1      -8.043   5.850  66.929  1.00  0.00    -0.102 C  
HETATM   32  H   UNL     1      -6.826   5.210  68.345  1.00  0.00     0.000 HD 
HETATM   33  O   UNL     1      -6.995   6.023  67.884  1.00  0.00    -0.068 OA 
BRANCH  31  34
HETATM   34  C   UNL     1      -9.294   5.367  67.663  1.00  0.00    -0.122 C  
BRANCH  34  35
HETATM   35  C   UNL     1     -10.305   6.496  67.866  1.00  0.00    -0.189 C  
HETATM   36  H1  UNL     1     -10.735   7.928  69.268  1.00  0.00     0.000 HD 
HETATM   37  H2  UNL     1      -9.100   7.509  69.205  1.00  0.00     0.000 HD 
HETATM   38  N   UNL     1     -10.061   7.175  69.132  1.00  0.00    -0.178 NA 
ENDBRANCH  34  35
ENDBRANCH  31  34
ENDBRANCH  29  31
ENDBRANCH  18  27
BRANCH  26  39
HETATM   39  O   UNL     1      -6.168  12.626  67.063  1.00  0.00    -0.250 OA 
BRANCH  39  40
HETATM   40  C   UNL     1      -5.499  13.719  67.700  1.00  0.00     0.035 C  
HETATM   41  H1  UNL     1      -7.173  12.903  70.636  1.00  0.00     0.000 HD 
HETATM   42  O   UNL     1      -5.961  14.980  67.205  1.00  0.00    -0.319 OA 
HETATM   43  H2  UNL     1      -7.238  12.150  69.143  1.00  0.00     0.000 HD 
HETATM   44  N   UNL     1      -7.038  13.023  69.632  1.00  0.00     0.261 NA 
HETATM   45  C   UNL     1      -5.706  13.535  69.240  1.00  0.00    -0.081 C  
HETATM   46  C   UNL     1      -5.453  16.069  67.894  1.00  0.00    -0.132 C  
HETATM   47  C   UNL     1      -5.301  14.788  70.031  1.00  0.00    -0.100 C  
HETATM   48  C   UNL     1      -5.129  16.010  69.195  1.00  0.00    -0.108 C  
BRANCH  46  49
HETATM   49  C   UNL     1      -5.333  17.345  67.091  1.00  0.00    -0.140 C  
BRANCH  49  50
HETATM   50  N   UNL     1      -6.214  18.415  67.567  1.00  0.00    -0.180 NA 
HETATM   51  H   UNL     1      -6.045  19.287  67.066  1.00  0.00     0.000 HD 
BRANCH  50  52
HETATM   52  C   UNL     1      -7.631  18.019  67.496  1.00  0.00    -0.208 C  
BRANCH  52  53
HETATM   53  C   UNL     1      -8.321  18.217  68.848  1.00  0.00    -0.130 C  
HETATM   54  O   UNL     1      -9.546  17.490  68.898  1.00  0.00    -0.279 OA 
HETATM   55  H   UNL     1      -9.975  17.613  69.737  1.00  0.00     0.000 HD 
ENDBRANCH  52  53
ENDBRANCH  50  52
ENDBRANCH  49  50
ENDBRANCH  46  49
ENDBRANCH  39  40
ENDBRANCH  26  39
ENDBRANCH  15  16
ENDBRANCH   6  15
ENDBRANCH   2   4
TORSDOF 13
ENDMDL
MODEL      206
REMARK 921   NORMALIZED FREE ENERGY PREDICTED BY IDOCK:    0.71 KCAL/MOL
REMARK 922        TOTAL FREE ENERGY PREDICTED BY IDOCK:   -2.21 KCAL/MOL
REMARK 923 INTER-LIGAND FREE ENERGY PREDICTED BY IDOCK:   -5.61 KCAL/MOL
REMARK 924 INTRA-LIGAND FREE ENERGY PREDICTED BY IDOCK:    3.40 KCAL/MOL
REMARK 927      BINDING AFFINITY PREDICTED BY RF-SCORE:    0.00 PKD
ROOT
HETATM    1  C   UNL     1      -6.705  12.495  67.199  1.00  0.00    -0.054 C  
HETATM    2  N   UNL     1      -7.874  12.209  66.374  1.00  0.00    -0.365 NA 
HETATM    3  H   UNL     1      -7.582  11.960  65.429  1.00  0.00     0.000 HD 
ENDROOT
BRANCH   2   4
HETATM    4  C   UNL     1      -8.804  11.170  66.910  1.00  0.00    -0.157 C  
HETATM    5  C   UNL     1      -9.087  10.042  65.887  1.00  0.00    -0.159 C  
HETATM    6  C   UNL     1      -9.910   8.922  66.562  1.00  0.00    -0.274 C  
HETATM    7  O   UNL     1      -7.872   9.533  65.331  1.00  0.00    -0.105 OA 
HETATM    8  H   UNL     1      -8.046   8.841  64.704  1.00  0.00     0.000 HD 
HETATM    9  O   UNL     1     -10.929  12.382  66.600  1.00  0.00    -0.249 OA 
HETATM   10  O   UNL     1     -11.154   9.466  67.006  1.00  0.00    -0.005 OA 
HETATM   11  H   UNL     1     -11.742  12.677  66.993  1.00  0.00     0.000 HD 
HETATM   12  C   UNL     1     -10.978  10.449  68.041  1.00  0.00    -0.291 C  
HETATM   13  C   UNL     1      -9.901  12.590  68.749  1.00  0.00     0.008 C  
HETATM   14  C   UNL     1     -10.144  11.656  67.558  1.00  0.00    -0.191 C  
BRANCH   6  15
HETATM   15  O   UNL     1      -9.182   8.342  67.647  1.00  0.00    -0.136 OA 
BRANCH  15  16
HETATM   16  C   UNL     1      -9.845   8.333  68.923  1.00  0.00    -0.180 C  
HETATM   17  H1  UNL     1      -8.639   5.542  72.187  1.00  0.00     0.000 HD 
HETATM   18  C   UNL     1     -10.797   7.134  69.135  1.00  0.00    -0.162 C  
HETATM   19  C   UNL     1      -8.729   8.334  70.004  1.00  0.00    -0.133 C  
HETATM   20  H2  UNL     1      -9.994   4.759  71.557  1.00  0.00     0.000 HD 
HETATM   21  C   UNL     1      -8.857   5.765  70.137  1.00  0.00    -0.140 C  
HETATM   22  C   UNL     1      -9.993   5.822  69.097  1.00  0.00    -0.232 C  
HETATM   23  O   UNL     1      -9.300   8.605  71.303  1.00  0.00    -0.181 OA 
HETATM   24  H   UNL     1      -8.618   8.606  71.964  1.00  0.00     0.000 HD 
HETATM   25  N   UNL     1      -9.391   5.580  71.499  1.00  0.00    -0.146 NA 
HETATM   26  C   UNL     1      -7.920   7.005  70.013  1.00  0.00    -0.115 C  
BRANCH  18  27
HETATM   27  N   UNL     1     -11.588   7.282  70.356  1.00  0.00    -0.447 N  
HETATM   28  H   UNL     1     -11.753   6.456  70.932  1.00  0.00     0.000 HD 
HETATM   29  C   UNL     1     -12.122   8.483  70.766  1.00  0.00    -0.061 C  
HETATM   30  O   UNL     1     -11.965   9.542  70.168  1.00  0.00    -0.087 OA 
BRANCH  29  31
HETATM   31  C   UNL     1     -12.923   8.403  72.075  1.00  0.00    -0.358 C  
HETATM   32  H   UNL     1     -12.585   7.907  73.956  1.00  0.00     0.000 HD 
HETATM   33  O   UNL     1     -12.090   7.956  73.146  1.00  0.00    -0.091 OA 
BRANCH  31  34
HETATM   34  C   UNL     1     -13.503   9.768  72.447  1.00  0.00    -0.364 C  
BRANCH  34  35
HETATM   35  C   UNL     1     -13.303  10.793  71.331  1.00  0.00    -0.162 C  
HETATM   36  H1  UNL     1     -13.273  12.832  71.117  1.00  0.00     0.000 HD 
HETATM   37  H2  UNL     1     -12.765  12.302  72.638  1.00  0.00     0.000 HD 
HETATM   38  N   UNL     1     -13.407  12.148  71.861  1.00  0.00    -0.418 NA 
ENDBRANCH  34  35
ENDBRANCH  31  34
ENDBRANCH  29  31
ENDBRANCH  18  27
BRANCH  26  39
HETATM   39  O   UNL     1      -7.155   6.775  68.832  1.00  0.00    -0.082 OA 
BRANCH  39  40
HETATM   40  C   UNL     1      -7.194   5.474  68.237  1.00  0.00    -0.071 C  
HETATM   41  H1  UNL     1      -4.589   4.541  70.342  1.00  0.00     0.000 HD 
HETATM   42  O   UNL     1      -6.743   5.503  66.879  1.00  0.00    -0.058 OA 
HETATM   43  H2  UNL     1      -5.386   6.008  70.241  1.00  0.00     0.000 HD 
HETATM   44  N   UNL     1      -5.139   5.154  69.741  1.00  0.00     0.000 NA 
HETATM   45  C   UNL     1      -6.350   4.533  69.159  1.00  0.00    -0.032 C  
HETATM   46  C   UNL     1      -6.621   4.247  66.306  1.00  0.00    -0.042 C  
HETATM   47  C   UNL     1      -6.056   3.182  68.491  1.00  0.00    -0.028 C  
HETATM   48  C   UNL     1      -6.315   3.156  67.023  1.00  0.00    -0.036 C  
BRANCH  46  49
HETATM   49  C   UNL     1      -6.808   4.200  64.806  1.00  0.00    -0.049 C  
BRANCH  49  50
HETATM   50  N   UNL     1      -8.181   4.486  64.383  1.00  0.00    -0.103 NA 
HETATM   51  H   UNL     1      -8.715   4.935  65.127  1.00  0.00     0.000 HD 
BRANCH  50  52
HETATM   52  C   UNL     1      -8.210   5.283  63.144  1.00  0.00    -0.110 C  
BRANCH  52  53
HETATM   53  C   UNL     1      -8.507   6.753  63.448  1.00  0.00     0.329 C  
HETATM   54  O   UNL     1      -7.320   7.536  63.355  1.00  0.00    -0.074 OA 
HETATM   55  H   UNL     1      -7.505   8.449  63.545  1.00  0.00     0.000 HD 
ENDBRANCH  52  53
ENDBRANCH  50  52
ENDBRANCH  49  50
ENDBRANCH  46  49
ENDBRANCH  39  40
ENDBRANCH  26  39
ENDBRANCH  15  16
ENDBRANCH   6  15
ENDBRANCH   2   4
TORSDOF 13
ENDMDL
MODEL      207
REMARK 921   NORMALIZED FREE ENERGY PREDICTED BY IDOCK:    0.73 KCAL/MOL
REMARK 922        TOTAL FREE ENERGY PREDICTED BY IDOCK:   -2.17 KCAL/MOL
REMARK 923 INTER-LIGAND FREE ENERGY PREDICTED BY IDOCK:   -3.17 KCAL/MOL
REMARK 924 INTRA-LIGAND FREE ENERGY PREDICTED BY IDOCK:    1.00 KCAL/MOL
REMARK 927      BINDING AFFINITY PREDICTED BY RF-SCORE:    0.00 PKD
ROOT
HETATM    1  C   UNL     1      -8.597  11.583  68.162  1.00  0.00    -0.156 C  
HETATM    2  N   UNL     1      -9.523  11.571  69.290  1.00  0.00    -0.362 NA 
HETATM    3  H   UNL     1      -9.004  11.562  70.168  1.00  0.00     0.000 HD 
ENDROOT
BRANCH   2   4
HETATM    4  C   UNL     1     -10.534  12.671  69.306  1.00  0.00     0.237 C  
HETATM    5  C   UNL     1      -9.965  13.991  69.885  1.00  0.00     1.034 C  
HETATM    6  C   UNL     1     -11.002  15.123  69.713  1.00  0.00    -0.280 C  
HETATM    7  O   UNL     1      -8.719  14.328  69.271  1.00  0.00    -0.371 OA 
HETATM    8  H   UNL     1      -8.370  15.137  69.627  1.00  0.00     0.000 HD 
HETATM    9  O   UNL     1     -11.788  11.989  71.317  1.00  0.00    -0.023 OA 
HETATM   10  O   UNL     1     -12.187  14.777  70.430  1.00  0.00    -0.295 OA 
HETATM   11  H   UNL     1     -12.636  11.804  71.701  1.00  0.00     0.000 HD 
HETATM   12  C   UNL     1     -12.836  13.617  69.880  1.00  0.00     0.288 C  
HETATM   13  C   UNL     1     -12.648  11.213  69.225  1.00  0.00     0.201 C  
HETATM   14  C   UNL     1     -11.933  12.366  69.939  1.00  0.00    -0.299 C  
BRANCH   6  15
HETATM   15  O   UNL     1     -11.281  15.349  68.329  1.00  0.00    -0.293 OA 
BRANCH  15  16
HETATM   16  C   UNL     1     -10.702  14.413  67.404  1.00  0.00    -0.280 C  
HETATM   17  H1  UNL     1      -9.744  15.541  63.197  1.00  0.00     0.000 HD 
HETATM   18  C   UNL     1     -11.692  13.872  66.347  1.00  0.00    -0.383 C  
HETATM   19  C   UNL     1      -9.519  15.144  66.712  1.00  0.00    -0.242 C  
HETATM   20  H2  UNL     1     -11.205  14.722  63.001  1.00  0.00     0.000 HD 
HETATM   21  C   UNL     1     -11.071  15.810  64.767  1.00  0.00    -0.400 C  
HETATM   22  C   UNL     1     -12.198  15.031  65.471  1.00  0.00     0.140 C  
HETATM   23  O   UNL     1      -8.714  14.196  65.977  1.00  0.00    -0.275 OA 
HETATM   24  H   UNL     1      -7.990  14.644  65.554  1.00  0.00     0.000 HD 
HETATM   25  N   UNL     1     -10.490  15.025  63.662  1.00  0.00     2.285 NA 
HETATM   26  C   UNL     1     -10.003  16.302  65.792  1.00  0.00    -0.323 C  
BRANCH  18  27
HETATM   27  N   UNL     1     -11.104  12.782  65.566  1.00  0.00    -0.280 N  
HETATM   28  H   UNL     1     -10.156  12.479  65.791  1.00  0.00     0.000 HD 
HETATM   29  C   UNL     1     -11.769  12.147  64.542  1.00  0.00    -0.338 C  
HETATM   30  O   UNL     1     -12.918  12.409  64.204  1.00  0.00    -0.744 OA 
BRANCH  29  31
HETATM   31  C   UNL     1     -10.957  11.036  63.856  1.00  0.00    -0.030 C  
HETATM   32  H   UNL     1      -9.833  10.844  62.245  1.00  0.00     0.000 HD 
HETATM   33  O   UNL     1     -10.335  11.530  62.669  1.00  0.00    -0.033 OA 
BRANCH  31  34
HETATM   34  C   UNL     1      -9.870  10.498  64.787  1.00  0.00    -0.387 C  
BRANCH  34  35
HETATM   35  C   UNL     1     -10.405   9.405  65.712  1.00  0.00     0.228 C  
HETATM   36  H1  UNL     1     -11.553   9.261  67.405  1.00  0.00     0.000 HD 
HETATM   37  H2  UNL     1     -11.944  10.583  66.429  1.00  0.00     0.000 HD 
HETATM   38  N   UNL     1     -11.196   9.990  66.787  1.00  0.00     0.102 NA 
ENDBRANCH  34  35
ENDBRANCH  31  34
ENDBRANCH  29  31
ENDBRANCH  18  27
BRANCH  26  39
HETATM   39  O   UNL     1     -10.625  17.382  66.484  1.00  0.00    -0.285 OA 
BRANCH  39  40
HETATM   40  C   UNL     1      -9.790  18.340  67.143  1.00  0.00    -0.324 C  
HETATM   41  H1  UNL     1     -11.886  20.843  65.945  1.00  0.00     0.000 HD 
HETATM   42  O   UNL     1      -8.505  18.435  66.520  1.00  0.00    -0.264 OA 
HETATM   43  H2  UNL     1     -12.002  19.186  65.742  1.00  0.00     0.000 HD 
HETATM   44  N   UNL     1     -11.370  19.963  65.935  1.00  0.00     0.277 NA 
HETATM   45  C   UNL     1     -10.582  19.690  67.158  1.00  0.00    -0.487 C  
HETATM   46  C   UNL     1      -7.714  19.453  67.027  1.00  0.00    -0.246 C  
HETATM   47  C   UNL     1      -9.694  20.875  67.563  1.00  0.00    -0.343 C  
HETATM   48  C   UNL     1      -8.231  20.587  67.524  1.00  0.00    -0.299 C  
BRANCH  46  49
HETATM   49  C   UNL     1      -6.222  19.220  66.936  1.00  0.00    -0.177 C  
BRANCH  49  50
HETATM   50  N   UNL     1      -5.504  20.312  66.273  1.00  0.00    -0.167 NA 
HETATM   51  H   UNL     1      -4.679  20.592  66.804  1.00  0.00     0.000 HD 
BRANCH  50  52
HETATM   52  C   UNL     1      -5.158  19.965  64.883  1.00  0.00    -0.155 C  
BRANCH  52  53
HETATM   53  C   UNL     1      -6.049  20.720  63.894  1.00  0.00    -0.306 C  
HETATM   54  O   UNL     1      -7.248  19.992  63.641  1.00  0.00     0.881 OA 
HETATM   55  H   UNL     1      -7.801  20.461  63.027  1.00  0.00     0.000 HD 
ENDBRANCH  52  53
ENDBRANCH  50  52
ENDBRANCH  49  50
ENDBRANCH  46  49
ENDBRANCH  39  40
ENDBRANCH  26  39
ENDBRANCH  15  16
ENDBRANCH   6  15
ENDBRANCH   2   4
TORSDOF 13
ENDMDL
MODEL      208
REMARK 921   NORMALIZED FREE ENERGY PREDICTED BY IDOCK:    0.80 KCAL/MOL
REMARK 922        TOTAL FREE ENERGY PREDICTED BY IDOCK:   -2.06 KCAL/MOL
REMARK 923 INTER-LIGAND FREE ENERGY PREDICTED BY IDOCK:   -3.87 KCAL/MOL
REMARK 924 INTRA-LIGAND FREE ENERGY PREDICTED BY IDOCK:    1.81 KCAL/MOL
REMARK 927      BINDING AFFINITY PREDICTED BY RF-SCORE:    0.00 PKD
ROOT
HETATM    1  C   UNL     1     -13.174  10.320  72.543  1.00  0.00     0.173 C  
HETATM    2  N   UNL     1     -13.425   9.073  71.828  1.00  0.00    -0.388 NA 
HETATM    3  H   UNL     1     -14.147   9.215  71.121  1.00  0.00     0.000 HD 
ENDROOT
BRANCH   2   4
HETATM    4  C   UNL     1     -12.226   8.431  71.211  1.00  0.00    -0.277 C  
HETATM    5  C   UNL     1     -11.823   9.093  69.869  1.00  0.00     0.369 C  
HETATM    6  C   UNL     1     -10.485   8.498  69.377  1.00  0.00    -0.218 C  
HETATM    7  O   UNL     1     -11.745  10.515  69.999  1.00  0.00    -0.267 OA 
HETATM    8  H   UNL     1     -11.498  10.921  69.176  1.00  0.00     0.000 HD 
HETATM    9  O   UNL     1     -13.328   6.451  70.237  1.00  0.00     1.196 OA 
HETATM   10  O   UNL     1     -10.653   7.095  69.168  1.00  0.00    -0.210 OA 
HETATM   11  H   UNL     1     -13.331   5.506  70.146  1.00  0.00     0.000 HD 
HETATM   12  C   UNL     1     -10.923   6.392  70.392  1.00  0.00    -0.308 C  
HETATM   13  C   UNL     1     -12.377   6.165  72.412  1.00  0.00    -0.059 C  
HETATM   14  C   UNL     1     -12.230   6.873  71.060  1.00  0.00    -0.377 C  
BRANCH   6  15
HETATM   15  O   UNL     1      -9.438   8.761  70.314  1.00  0.00    -0.160 OA 
BRANCH  15  16
HETATM   16  C   UNL     1      -8.348   7.824  70.327  1.00  0.00    -0.127 C  
HETATM   17  H1  UNL     1      -4.391   8.785  68.508  1.00  0.00     0.000 HD 
HETATM   18  C   UNL     1      -8.079   7.145  68.965  1.00  0.00    -0.121 C  
HETATM   19  C   UNL     1      -7.092   8.609  70.797  1.00  0.00    -0.061 C  
HETATM   20  H2  UNL     1      -5.096   7.841  67.301  1.00  0.00     0.000 HD 
HETATM   21  C   UNL     1      -6.443   9.035  68.341  1.00  0.00    -0.055 C  
HETATM   22  C   UNL     1      -7.675   8.208  67.928  1.00  0.00    -0.114 C  
HETATM   23  O   UNL     1      -6.021   7.689  71.104  1.00  0.00    -0.035 OA 
HETATM   24  H   UNL     1      -5.253   8.170  71.391  1.00  0.00     0.000 HD 
HETATM   25  N   UNL     1      -5.207   8.238  68.234  1.00  0.00    -0.032 NA 
HETATM   26  C   UNL     1      -6.639   9.669  69.751  1.00  0.00    -0.055 C  
BRANCH  18  27
HETATM   27  N   UNL     1      -7.100   6.065  69.085  1.00  0.00    -0.068 N  
HETATM   28  H   UNL     1      -6.217   6.151  68.581  1.00  0.00     0.000 HD 
HETATM   29  C   UNL     1      -7.313   4.937  69.844  1.00  0.00    -0.055 C  
HETATM   30  O   UNL     1      -8.323   4.740  70.511  1.00  0.00    -0.091 OA 
BRANCH  29  31
HETATM   31  C   UNL     1      -6.151   3.931  69.818  1.00  0.00    -0.023 C  
HETATM   32  H   UNL     1      -4.427   3.728  68.880  1.00  0.00     0.000 HD 
HETATM   33  O   UNL     1      -5.145   4.350  68.895  1.00  0.00     0.000 OA 
BRANCH  31  34
HETATM   34  C   UNL     1      -5.516   3.792  71.202  1.00  0.00    -0.008 C  
BRANCH  34  35
HETATM   35  C   UNL     1      -6.454   3.101  72.191  1.00  0.00    -0.015 C  
HETATM   36  H1  UNL     1      -6.455   2.550  74.166  1.00  0.00     0.000 HD 
HETATM   37  H2  UNL     1      -5.524   3.922  73.845  1.00  0.00     0.000 HD 
HETATM   38  N   UNL     1      -5.829   3.010  73.506  1.00  0.00     0.000 NA 
ENDBRANCH  34  35
ENDBRANCH  31  34
ENDBRANCH  29  31
ENDBRANCH  18  27
BRANCH  26  39
HETATM   39  O   UNL     1      -7.567  10.733  69.553  1.00  0.00    -0.141 OA 
BRANCH  39  40
HETATM   40  C   UNL     1      -7.227  11.772  68.630  1.00  0.00    -0.112 C  
HETATM   41  H1  UNL     1      -4.356  12.359  70.503  1.00  0.00     0.000 HD 
HETATM   42  O   UNL     1      -8.120  12.885  68.737  1.00  0.00    -0.053 OA 
HETATM   43  H2  UNL     1      -5.553  11.214  70.742  1.00  0.00     0.000 HD 
HETATM   44  N   UNL     1      -5.332  12.119  70.327  1.00  0.00    -0.105 NA 
HETATM   45  C   UNL     1      -5.730  12.140  68.901  1.00  0.00    -0.052 C  
HETATM   46  C   UNL     1      -7.744  13.977  67.971  1.00  0.00    -0.149 C  
HETATM   47  C   UNL     1      -5.317  13.438  68.193  1.00  0.00    -0.105 C  
HETATM   48  C   UNL     1      -6.461  14.254  67.693  1.00  0.00    -0.151 C  
BRANCH  46  49
HETATM   49  C   UNL     1      -8.878  14.864  67.509  1.00  0.00    -0.188 C  
BRANCH  49  50
HETATM   50  N   UNL     1      -8.846  15.145  66.071  1.00  0.00    -0.435 NA 
HETATM   51  H   UNL     1      -7.919  14.981  65.679  1.00  0.00     0.000 HD 
BRANCH  50  52
HETATM   52  C   UNL     1      -9.879  14.381  65.349  1.00  0.00    -0.230 C  
BRANCH  52  53
HETATM   53  C   UNL     1     -11.263  14.999  65.561  1.00  0.00    -0.344 C  
HETATM   54  O   UNL     1     -12.081  14.141  66.353  1.00  0.00    -0.422 OA 
HETATM   55  H   UNL     1     -12.940  14.525  66.484  1.00  0.00     0.000 HD 
ENDBRANCH  52  53
ENDBRANCH  50  52
ENDBRANCH  49  50
ENDBRANCH  46  49
ENDBRANCH  39  40
ENDBRANCH  26  39
ENDBRANCH  15  16
ENDBRANCH   6  15
ENDBRANCH   2   4
TORSDOF 13
ENDMDL
MODEL      209
REMARK 921   NORMALIZED FREE ENERGY PREDICTED BY IDOCK:    0.87 KCAL/MOL
REMARK 922        TOTAL FREE ENERGY PREDICTED BY IDOCK:   -1.93 KCAL/MOL
REMARK 923 INTER-LIGAND FREE ENERGY PREDICTED BY IDOCK:   -4.18 KCAL/MOL
REMARK 924 INTRA-LIGAND FREE ENERGY PREDICTED BY IDOCK:    2.25 KCAL/MOL
REMARK 927      BINDING AFFINITY PREDICTED BY RF-SCORE:    0.00 PKD
ROOT
HETATM    1  C   UNL     1      -6.026  10.803  65.976  1.00  0.00    -0.138 C  
HETATM    2  N   UNL     1      -6.611   9.857  66.920  1.00  0.00    -0.066 NA 
HETATM    3  H   UNL     1      -6.211   9.996  67.848  1.00  0.00     0.000 HD 
ENDROOT
BRANCH   2   4
HETATM    4  C   UNL     1      -8.103   9.866  67.000  1.00  0.00    -0.110 C  
HETATM    5  C   UNL     1      -8.743   8.649  66.286  1.00  0.00    -0.143 C  
HETATM    6  C   UNL     1     -10.264   8.629  66.555  1.00  0.00    -0.225 C  
HETATM    7  O   UNL     1      -8.126   7.426  66.697  1.00  0.00    -0.117 OA 
HETATM    8  H   UNL     1      -8.518   6.680  66.258  1.00  0.00     0.000 HD 
HETATM    9  O   UNL     1      -8.558  11.516  65.225  1.00  0.00    -0.383 OA 
HETATM   10  O   UNL     1     -10.841   9.827  66.033  1.00  0.00     0.130 OA 
HETATM   11  H   UNL     1      -9.009  12.314  64.976  1.00  0.00     0.000 HD 
HETATM   12  C   UNL     1     -10.375  10.999  66.723  1.00  0.00    -0.238 C  
HETATM   13  C   UNL     1      -8.420  12.375  67.452  1.00  0.00    -0.179 C  
HETATM   14  C   UNL     1      -8.847  11.181  66.591  1.00  0.00    -0.166 C  
BRANCH   6  15
HETATM   15  O   UNL     1     -10.530   8.493  67.953  1.00  0.00    -0.224 OA 
BRANCH  15  16
HETATM   16  C   UNL     1      -9.845   7.424  68.628  1.00  0.00    -0.163 C  
HETATM   17  H1  UNL     1     -10.629   6.453  72.910  1.00  0.00     0.000 HD 
HETATM   18  C   UNL     1      -8.748   7.894  69.610  1.00  0.00    -0.134 C  
HETATM   19  C   UNL     1     -10.929   6.605  69.381  1.00  0.00    -0.309 C  
HETATM   20  H2  UNL     1      -9.201   7.345  73.022  1.00  0.00     0.000 HD 
HETATM   21  C   UNL     1     -10.483   7.979  71.513  1.00  0.00    -0.217 C  
HETATM   22  C   UNL     1      -9.385   8.729  70.735  1.00  0.00    -0.253 C  
HETATM   23  O   UNL     1     -10.369   5.360  69.854  1.00  0.00    -0.260 OA 
HETATM   24  H   UNL     1     -11.032   4.860  70.315  1.00  0.00     0.000 HD 
HETATM   25  N   UNL     1      -9.902   6.949  72.395  1.00  0.00    -0.157 NA 
HETATM   26  C   UNL     1     -11.568   7.412  70.548  1.00  0.00    -0.229 C  
BRANCH  18  27
HETATM   27  N   UNL     1      -7.956   6.771  70.112  1.00  0.00    -0.110 N  
HETATM   28  H   UNL     1      -7.599   6.816  71.067  1.00  0.00     0.000 HD 
HETATM   29  C   UNL     1      -7.667   5.657  69.357  1.00  0.00    -0.088 C  
HETATM   30  O   UNL     1      -8.065   5.484  68.211  1.00  0.00    -0.095 OA 
BRANCH  29  31
HETATM   31  C   UNL     1      -6.814   4.606  70.086  1.00  0.00    -0.037 C  
HETATM   32  H   UNL     1      -4.911   4.092  70.179  1.00  0.00     0.000 HD 
HETATM   33  O   UNL     1      -5.438   4.742  69.728  1.00  0.00    -0.007 OA 
BRANCH  31  34
HETATM   34  C   UNL     1      -6.941   4.753  71.602  1.00  0.00    -0.052 C  
BRANCH  34  35
HETATM   35  C   UNL     1      -5.793   4.062  72.338  1.00  0.00    -0.008 C  
HETATM   36  H1  UNL     1      -5.235   3.666  74.270  1.00  0.00     0.000 HD 
HETATM   37  H2  UNL     1      -6.908   3.746  74.050  1.00  0.00     0.000 HD 
HETATM   38  N   UNL     1      -6.001   4.126  73.779  1.00  0.00    -0.011 NA 
ENDBRANCH  34  35
ENDBRANCH  31  34
ENDBRANCH  29  31
ENDBRANCH  18  27
BRANCH  26  39
HETATM   39  O   UNL     1     -12.323   8.548  70.133  1.00  0.00     0.477 OA 
BRANCH  39  40
HETATM   40  C   UNL     1     -12.330   9.707  70.972  1.00  0.00    -0.310 C  
HETATM   41  H1  UNL     1     -14.928   8.261  72.777  1.00  0.00     0.000 HD 
HETATM   42  O   UNL     1     -12.802  10.862  70.272  1.00  0.00    -0.267 OA 
HETATM   43  H2  UNL     1     -14.091   7.650  71.463  1.00  0.00     0.000 HD 
HETATM   44  N   UNL     1     -14.370   8.498  71.956  1.00  0.00    -0.449 NA 
HETATM   45  C   UNL     1     -13.186   9.343  72.231  1.00  0.00    -0.446 C  
HETATM   46  C   UNL     1     -12.969  11.975  71.080  1.00  0.00    -0.158 C  
HETATM   47  C   UNL     1     -13.529  10.581  73.073  1.00  0.00     2.004 C  
HETATM   48  C   UNL     1     -13.294  11.879  72.378  1.00  0.00     0.031 C  
BRANCH  46  49
HETATM   49  C   UNL     1     -12.807  13.309  70.387  1.00  0.00     0.085 C  
BRANCH  49  50
HETATM   50  N   UNL     1     -12.048  13.224  69.136  1.00  0.00    -0.284 NA 
HETATM   51  H   UNL     1     -12.664  13.257  68.323  1.00  0.00     0.000 HD 
BRANCH  50  52
HETATM   52  C   UNL     1     -11.007  14.264  69.065  1.00  0.00    -0.260 C  
BRANCH  52  53
HETATM   53  C   UNL     1     -11.390  15.478  69.916  1.00  0.00    -0.314 C  
HETATM   54  O   UNL     1     -10.501  16.565  69.669  1.00  0.00    -0.301 OA 
HETATM   55  H   UNL     1     -10.739  17.318  70.198  1.00  0.00     0.000 HD 
ENDBRANCH  52  53
ENDBRANCH  50  52
ENDBRANCH  49  50
ENDBRANCH  46  49
ENDBRANCH  39  40
ENDBRANCH  26  39
ENDBRANCH  15  16
ENDBRANCH   6  15
ENDBRANCH   2   4
TORSDOF 13
ENDMDL
MODEL      210
REMARK 921   NORMALIZED FREE ENERGY PREDICTED BY IDOCK:    0.91 KCAL/MOL
REMARK 922        TOTAL FREE ENERGY PREDICTED BY IDOCK:   -1.85 KCAL/MOL
REMARK 923 INTER-LIGAND FREE ENERGY PREDICTED BY IDOCK:   -4.24 KCAL/MOL
REMARK 924 INTRA-LIGAND FREE ENERGY PREDICTED BY IDOCK:    2.39 KCAL/MOL
REMARK 927      BINDING AFFINITY PREDICTED BY RF-SCORE:    0.00 PKD
ROOT
HETATM    1  C   UNL     1     -10.875  15.453  66.870  1.00  0.00    -0.313 C  
HETATM    2  N   UNL     1      -9.813  14.535  67.271  1.00  0.00    -0.233 NA 
HETATM    3  H   UNL     1      -9.823  14.412  68.284  1.00  0.00     0.000 HD 
ENDROOT
BRANCH   2   4
HETATM    4  C   UNL     1      -9.822  13.204  66.594  1.00  0.00    -0.261 C  
HETATM    5  C   UNL     1      -8.401  12.604  66.447  1.00  0.00     0.326 C  
HETATM    6  C   UNL     1      -8.500  11.162  65.901  1.00  0.00    -0.105 C  
HETATM    7  O   UNL     1      -7.694  12.642  67.689  1.00  0.00    -0.130 OA 
HETATM    8  H   UNL     1      -6.822  12.275  67.598  1.00  0.00     0.000 HD 
HETATM    9  O   UNL     1     -10.053  13.976  64.264  1.00  0.00    -0.697 OA 
HETATM   10  O   UNL     1      -9.122  11.197  64.616  1.00  0.00    -0.168 OA 
HETATM   11  H   UNL     1     -10.525  13.901  63.443  1.00  0.00     0.000 HD 
HETATM   12  C   UNL     1     -10.487  11.642  64.685  1.00  0.00    -0.302 C  
HETATM   13  C   UNL     1     -12.085  13.427  65.398  1.00  0.00    -0.457 C  
HETATM   14  C   UNL     1     -10.600  13.079  65.242  1.00  0.00    -0.304 C  
BRANCH   6  15
HETATM   15  O   UNL     1      -9.226  10.326  66.805  1.00  0.00    -0.154 OA 
BRANCH  15  16
HETATM   16  C   UNL     1      -9.613  10.926  68.053  1.00  0.00    -0.162 C  
HETATM   17  H1  UNL     1     -10.858   8.475  71.565  1.00  0.00     0.000 HD 
HETATM   18  C   UNL     1     -11.135  10.905  68.321  1.00  0.00    -0.266 C  
HETATM   19  C   UNL     1      -8.857  10.158  69.171  1.00  0.00    -0.175 C  
HETATM   20  H2  UNL     1     -12.350   8.961  70.947  1.00  0.00     0.000 HD 
HETATM   21  C   UNL     1     -10.900   8.625  69.497  1.00  0.00    -0.129 C  
HETATM   22  C   UNL     1     -11.624   9.448  68.414  1.00  0.00     0.754 C  
HETATM   23  O   UNL     1      -8.970  10.870  70.423  1.00  0.00     0.611 OA 
HETATM   24  H   UNL     1      -8.508  10.399  71.107  1.00  0.00     0.000 HD 
HETATM   25  N   UNL     1     -11.337   9.020  70.848  1.00  0.00    -0.279 NA 
HETATM   26  C   UNL     1      -9.354   8.690  69.313  1.00  0.00    -0.153 C  
BRANCH  18  27
HETATM   27  N   UNL     1     -11.487  11.701  69.497  1.00  0.00    -0.299 N  
HETATM   28  H   UNL     1     -11.136  11.403  70.408  1.00  0.00     0.000 HD 
HETATM   29  C   UNL     1     -12.269  12.831  69.434  1.00  0.00    -0.077 C  
HETATM   30  O   UNL     1     -12.721  13.295  68.393  1.00  0.00     0.484 OA 
BRANCH  29  31
HETATM   31  C   UNL     1     -12.516  13.504  70.794  1.00  0.00    -0.353 C  
HETATM   32  H   UNL     1     -12.615  12.956  72.688  1.00  0.00     0.000 HD 
HETATM   33  O   UNL     1     -12.463  12.540  71.847  1.00  0.00     0.014 OA 
BRANCH  31  34
HETATM   34  C   UNL     1     -11.469  14.584  71.069  1.00  0.00    -0.140 C  
BRANCH  34  35
HETATM   35  C   UNL     1     -11.815  15.901  70.374  1.00  0.00    -0.338 C  
HETATM   36  H1  UNL     1     -10.872  17.643  69.845  1.00  0.00     0.000 HD 
HETATM   37  H2  UNL     1      -9.850  16.297  69.865  1.00  0.00     0.000 HD 
HETATM   38  N   UNL     1     -10.641  16.764  70.308  1.00  0.00     0.034 NA 
ENDBRANCH  34  35
ENDBRANCH  31  34
ENDBRANCH  29  31
ENDBRANCH  18  27
BRANCH  26  39
HETATM   39  O   UNL     1      -9.080   7.865  68.182  1.00  0.00    -0.134 OA 
BRANCH  39  40
HETATM   40  C   UNL     1      -8.226   6.730  68.357  1.00  0.00    -0.119 C  
HETATM   41  H1  UNL     1      -6.184   8.005  65.847  1.00  0.00     0.000 HD 
HETATM   42  O   UNL     1      -8.856   5.524  67.913  1.00  0.00    -0.107 OA 
HETATM   43  H2  UNL     1      -7.587   8.650  66.492  1.00  0.00     0.000 HD 
HETATM   44  N   UNL     1      -7.054   7.794  66.336  1.00  0.00    -0.069 NA 
HETATM   45  C   UNL     1      -6.891   7.054  67.607  1.00  0.00    -0.074 C  
HETATM   46  C   UNL     1      -8.018   4.421  67.922  1.00  0.00    -0.087 C  
HETATM   47  C   UNL     1      -5.999   5.813  67.456  1.00  0.00    -0.018 C  
HETATM   48  C   UNL     1      -6.694   4.522  67.725  1.00  0.00    -0.051 C  
BRANCH  46  49
HETATM   49  C   UNL     1      -8.704   3.089  68.122  1.00  0.00    -0.108 C  
BRANCH  49  50
HETATM   50  N   UNL     1      -7.768   1.981  68.336  1.00  0.00    -0.053 NA 
HETATM   51  H   UNL     1      -8.260   1.112  68.545  1.00  0.00     0.000 HD 
BRANCH  50  52
HETATM   52  C   UNL     1      -6.853   1.819  67.193  1.00  0.00    -0.039 C  
BRANCH  52  53
HETATM   53  C   UNL     1      -7.612   1.918  65.868  1.00  0.00    -0.070 C  
HETATM   54  O   UNL     1      -6.873   2.686  64.921  1.00  0.00    -0.041 OA 
HETATM   55  H   UNL     1      -7.345   2.748  64.099  1.00  0.00     0.000 HD 
ENDBRANCH  52  53
ENDBRANCH  50  52
ENDBRANCH  49  50
ENDBRANCH  46  49
ENDBRANCH  39  40
ENDBRANCH  26  39
ENDBRANCH  15  16
ENDBRANCH   6  15
ENDBRANCH   2   4
TORSDOF 13
ENDMDL
MODEL      211
REMARK 921   NORMALIZED FREE ENERGY PREDICTED BY IDOCK:    1.06 KCAL/MOL
REMARK 922        TOTAL FREE ENERGY PREDICTED BY IDOCK:   -1.60 KCAL/MOL
REMARK 923 INTER-LIGAND FREE ENERGY PREDICTED BY IDOCK:   -5.83 KCAL/MOL
REMARK 924 INTRA-LIGAND FREE ENERGY PREDICTED BY IDOCK:    4.23 KCAL/MOL
REMARK 927      BINDING AFFINITY PREDICTED BY RF-SCORE:    0.00 PKD
ROOT
HETATM    1  C   UNL     1     -11.214  16.291  70.649  1.00  0.00    -0.288 C  
HETATM    2  N   UNL     1     -10.105  15.386  70.935  1.00  0.00    -0.020 NA 
HETATM    3  H   UNL     1     -10.403  14.667  71.594  1.00  0.00     0.000 HD 
ENDROOT
BRANCH   2   4
HETATM    4  C   UNL     1      -9.466  14.753  69.743  1.00  0.00     0.281 C  
HETATM    5  C   UNL     1      -9.798  13.245  69.622  1.00  0.00     1.355 C  
HETATM    6  C   UNL     1      -9.252  12.697  68.285  1.00  0.00    -0.184 C  
HETATM    7  O   UNL     1     -11.204  13.015  69.743  1.00  0.00    -0.482 OA 
HETATM    8  H   UNL     1     -11.408  12.090  69.670  1.00  0.00     0.000 HD 
HETATM    9  O   UNL     1      -7.189  14.476  70.650  1.00  0.00    -0.223 OA 
HETATM   10  O   UNL     1      -7.833  12.861  68.264  1.00  0.00    -0.129 OA 
HETATM   11  H   UNL     1      -6.259  14.616  70.521  1.00  0.00     0.000 HD 
HETATM   12  C   UNL     1      -7.446  14.246  68.264  1.00  0.00    -0.125 C  
HETATM   13  C   UNL     1      -7.588  16.471  69.393  1.00  0.00    -0.061 C  
HETATM   14  C   UNL     1      -7.932  14.983  69.531  1.00  0.00    -0.135 C  
BRANCH   6  15
HETATM   15  O   UNL     1      -9.866  13.361  67.177  1.00  0.00    -0.228 OA 
BRANCH  15  16
HETATM   16  C   UNL     1      -9.858  14.798  67.214  1.00  0.00    -0.230 C  
HETATM   17  H1  UNL     1     -12.397  17.242  64.481  1.00  0.00     0.000 HD 
HETATM   18  C   UNL     1      -9.098  15.457  66.040  1.00  0.00    -0.249 C  
HETATM   19  C   UNL     1     -11.343  15.252  67.218  1.00  0.00    -0.269 C  
HETATM   20  H2  UNL     1     -10.898  17.323  63.711  1.00  0.00     0.000 HD 
HETATM   21  C   UNL     1     -11.270  15.510  64.657  1.00  0.00    -0.371 C  
HETATM   22  C   UNL     1      -9.786  15.100  64.712  1.00  0.00     0.382 C  
HETATM   23  O   UNL     1     -11.428  16.659  67.534  1.00  0.00     0.075 OA 
HETATM   24  H   UNL     1     -12.337  16.937  67.537  1.00  0.00     0.000 HD 
HETATM   25  N   UNL     1     -11.415  16.971  64.517  1.00  0.00    -0.846 NA 
HETATM   26  C   UNL     1     -12.058  14.935  65.873  1.00  0.00     0.020 C  
BRANCH  18  27
HETATM   27  N   UNL     1      -8.951  16.900  66.236  1.00  0.00    -0.278 N  
HETATM   28  H   UNL     1      -9.794  17.473  66.283  1.00  0.00     0.000 HD 
HETATM   29  C   UNL     1      -7.729  17.522  66.359  1.00  0.00    -0.297 C  
HETATM   30  O   UNL     1      -6.655  16.932  66.345  1.00  0.00    -0.214 OA 
BRANCH  29  31
HETATM   31  C   UNL     1      -7.814  19.045  66.550  1.00  0.00    -0.268 C  
HETATM   32  H   UNL     1      -6.781  20.452  67.473  1.00  0.00     0.000 HD 
HETATM   33  O   UNL     1      -6.729  19.510  67.354  1.00  0.00    -0.200 OA 
BRANCH  31  34
HETATM   34  C   UNL     1      -7.769  19.770  65.205  1.00  0.00     0.314 C  
BRANCH  34  35
HETATM   35  C   UNL     1      -6.361  20.264  64.872  1.00  0.00    -0.289 C  
HETATM   36  H1  UNL     1      -4.909  19.908  63.469  1.00  0.00     0.000 HD 
HETATM   37  H2  UNL     1      -6.480  19.669  62.896  1.00  0.00     0.000 HD 
HETATM   38  N   UNL     1      -5.848  19.579  63.691  1.00  0.00    -0.396 NA 
ENDBRANCH  34  35
ENDBRANCH  31  34
ENDBRANCH  29  31
ENDBRANCH  18  27
BRANCH  26  39
HETATM   39  O   UNL     1     -12.199  13.542  65.598  1.00  0.00    -0.401 OA 
BRANCH  39  40
HETATM   40  C   UNL     1     -11.224  12.910  64.764  1.00  0.00    -0.306 C  
HETATM   41  H1  UNL     1     -13.833  11.607  62.870  1.00  0.00     0.000 HD 
HETATM   42  O   UNL     1     -10.544  11.856  65.454  1.00  0.00    -0.253 OA 
HETATM   43  H2  UNL     1     -13.902  12.611  64.207  1.00  0.00     0.000 HD 
HETATM   44  N   UNL     1     -13.343  11.918  63.709  1.00  0.00    -0.469 NA 
HETATM   45  C   UNL     1     -11.976  12.433  63.476  1.00  0.00    -0.538 C  
HETATM   46  C   UNL     1      -9.697  11.116  64.646  1.00  0.00    -0.262 C  
HETATM   47  C   UNL     1     -11.122  11.479  62.629  1.00  0.00     0.804 C  
HETATM   48  C   UNL     1      -9.929  10.931  63.337  1.00  0.00    -0.414 C  
BRANCH  46  49
HETATM   49  C   UNL     1      -8.515  10.488  65.350  1.00  0.00    -0.170 C  
BRANCH  49  50
HETATM   50  N   UNL     1      -7.371  10.251  64.465  1.00  0.00    -0.257 NA 
HETATM   51  H   UNL     1      -6.637  10.944  64.610  1.00  0.00     0.000 HD 
BRANCH  50  52
HETATM   52  C   UNL     1      -6.852   8.879  64.611  1.00  0.00    -0.080 C  
BRANCH  52  53
HETATM   53  C   UNL     1      -6.482   8.588  66.067  1.00  0.00    -0.053 C  
HETATM   54  O   UNL     1      -7.200   7.456  66.551  1.00  0.00    -0.075 OA 
HETATM   55  H   UNL     1      -6.971   7.275  67.455  1.00  0.00     0.000 HD 
ENDBRANCH  52  53
ENDBRANCH  50  52
ENDBRANCH  49  50
ENDBRANCH  46  49
ENDBRANCH  39  40
ENDBRANCH  26  39
ENDBRANCH  15  16
ENDBRANCH   6  15
ENDBRANCH   2   4
TORSDOF 13
ENDMDL
MODEL      212
REMARK 921   NORMALIZED FREE ENERGY PREDICTED BY IDOCK:    1.08 KCAL/MOL
REMARK 922        TOTAL FREE ENERGY PREDICTED BY IDOCK:   -1.56 KCAL/MOL
REMARK 923 INTER-LIGAND FREE ENERGY PREDICTED BY IDOCK:   -4.37 KCAL/MOL
REMARK 924 INTRA-LIGAND FREE ENERGY PREDICTED BY IDOCK:    2.81 KCAL/MOL
REMARK 927      BINDING AFFINITY PREDICTED BY RF-SCORE:    0.00 PKD
ROOT
HETATM    1  C   UNL     1     -10.152   6.540  71.066  1.00  0.00    -0.184 C  
HETATM    2  N   UNL     1     -10.969   7.288  70.116  1.00  0.00    -0.256 NA 
HETATM    3  H   UNL     1     -11.837   7.587  70.561  1.00  0.00     0.000 HD 
ENDROOT
BRANCH   2   4
HETATM    4  C   UNL     1     -10.299   8.456  69.469  1.00  0.00    -0.219 C  
HETATM    5  C   UNL     1      -8.765   8.456  69.686  1.00  0.00    -0.133 C  
HETATM    6  C   UNL     1      -8.121   9.586  68.852  1.00  0.00    -0.096 C  
HETATM    7  O   UNL     1      -8.199   7.183  69.364  1.00  0.00    -0.128 OA 
HETATM    8  H   UNL     1      -7.258   7.183  69.498  1.00  0.00     0.000 HD 
HETATM    9  O   UNL     1     -10.831  10.170  71.161  1.00  0.00    -0.278 OA 
HETATM   10  O   UNL     1      -8.650  10.839  69.287  1.00  0.00    -0.129 OA 
HETATM   11  H   UNL     1     -11.184  11.034  71.335  1.00  0.00     0.000 HD 
HETATM   12  C   UNL     1     -10.057  10.959  69.018  1.00  0.00    -0.196 C  
HETATM   13  C   UNL     1     -12.346  10.002  69.318  1.00  0.00     0.690 C  
HETATM   14  C   UNL     1     -10.881   9.881  69.755  1.00  0.00    -0.269 C  
BRANCH   6  15
HETATM   15  O   UNL     1      -8.355   9.381  67.457  1.00  0.00    -0.120 OA 
BRANCH  15  16
HETATM   16  C   UNL     1      -8.069   8.066  66.951  1.00  0.00    -0.108 C  
HETATM   17  H1  UNL     1      -7.420   7.301  62.605  1.00  0.00     0.000 HD 
HETATM   18  C   UNL     1      -9.257   7.393  66.227  1.00  0.00    -0.135 C  
HETATM   19  C   UNL     1      -6.861   8.215  65.984  1.00  0.00    -0.057 C  
HETATM   20  H2  UNL     1      -9.019   6.801  62.800  1.00  0.00     0.000 HD 
HETATM   21  C   UNL     1      -8.482   8.416  63.993  1.00  0.00     0.012 C  
HETATM   22  C   UNL     1      -9.643   8.218  64.987  1.00  0.00     1.076 C  
HETATM   23  O   UNL     1      -6.334   6.912  65.650  1.00  0.00    -0.041 OA 
HETATM   24  H   UNL     1      -5.596   7.003  65.058  1.00  0.00     0.000 HD 
HETATM   25  N   UNL     1      -8.188   7.170  63.263  1.00  0.00     0.007 NA 
HETATM   26  C   UNL     1      -7.231   9.016  64.703  1.00  0.00    -0.097 C  
BRANCH  18  27
HETATM   27  N   UNL     1      -8.973   5.992  65.914  1.00  0.00    -0.204 N  
HETATM   28  H   UNL     1      -8.353   5.785  65.131  1.00  0.00     0.000 HD 
HETATM   29  C   UNL     1      -9.504   4.939  66.624  1.00  0.00    -0.150 C  
HETATM   30  O   UNL     1     -10.237   5.070  67.599  1.00  0.00    -0.163 OA 
BRANCH  29  31
HETATM   31  C   UNL     1      -9.075   3.554  66.114  1.00  0.00    -0.157 C  
HETATM   32  H   UNL     1      -8.062   2.819  64.588  1.00  0.00     0.000 HD 
HETATM   33  O   UNL     1      -8.328   3.675  64.903  1.00  0.00    -0.096 OA 
BRANCH  31  34
HETATM   34  C   UNL     1      -8.212   2.832  67.149  1.00  0.00    -0.081 C  
BRANCH  34  35
HETATM   35  C   UNL     1      -7.641   1.525  66.601  1.00  0.00    -0.060 C  
HETATM   36  H1  UNL     1      -7.097   0.736  64.788  1.00  0.00     0.000 HD 
HETATM   37  H2  UNL     1      -6.913   2.413  64.882  1.00  0.00     0.000 HD 
HETATM   38  N   UNL     1      -7.477   1.608  65.155  1.00  0.00    -0.057 NA 
ENDBRANCH  34  35
ENDBRANCH  31  34
ENDBRANCH  29  31
ENDBRANCH  18  27
BRANCH  26  39
HETATM   39  O   UNL     1      -7.560  10.384  64.940  1.00  0.00    -0.140 OA 
BRANCH  39  40
HETATM   40  C   UNL     1      -8.925  10.790  64.804  1.00  0.00    -0.178 C  
HETATM   41  H1  UNL     1      -8.201  11.778  61.549  1.00  0.00     0.000 HD 
HETATM   42  O   UNL     1      -9.216  11.935  65.611  1.00  0.00    -0.173 OA 
HETATM   43  H2  UNL     1      -7.193  11.076  62.685  1.00  0.00     0.000 HD 
HETATM   44  N   UNL     1      -8.039  11.628  62.545  1.00  0.00     0.086 NA 
HETATM   45  C   UNL     1      -9.173  11.021  63.275  1.00  0.00    -0.275 C  
HETATM   46  C   UNL     1     -10.482  12.458  65.401  1.00  0.00    -0.277 C  
HETATM   47  C   UNL     1     -10.501  11.745  63.009  1.00  0.00    -0.223 C  
HETATM   48  C   UNL     1     -11.106  12.378  64.216  1.00  0.00    -0.399 C  
BRANCH  46  49
HETATM   49  C   UNL     1     -11.093  13.170  66.587  1.00  0.00    -0.292 C  
BRANCH  49  50
HETATM   50  N   UNL     1     -10.114  13.908  67.389  1.00  0.00    -0.242 NA 
HETATM   51  H   UNL     1      -9.159  13.640  67.151  1.00  0.00     0.000 HD 
BRANCH  50  52
HETATM   52  C   UNL     1     -10.310  15.364  67.275  1.00  0.00    -0.271 C  
BRANCH  52  53
HETATM   53  C   UNL     1     -11.671  15.777  67.841  1.00  0.00    -0.043 C  
HETATM   54  O   UNL     1     -11.824  15.305  69.177  1.00  0.00    -0.316 OA 
HETATM   55  H   UNL     1     -12.669  15.561  69.528  1.00  0.00     0.000 HD 
ENDBRANCH  52  53
ENDBRANCH  50  52
ENDBRANCH  49  50
ENDBRANCH  46  49
ENDBRANCH  39  40
ENDBRANCH  26  39
ENDBRANCH  15  16
ENDBRANCH   6  15
ENDBRANCH   2   4
TORSDOF 13
ENDMDL
MODEL      213
REMARK 921   NORMALIZED FREE ENERGY PREDICTED BY IDOCK:    1.25 KCAL/MOL
REMARK 922        TOTAL FREE ENERGY PREDICTED BY IDOCK:   -1.25 KCAL/MOL
REMARK 923 INTER-LIGAND FREE ENERGY PREDICTED BY IDOCK:   -1.72 KCAL/MOL
REMARK 924 INTRA-LIGAND FREE ENERGY PREDICTED BY IDOCK:    0.47 KCAL/MOL
REMARK 927      BINDING AFFINITY PREDICTED BY RF-SCORE:    0.00 PKD
ROOT
HETATM    1  C   UNL     1     -11.532  13.800  67.000  1.00  0.00    -0.346 C  
HETATM    2  N   UNL     1     -10.181  13.331  66.710  1.00  0.00    -0.250 NA 
HETATM    3  H   UNL     1      -9.524  13.716  67.390  1.00  0.00     0.000 HD 
ENDROOT
BRANCH   2   4
HETATM    4  C   UNL     1     -10.017  11.849  66.626  1.00  0.00    -0.199 C  
HETATM    5  C   UNL     1      -8.883  11.431  65.656  1.00  0.00    -0.076 C  
HETATM    6  C   UNL     1      -8.655   9.906  65.749  1.00  0.00    -0.139 C  
HETATM    7  O   UNL     1      -7.680  12.155  65.928  1.00  0.00     0.138 OA 
HETATM    8  H   UNL     1      -6.985  11.899  65.333  1.00  0.00     0.000 HD 
HETATM    9  O   UNL     1     -11.894  11.356  65.105  1.00  0.00     0.028 OA 
HETATM   10  O   UNL     1      -9.857   9.235  65.370  1.00  0.00    -0.222 OA 
HETATM   11  H   UNL     1     -12.671  10.834  64.942  1.00  0.00     0.000 HD 
HETATM   12  C   UNL     1     -10.933   9.488  66.289  1.00  0.00     0.649 C  
HETATM   13  C   UNL     1     -12.360  11.184  67.444  1.00  0.00     1.764 C  
HETATM   14  C   UNL     1     -11.296  10.988  66.358  1.00  0.00     0.175 C  
BRANCH   6  15
HETATM   15  O   UNL     1      -8.248   9.533  67.068  1.00  0.00    -0.112 OA 
BRANCH  15  16
HETATM   16  C   UNL     1      -7.420  10.478  67.768  1.00  0.00    -0.087 C  
HETATM   17  H1  UNL     1      -5.486   9.489  71.663  1.00  0.00     0.000 HD 
HETATM   18  C   UNL     1      -8.092  11.116  69.005  1.00  0.00    -0.076 C  
HETATM   19  C   UNL     1      -6.131   9.717  68.185  1.00  0.00    -0.050 C  
HETATM   20  H2  UNL     1      -6.819  10.390  72.168  1.00  0.00     0.000 HD 
HETATM   21  C   UNL     1      -7.172   9.219  70.487  1.00  0.00    -0.110 C  
HETATM   22  C   UNL     1      -8.409  10.024  70.042  1.00  0.00    -0.137 C  
HETATM   23  O   UNL     1      -5.131  10.654  68.643  1.00  0.00    -0.042 OA 
HETATM   24  H   UNL     1      -4.343  10.188  68.898  1.00  0.00     0.000 HD 
HETATM   25  N   UNL     1      -6.304  10.021  71.368  1.00  0.00    -0.316 NA 
HETATM   26  C   UNL     1      -6.415   8.628  69.259  1.00  0.00    -0.042 C  
BRANCH  18  27
HETATM   27  N   UNL     1      -7.286  12.207  69.554  1.00  0.00    -0.327 N  
HETATM   28  H   UNL     1      -6.374  11.984  69.954  1.00  0.00     0.000 HD 
HETATM   29  C   UNL     1      -7.698  13.520  69.557  1.00  0.00     0.636 C  
HETATM   30  O   UNL     1      -8.759  13.906  69.078  1.00  0.00     0.033 OA 
BRANCH  29  31
HETATM   31  C   UNL     1      -6.693  14.495  70.191  1.00  0.00    -0.089 C  
HETATM   32  H   UNL     1      -5.054  14.383  71.283  1.00  0.00     0.000 HD 
HETATM   33  O   UNL     1      -5.675  13.780  70.892  1.00  0.00    -0.177 OA 
BRANCH  31  34
HETATM   34  C   UNL     1      -6.031  15.368  69.125  1.00  0.00    -0.106 C  
BRANCH  34  35
HETATM   35  C   UNL     1      -6.209  16.858  69.419  1.00  0.00    -0.226 C  
HETATM   36  H1  UNL     1      -5.276  18.323  70.507  1.00  0.00     0.000 HD 
HETATM   37  H2  UNL     1      -4.228  17.124  69.945  1.00  0.00     0.000 HD 
HETATM   38  N   UNL     1      -5.157  17.330  70.311  1.00  0.00    -0.201 NA 
ENDBRANCH  34  35
ENDBRANCH  31  34
ENDBRANCH  29  31
ENDBRANCH  18  27
BRANCH  26  39
HETATM   39  O   UNL     1      -7.232   7.552  68.803  1.00  0.00    -0.078 OA 
BRANCH  39  40
HETATM   40  C   UNL     1      -7.185   6.312  69.515  1.00  0.00    -0.078 C  
HETATM   41  H1  UNL     1      -6.576   4.712  66.488  1.00  0.00     0.000 HD 
HETATM   42  O   UNL     1      -8.473   5.942  70.015  1.00  0.00    -0.122 OA 
HETATM   43  H2  UNL     1      -6.785   6.344  66.793  1.00  0.00     0.000 HD 
HETATM   44  N   UNL     1      -6.980   5.399  67.124  1.00  0.00    -0.064 NA 
HETATM   45  C   UNL     1      -6.565   5.257  68.538  1.00  0.00    -0.045 C  
HETATM   46  C   UNL     1      -8.511   4.678  70.582  1.00  0.00    -0.095 C  
HETATM   47  C   UNL     1      -6.728   3.822  69.058  1.00  0.00    -0.045 C  
HETATM   48  C   UNL     1      -7.712   3.682  70.170  1.00  0.00    -0.047 C  
BRANCH  46  49
HETATM   49  C   UNL     1      -9.548   4.484  71.665  1.00  0.00    -0.159 C  
BRANCH  49  50
HETATM   50  N   UNL     1      -9.207   5.156  72.922  1.00  0.00    -0.134 NA 
HETATM   51  H   UNL     1      -8.251   4.946  73.210  1.00  0.00     0.000 HD 
BRANCH  50  52
HETATM   52  C   UNL     1      -9.437   6.609  72.837  1.00  0.00    -0.138 C  
BRANCH  52  53
HETATM   53  C   UNL     1     -10.647   7.019  73.681  1.00  0.00    -0.345 C  
HETATM   54  O   UNL     1     -11.858   6.804  72.961  1.00  0.00    -0.469 OA 
HETATM   55  H   UNL     1     -12.609   7.060  73.484  1.00  0.00     0.000 HD 
ENDBRANCH  52  53
ENDBRANCH  50  52
ENDBRANCH  49  50
ENDBRANCH  46  49
ENDBRANCH  39  40
ENDBRANCH  26  39
ENDBRANCH  15  16
ENDBRANCH   6  15
ENDBRANCH   2   4
TORSDOF 13
ENDMDL
MODEL      214
REMARK 921   NORMALIZED FREE ENERGY PREDICTED BY IDOCK:    1.29 KCAL/MOL
REMARK 922        TOTAL FREE ENERGY PREDICTED BY IDOCK:   -1.19 KCAL/MOL
REMARK 923 INTER-LIGAND FREE ENERGY PREDICTED BY IDOCK:   -3.01 KCAL/MOL
REMARK 924 INTRA-LIGAND FREE ENERGY PREDICTED BY IDOCK:    1.82 KCAL/MOL
REMARK 927      BINDING AFFINITY PREDICTED BY RF-SCORE:    0.00 PKD
ROOT
HETATM    1  C   UNL     1     -10.598  18.997  66.304  1.00  0.00    -0.412 C  
HETATM    2  N   UNL     1      -9.703  19.144  67.448  1.00  0.00    -0.312 NA 
HETATM    3  H   UNL     1     -10.241  19.149  68.314  1.00  0.00     0.000 HD 
ENDROOT
BRANCH   2   4
HETATM    4  C   UNL     1      -8.601  18.139  67.537  1.00  0.00    -0.249 C  
HETATM    5  C   UNL     1      -8.834  17.102  68.665  1.00  0.00    -0.266 C  
HETATM    6  C   UNL     1      -7.753  16.000  68.590  1.00  0.00    -0.176 C  
HETATM    7  O   UNL     1     -10.149  16.547  68.592  1.00  0.00    -0.230 OA 
HETATM    8  H   UNL     1     -10.292  15.912  69.285  1.00  0.00     0.000 HD 
HETATM    9  O   UNL     1      -6.946  19.513  68.744  1.00  0.00    -0.306 OA 
HETATM   10  O   UNL     1      -6.469  16.599  68.770  1.00  0.00    -0.145 OA 
HETATM   11  H   UNL     1      -6.054  19.837  68.778  1.00  0.00     0.000 HD 
HETATM   12  C   UNL     1      -6.134  17.498  67.699  1.00  0.00    -0.152 C  
HETATM   13  C   UNL     1      -6.774  19.507  66.359  1.00  0.00    -0.201 C  
HETATM   14  C   UNL     1      -7.131  18.672  67.594  1.00  0.00    -0.211 C  
BRANCH   6  15
HETATM   15  O   UNL     1      -7.829  15.301  67.345  1.00  0.00    -0.160 OA 
BRANCH  15  16
HETATM   16  C   UNL     1      -9.149  14.981  66.875  1.00  0.00    -0.247 C  
HETATM   17  H1  UNL     1     -10.901  10.908  67.363  1.00  0.00     0.000 HD 
HETATM   18  C   UNL     1      -9.174  14.128  65.587  1.00  0.00     0.398 C  
HETATM   19  C   UNL     1      -9.863  14.231  68.034  1.00  0.00    -0.224 C  
HETATM   20  H2  UNL     1     -10.396  10.868  65.754  1.00  0.00     0.000 HD 
HETATM   21  C   UNL     1      -9.161  11.977  67.004  1.00  0.00    -0.191 C  
HETATM   22  C   UNL     1      -8.508  12.767  65.854  1.00  0.00     1.012 C  
HETATM   23  O   UNL     1     -11.276  14.119  67.753  1.00  0.00    -0.268 OA 
HETATM   24  H   UNL     1     -11.713  13.660  68.461  1.00  0.00     0.000 HD 
HETATM   25  N   UNL     1     -10.470  11.431  66.601  1.00  0.00    -0.234 NA 
HETATM   26  C   UNL     1      -9.233  12.834  68.304  1.00  0.00    -0.186 C  
BRANCH  18  27
HETATM   27  N   UNL     1     -10.530  14.004  65.049  1.00  0.00    -0.398 N  
HETATM   28  H   UNL     1     -11.253  14.630  65.403  1.00  0.00     0.000 HD 
HETATM   29  C   UNL     1     -10.876  13.082  64.087  1.00  0.00    -0.405 C  
HETATM   30  O   UNL     1     -10.085  12.300  63.570  1.00  0.00    -0.416 OA 
BRANCH  29  31
HETATM   31  C   UNL     1     -12.356  13.126  63.676  1.00  0.00    -0.404 C  
HETATM   32  H   UNL     1     -13.679  11.897  62.879  1.00  0.00     0.000 HD 
HETATM   33  O   UNL     1     -12.764  11.869  63.133  1.00  0.00    -0.595 OA 
BRANCH  31  34
HETATM   34  C   UNL     1     -13.248  13.452  64.873  1.00  0.00     0.233 C  
BRANCH  34  35
HETATM   35  C   UNL     1     -13.499  14.954  65.004  1.00  0.00     1.442 C  
HETATM   36  H1  UNL     1     -13.279  16.644  63.865  1.00  0.00     0.000 HD 
HETATM   37  H2  UNL     1     -13.576  15.250  62.959  1.00  0.00     0.000 HD 
HETATM   38  N   UNL     1     -13.112  15.642  63.778  1.00  0.00     0.091 NA 
ENDBRANCH  34  35
ENDBRANCH  31  34
ENDBRANCH  29  31
ENDBRANCH  18  27
BRANCH  26  39
HETATM   39  O   UNL     1      -7.894  12.879  68.793  1.00  0.00    -0.076 OA 
BRANCH  39  40
HETATM   40  C   UNL     1      -7.547  12.052  69.907  1.00  0.00     1.335 C  
HETATM   41  H1  UNL     1      -4.199  12.623  69.162  1.00  0.00     0.000 HD 
HETATM   42  O   UNL     1      -7.876  10.680  69.668  1.00  0.00    -0.133 OA 
HETATM   43  H2  UNL     1      -5.564  13.216  68.397  1.00  0.00     0.000 HD 
HETATM   44  N   UNL     1      -5.190  12.467  68.979  1.00  0.00    -0.055 NA 
HETATM   45  C   UNL     1      -6.026  12.292  70.188  1.00  0.00    -0.148 C  
HETATM   46  C   UNL     1      -7.425   9.817  70.653  1.00  0.00    -0.025 C  
HETATM   47  C   UNL     1      -5.447  11.253  71.159  1.00  0.00    -0.018 C  
HETATM   48  C   UNL     1      -6.314  10.057  71.366  1.00  0.00     0.258 C  
BRANCH  46  49
HETATM   49  C   UNL     1      -8.244   8.560  70.838  1.00  0.00    -0.133 C  
BRANCH  49  50
HETATM   50  N   UNL     1      -9.280   8.688  71.867  1.00  0.00    -0.260 NA 
HETATM   51  H   UNL     1     -10.193   8.877  71.455  1.00  0.00     0.000 HD 
BRANCH  50  52
HETATM   52  C   UNL     1      -9.318   7.504  72.744  1.00  0.00    -0.167 C  
BRANCH  52  53
HETATM   53  C   UNL     1     -10.481   6.583  72.366  1.00  0.00    -0.205 C  
HETATM   54  O   UNL     1      -9.999   5.394  71.745  1.00  0.00    -0.172 OA 
HETATM   55  H   UNL     1     -10.721   4.823  71.511  1.00  0.00     0.000 HD 
ENDBRANCH  52  53
ENDBRANCH  50  52
ENDBRANCH  49  50
ENDBRANCH  46  49
ENDBRANCH  39  40
ENDBRANCH  26  39
ENDBRANCH  15  16
ENDBRANCH   6  15
ENDBRANCH   2   4
TORSDOF 13
ENDMDL
MODEL      215
REMARK 921   NORMALIZED FREE ENERGY PREDICTED BY IDOCK:    1.41 KCAL/MOL
REMARK 922        TOTAL FREE ENERGY PREDICTED BY IDOCK:   -0.97 KCAL/MOL
REMARK 923 INTER-LIGAND FREE ENERGY PREDICTED BY IDOCK:   -4.91 KCAL/MOL
REMARK 924 INTRA-LIGAND FREE ENERGY PREDICTED BY IDOCK:    3.93 KCAL/MOL
REMARK 927      BINDING AFFINITY PREDICTED BY RF-SCORE:    0.00 PKD
ROOT
HETATM    1  C   UNL     1     -14.013   9.811  70.606  1.00  0.00     0.568 C  
HETATM    2  N   UNL     1     -12.654   9.755  71.134  1.00  0.00    -0.332 NA 
HETATM    3  H   UNL     1     -12.585   9.025  71.844  1.00  0.00     0.000 HD 
ENDROOT
BRANCH   2   4
HETATM    4  C   UNL     1     -11.574   9.581  70.117  1.00  0.00    -0.111 C  
HETATM    5  C   UNL     1     -11.947  10.196  68.744  1.00  0.00     0.494 C  
HETATM    6  C   UNL     1     -10.727  10.134  67.798  1.00  0.00    -0.277 C  
HETATM    7  O   UNL     1     -12.424  11.535  68.892  1.00  0.00    -0.331 OA 
HETATM    8  H   UNL     1     -12.654  11.912  68.050  1.00  0.00     0.000 HD 
HETATM    9  O   UNL     1     -12.013   7.231  69.511  1.00  0.00    -0.242 OA 
HETATM   10  O   UNL     1     -10.359   8.767  67.608  1.00  0.00    -0.226 OA 
HETATM   11  H   UNL     1     -11.655   6.360  69.391  1.00  0.00     0.000 HD 
HETATM   12  C   UNL     1      -9.895   8.156  68.824  1.00  0.00    -0.176 C  
HETATM   13  C   UNL     1     -10.371   7.592  71.211  1.00  0.00    -0.215 C  
HETATM   14  C   UNL     1     -10.983   8.145  69.919  1.00  0.00    -0.168 C  
BRANCH   6  15
HETATM   15  O   UNL     1      -9.638  10.895  68.326  1.00  0.00    -0.155 OA 
BRANCH  15  16
HETATM   16  C   UNL     1      -8.425  10.169  68.590  1.00  0.00    -0.122 C  
HETATM   17  H1  UNL     1      -4.660  10.968  66.338  1.00  0.00     0.000 HD 
HETATM   18  C   UNL     1      -8.074   9.111  67.519  1.00  0.00    -0.104 C  
HETATM   19  C   UNL     1      -7.290  11.224  68.700  1.00  0.00    -0.109 C  
HETATM   20  H2  UNL     1      -5.233   9.588  65.557  1.00  0.00     0.000 HD 
HETATM   21  C   UNL     1      -6.727  10.876  66.211  1.00  0.00    -0.124 C  
HETATM   22  C   UNL     1      -7.833   9.804  66.167  1.00  0.00    -0.107 C  
HETATM   23  O   UNL     1      -6.097  10.611  69.237  1.00  0.00    -0.041 OA 
HETATM   24  H   UNL     1      -5.402  11.257  69.304  1.00  0.00     0.000 HD 
HETATM   25  N   UNL     1      -5.391  10.259  66.308  1.00  0.00    -0.049 NA 
HETATM   26  C   UNL     1      -7.000  11.918  67.338  1.00  0.00    -0.128 C  
BRANCH  18  27
HETATM   27  N   UNL     1      -6.950   8.273  67.938  1.00  0.00    -0.076 N  
HETATM   28  H   UNL     1      -6.389   8.575  68.735  1.00  0.00     0.000 HD 
HETATM   29  C   UNL     1      -6.613   7.096  67.309  1.00  0.00    -0.059 C  
HETATM   30  O   UNL     1      -7.233   6.624  66.362  1.00  0.00    -0.069 OA 
BRANCH  29  31
HETATM   31  C   UNL     1      -5.393   6.384  67.915  1.00  0.00    -0.004 C  
HETATM   32  H   UNL     1      -4.699   5.971  69.715  1.00  0.00     0.000 HD 
HETATM   33  O   UNL     1      -5.454   6.411  69.341  1.00  0.00    -0.012 OA 
BRANCH  31  34
HETATM   34  C   UNL     1      -5.326   4.927  67.457  1.00  0.00    -0.012 C  
BRANCH  34  35
HETATM   35  C   UNL     1      -6.572   4.143  67.872  1.00  0.00    -0.042 C  
HETATM   36  H1  UNL     1      -7.649   2.527  67.215  1.00  0.00     0.000 HD 
HETATM   37  H2  UNL     1      -6.004   2.444  66.841  1.00  0.00     0.000 HD 
HETATM   38  N   UNL     1      -6.818   3.050  66.939  1.00  0.00    -0.048 NA 
ENDBRANCH  34  35
ENDBRANCH  31  34
ENDBRANCH  29  31
ENDBRANCH  18  27
BRANCH  26  39
HETATM   39  O   UNL     1      -8.072  12.721  66.848  1.00  0.00    -0.112 OA 
BRANCH  39  40
HETATM   40  C   UNL     1      -8.238  14.037  67.384  1.00  0.00    -0.190 C  
HETATM   41  H1  UNL     1     -10.912  14.480  65.205  1.00  0.00     0.000 HD 
HETATM   42  O   UNL     1      -7.155  14.897  67.015  1.00  0.00    -0.167 OA 
HETATM   43  H2  UNL     1      -9.938  13.136  65.418  1.00  0.00     0.000 HD 
HETATM   44  N   UNL     1     -10.000  14.149  65.521  1.00  0.00    -0.319 NA 
HETATM   45  C   UNL     1      -9.637  14.546  66.900  1.00  0.00    -0.250 C  
HETATM   46  C   UNL     1      -7.343  16.220  67.383  1.00  0.00    -0.163 C  
HETATM   47  C   UNL     1      -9.822  16.049  67.148  1.00  0.00    -0.236 C  
HETATM   48  C   UNL     1      -8.560  16.778  67.464  1.00  0.00    -0.203 C  
BRANCH  46  49
HETATM   49  C   UNL     1      -6.077  17.005  67.642  1.00  0.00    -0.140 C  
BRANCH  49  50
HETATM   50  N   UNL     1      -6.285  18.176  68.499  1.00  0.00    -0.194 NA 
HETATM   51  H   UNL     1      -5.499  18.318  69.133  1.00  0.00     0.000 HD 
BRANCH  50  52
HETATM   52  C   UNL     1      -6.561  19.385  67.704  1.00  0.00    -0.217 C  
BRANCH  52  53
HETATM   53  C   UNL     1      -5.886  19.302  66.333  1.00  0.00    -0.164 C  
HETATM   54  O   UNL     1      -6.769  19.756  65.310  1.00  0.00    -0.275 OA 
HETATM   55  H   UNL     1      -6.350  19.704  64.458  1.00  0.00     0.000 HD 
ENDBRANCH  52  53
ENDBRANCH  50  52
ENDBRANCH  49  50
ENDBRANCH  46  49
ENDBRANCH  39  40
ENDBRANCH  26  39
ENDBRANCH  15  16
ENDBRANCH   6  15
ENDBRANCH   2   4
TORSDOF 13
ENDMDL
MODEL      216
REMARK 921   NORMALIZED FREE ENERGY PREDICTED BY IDOCK:    1.62 KCAL/MOL
REMARK 922        TOTAL FREE ENERGY PREDICTED BY IDOCK:   -0.61 KCAL/MOL
REMARK 923 INTER-LIGAND FREE ENERGY PREDICTED BY IDOCK:   -1.34 KCAL/MOL
REMARK 924 INTRA-LIGAND FREE ENERGY PREDICTED BY IDOCK:    0.73 KCAL/MOL
REMARK 927      BINDING AFFINITY PREDICTED BY RF-SCORE:    0.00 PKD
ROOT
HETATM    1  C   UNL     1      -8.036   3.246  70.416  1.00  0.00    -0.045 C  
HETATM    2  N   UNL     1      -9.435   3.544  70.124  1.00  0.00    -0.179 NA 
HETATM    3  H   UNL     1      -9.965   3.616  70.992  1.00  0.00     0.000 HD 
ENDROOT
BRANCH   2   4
HETATM    4  C   UNL     1      -9.674   4.753  69.279  1.00  0.00    -0.196 C  
HETATM    5  C   UNL     1     -11.131   5.271  69.383  1.00  0.00     0.698 C  
HETATM    6  C   UNL     1     -11.260   6.612  68.627  1.00  0.00    -0.157 C  
HETATM    7  O   UNL     1     -11.535   5.402  70.748  1.00  0.00     0.213 OA 
HETATM    8  H   UNL     1     -12.428   5.719  70.811  1.00  0.00     0.000 HD 
HETATM    9  O   UNL     1      -9.920   3.633  67.095  1.00  0.00    -0.301 OA 
HETATM   10  O   UNL     1     -10.943   6.398  67.250  1.00  0.00    -0.342 OA 
HETATM   11  H   UNL     1      -9.652   3.596  66.185  1.00  0.00     0.000 HD 
HETATM   12  C   UNL     1      -9.569   6.018  67.063  1.00  0.00    -0.133 C  
HETATM   13  C   UNL     1      -7.729   4.426  67.632  1.00  0.00    -0.084 C  
HETATM   14  C   UNL     1      -9.232   4.692  67.779  1.00  0.00    -0.126 C  
BRANCH   6  15
HETATM   15  O   UNL     1     -10.411   7.605  69.206  1.00  0.00    -0.209 OA 
BRANCH  15  16
HETATM   16  C   UNL     1     -10.199   8.793  68.425  1.00  0.00    -0.196 C  
HETATM   17  H1  UNL     1     -10.539  12.872  70.196  1.00  0.00     0.000 HD 
HETATM   18  C   UNL     1     -11.495   9.552  68.060  1.00  0.00     0.638 C  
HETATM   19  C   UNL     1      -9.253   9.707  69.252  1.00  0.00    -0.183 C  
HETATM   20  H2  UNL     1     -12.030  12.715  69.423  1.00  0.00     0.000 HD 
HETATM   21  C   UNL     1     -11.295  10.941  70.220  1.00  0.00    -0.256 C  
HETATM   22  C   UNL     1     -12.187  10.041  69.344  1.00  0.00     0.380 C  
HETATM   23  O   UNL     1      -8.767  10.790  68.428  1.00  0.00    -0.129 OA 
HETATM   24  H   UNL     1      -8.189  11.349  68.934  1.00  0.00     0.000 HD 
HETATM   25  N   UNL     1     -11.129  12.276  69.616  1.00  0.00    -0.041 NA 
HETATM   26  C   UNL     1      -9.938  10.246  70.541  1.00  0.00     0.386 C  
BRANCH  18  27
HETATM   27  N   UNL     1     -11.238  10.630  67.104  1.00  0.00    -0.197 N  
HETATM   28  H   UNL     1     -11.515  11.579  67.356  1.00  0.00     0.000 HD 
HETATM   29  C   UNL     1     -10.641  10.425  65.881  1.00  0.00    -0.044 C  
HETATM   30  O   UNL     1     -10.243   9.334  65.487  1.00  0.00    -0.026 OA 
BRANCH  29  31
HETATM   31  C   UNL     1     -10.476  11.700  65.039  1.00  0.00    -0.285 C  
HETATM   32  H   UNL     1     -10.807  12.261  63.175  1.00  0.00     0.000 HD 
HETATM   33  O   UNL     1     -10.909  11.473  63.696  1.00  0.00    -0.374 OA 
BRANCH  31  34
HETATM   34  C   UNL     1     -11.292  12.853  65.625  1.00  0.00    -0.344 C  
BRANCH  34  35
HETATM   35  C   UNL     1     -12.626  13.031  64.900  1.00  0.00    -0.428 C  
HETATM   36  H1  UNL     1     -13.391  14.144  63.358  1.00  0.00     0.000 HD 
HETATM   37  H2  UNL     1     -11.746  13.798  63.195  1.00  0.00     0.000 HD 
HETATM   38  N   UNL     1     -12.501  14.025  63.841  1.00  0.00    -0.756 NA 
ENDBRANCH  34  35
ENDBRANCH  31  34
ENDBRANCH  29  31
ENDBRANCH  18  27
BRANCH  26  39
HETATM   39  O   UNL     1     -10.255   9.241  71.502  1.00  0.00    -0.330 OA 
BRANCH  39  40
HETATM   40  C   UNL     1      -9.247   8.285  71.847  1.00  0.00    -0.208 C  
HETATM   41  H1  UNL     1     -10.704   8.034  74.995  1.00  0.00     0.000 HD 
HETATM   42  O   UNL     1      -7.956   8.895  71.950  1.00  0.00    -0.328 OA 
HETATM   43  H2  UNL     1     -11.178   8.963  73.686  1.00  0.00     0.000 HD 
HETATM   44  N   UNL     1     -10.395   8.487  74.134  1.00  0.00     2.987 NA 
HETATM   45  C   UNL     1      -9.720   7.591  73.167  1.00  0.00    -0.247 C  
HETATM   46  C   UNL     1      -6.974   8.042  72.427  1.00  0.00    -0.081 C  
HETATM   47  C   UNL     1      -8.604   6.760  73.815  1.00  0.00    -0.153 C  
HETATM   48  C   UNL     1      -7.241   7.042  73.279  1.00  0.00    -0.073 C  
BRANCH  46  49
HETATM   49  C   UNL     1      -5.569   8.347  71.957  1.00  0.00    -0.042 C  
BRANCH  49  50
HETATM   50  N   UNL     1      -5.183   7.599  70.758  1.00  0.00    -0.023 NA 
HETATM   51  H   UNL     1      -5.736   6.748  70.654  1.00  0.00     0.000 HD 
BRANCH  50  52
HETATM   52  C   UNL     1      -5.256   8.440  69.550  1.00  0.00    -0.030 C  
BRANCH  52  53
HETATM   53  C   UNL     1      -6.180   9.639  69.776  1.00  0.00    -0.045 C  
HETATM   54  O   UNL     1      -6.254  10.445  68.603  1.00  0.00    -0.047 OA 
HETATM   55  H   UNL     1      -6.827  11.190  68.744  1.00  0.00     0.000 HD 
ENDBRANCH  52  53
ENDBRANCH  50  52
ENDBRANCH  49  50
ENDBRANCH  46  49
ENDBRANCH  39  40
ENDBRANCH  26  39
ENDBRANCH  15  16
ENDBRANCH   6  15
ENDBRANCH   2   4
TORSDOF 13
ENDMDL
MODEL      217
REMARK 921   NORMALIZED FREE ENERGY PREDICTED BY IDOCK:    1.76 KCAL/MOL
REMARK 922        TOTAL FREE ENERGY PREDICTED BY IDOCK:   -0.36 KCAL/MOL
REMARK 923 INTER-LIGAND FREE ENERGY PREDICTED BY IDOCK:   -5.98 KCAL/MOL
REMARK 924 INTRA-LIGAND FREE ENERGY PREDICTED BY IDOCK:    5.62 KCAL/MOL
REMARK 927      BINDING AFFINITY PREDICTED BY RF-SCORE:    0.00 PKD
ROOT
HETATM    1  C   UNL     1      -8.701  14.837  69.283  1.00  0.00    -0.026 C  
HETATM    2  N   UNL     1      -9.908  14.184  68.786  1.00  0.00    -0.339 NA 
HETATM    3  H   UNL     1      -9.947  14.249  67.768  1.00  0.00     0.000 HD 
ENDROOT
BRANCH   2   4
HETATM    4  C   UNL     1     -10.097  12.765  69.213  1.00  0.00     0.512 C  
HETATM    5  C   UNL     1      -9.369  11.763  68.283  1.00  0.00    -0.193 C  
HETATM    6  C   UNL     1      -9.461  10.340  68.878  1.00  0.00    -0.188 C  
HETATM    7  O   UNL     1      -8.010  12.151  68.070  1.00  0.00    -0.132 OA 
HETATM    8  H   UNL     1      -7.563  11.537  67.499  1.00  0.00     0.000 HD 
HETATM    9  O   UNL     1     -12.363  12.406  68.309  1.00  0.00    -0.170 OA 
HETATM   10  O   UNL     1     -10.837   9.967  68.972  1.00  0.00    -0.212 OA 
HETATM   11  H   UNL     1     -13.249  12.109  68.477  1.00  0.00     0.000 HD 
HETATM   12  C   UNL     1     -11.559  10.788  69.906  1.00  0.00    -0.331 C  
HETATM   13  C   UNL     1     -12.238  13.092  70.596  1.00  0.00    -0.402 C  
HETATM   14  C   UNL     1     -11.558  12.276  69.491  1.00  0.00    -0.298 C  
BRANCH   6  15
HETATM   15  O   UNL     1      -8.820  10.282  70.154  1.00  0.00     0.000 OA 
BRANCH  15  16
HETATM   16  C   UNL     1      -8.618   8.969  70.704  1.00  0.00    -0.210 C  
HETATM   17  H1  UNL     1      -7.838   5.423  68.113  1.00  0.00     0.000 HD 
HETATM   18  C   UNL     1      -9.822   8.016  70.530  1.00  0.00    -0.182 C  
HETATM   19  C   UNL     1      -7.360   8.383  70.005  1.00  0.00    -0.059 C  
HETATM   20  H2  UNL     1      -9.479   5.236  68.455  1.00  0.00     0.000 HD 
HETATM   21  C   UNL     1      -8.869   7.215  68.275  1.00  0.00    -0.127 C  
HETATM   22  C   UNL     1     -10.085   7.782  69.032  1.00  0.00    -0.198 C  
HETATM   23  O   UNL     1      -6.924   7.189  70.691  1.00  0.00    -0.056 OA 
HETATM   24  H   UNL     1      -6.155   6.830  70.264  1.00  0.00     0.000 HD 
HETATM   25  N   UNL     1      -8.643   5.798  68.614  1.00  0.00    -0.109 NA 
HETATM   26  C   UNL     1      -7.607   8.103  68.494  1.00  0.00    -0.104 C  
BRANCH  18  27
HETATM   27  N   UNL     1      -9.638   6.772  71.278  1.00  0.00    -0.169 N  
HETATM   28  H   UNL     1      -8.816   6.681  71.875  1.00  0.00     0.000 HD 
HETATM   29  C   UNL     1     -10.521   5.718  71.213  1.00  0.00    -0.235 C  
HETATM   30  O   UNL     1     -11.553   5.727  70.552  1.00  0.00    -0.059 OA 
BRANCH  29  31
HETATM   31  C   UNL     1     -10.124   4.510  72.077  1.00  0.00    -0.196 C  
HETATM   32  H   UNL     1      -8.494   3.826  72.955  1.00  0.00     0.000 HD 
HETATM   33  O   UNL     1      -8.739   4.573  72.421  1.00  0.00    -0.115 OA 
BRANCH  31  34
HETATM   34  C   UNL     1     -10.945   4.464  73.366  1.00  0.00    -0.375 C  
BRANCH  34  35
HETATM   35  C   UNL     1     -10.194   5.093  74.540  1.00  0.00    -0.274 C  
HETATM   36  H1  UNL     1      -9.800   6.967  75.273  1.00  0.00     0.000 HD 
HETATM   37  H2  UNL     1     -11.271   6.856  74.451  1.00  0.00     0.000 HD 
HETATM   38  N   UNL     1     -10.300   6.547  74.490  1.00  0.00    -0.277 NA 
ENDBRANCH  34  35
ENDBRANCH  31  34
ENDBRANCH  29  31
ENDBRANCH  18  27
BRANCH  26  39
HETATM   39  O   UNL     1      -7.835   9.272  67.709  1.00  0.00    -0.092 OA 
BRANCH  39  40
HETATM   40  C   UNL     1      -7.471   9.246  66.326  1.00  0.00    -0.096 C  
HETATM   41  H1  UNL     1     -10.759  10.070  65.549  1.00  0.00     0.000 HD 
HETATM   42  O   UNL     1      -7.179   7.917  65.882  1.00  0.00    -0.069 OA 
HETATM   43  H2  UNL     1     -10.053   9.859  67.051  1.00  0.00     0.000 HD 
HETATM   44  N   UNL     1      -9.995   9.626  66.060  1.00  0.00    -0.280 NA 
HETATM   45  C   UNL     1      -8.642   9.926  65.542  1.00  0.00    -0.145 C  
HETATM   46  C   UNL     1      -6.967   7.818  64.517  1.00  0.00    -0.060 C  
HETATM   47  C   UNL     1      -8.528   9.703  64.027  1.00  0.00    -0.190 C  
HETATM   48  C   UNL     1      -7.566   8.634  63.635  1.00  0.00    -0.127 C  
BRANCH  46  49
HETATM   49  C   UNL     1      -6.051   6.696  64.083  1.00  0.00    -0.035 C  
BRANCH  49  50
HETATM   50  N   UNL     1      -6.103   5.530  64.969  1.00  0.00    -0.025 NA 
HETATM   51  H   UNL     1      -6.300   5.801  65.932  1.00  0.00     0.000 HD 
BRANCH  50  52
HETATM   52  C   UNL     1      -7.068   4.527  64.484  1.00  0.00    -0.050 C  
BRANCH  52  53
HETATM   53  C   UNL     1      -8.463   4.793  65.053  1.00  0.00    -0.137 C  
HETATM   54  O   UNL     1      -9.453   4.094  64.302  1.00  0.00    -0.154 OA 
HETATM   55  H   UNL     1     -10.320   4.260  64.655  1.00  0.00     0.000 HD 
ENDBRANCH  52  53
ENDBRANCH  50  52
ENDBRANCH  49  50
ENDBRANCH  46  49
ENDBRANCH  39  40
ENDBRANCH  26  39
ENDBRANCH  15  16
ENDBRANCH   6  15
ENDBRANCH   2   4
TORSDOF 13
ENDMDL
MODEL      218
REMARK 921   NORMALIZED FREE ENERGY PREDICTED BY IDOCK:    1.87 KCAL/MOL
REMARK 922        TOTAL FREE ENERGY PREDICTED BY IDOCK:   -0.17 KCAL/MOL
REMARK 923 INTER-LIGAND FREE ENERGY PREDICTED BY IDOCK:   -5.05 KCAL/MOL
REMARK 924 INTRA-LIGAND FREE ENERGY PREDICTED BY IDOCK:    4.88 KCAL/MOL
REMARK 927      BINDING AFFINITY PREDICTED BY RF-SCORE:    0.00 PKD
ROOT
HETATM    1  C   UNL     1      -5.885  16.465  70.996  1.00  0.00     0.500 C  
HETATM    2  N   UNL     1      -5.363  15.220  70.442  1.00  0.00    -0.127 NA 
HETATM    3  H   UNL     1      -5.163  14.560  71.194  1.00  0.00     0.000 HD 
ENDROOT
BRANCH   2   4
HETATM    4  C   UNL     1      -6.218  14.568  69.405  1.00  0.00    -0.115 C  
HETATM    5  C   UNL     1      -5.638  13.214  68.924  1.00  0.00    -0.073 C  
HETATM    6  C   UNL     1      -6.652  12.518  67.987  1.00  0.00    -0.086 C  
HETATM    7  O   UNL     1      -5.294  12.378  70.031  1.00  0.00    -0.084 OA 
HETATM    8  H   UNL     1      -4.938  11.548  69.736  1.00  0.00     0.000 HD 
HETATM    9  O   UNL     1      -5.506  15.896  67.453  1.00  0.00    -0.260 OA 
HETATM   10  O   UNL     1      -6.879  13.353  66.851  1.00  0.00     0.113 OA 
HETATM   11  H   UNL     1      -5.772  16.420  66.706  1.00  0.00     0.000 HD 
HETATM   12  C   UNL     1      -7.518  14.591  67.206  1.00  0.00    -0.097 C  
HETATM   13  C   UNL     1      -7.460  16.667  68.596  1.00  0.00    -0.211 C  
HETATM   14  C   UNL     1      -6.657  15.431  68.174  1.00  0.00    -0.133 C  
BRANCH   6  15
HETATM   15  O   UNL     1      -7.872  12.240  68.678  1.00  0.00    -0.123 OA 
BRANCH  15  16
HETATM   16  C   UNL     1      -9.084  12.438  67.931  1.00  0.00    -0.191 C  
HETATM   17  H1  UNL     1     -11.422   9.018  66.279  1.00  0.00     0.000 HD 
HETATM   18  C   UNL     1      -8.931  12.224  66.407  1.00  0.00    -0.117 C  
HETATM   19  C   UNL     1     -10.133  11.450  68.512  1.00  0.00    -0.206 C  
HETATM   20  H2  UNL     1     -10.579   9.539  64.915  1.00  0.00     0.000 HD 
HETATM   21  C   UNL     1      -9.520   9.733  66.693  1.00  0.00    -0.171 C  
HETATM   22  C   UNL     1      -8.528  10.766  66.127  1.00  0.00    -0.167 C  
HETATM   23  O   UNL     1     -11.448  11.775  68.011  1.00  0.00    -0.274 OA 
HETATM   24  H   UNL     1     -12.089  11.170  68.367  1.00  0.00     0.000 HD 
HETATM   25  N   UNL     1     -10.766   9.702  65.904  1.00  0.00     0.272 NA 
HETATM   26  C   UNL     1      -9.769   9.967  68.214  1.00  0.00    -0.144 C  
BRANCH  18  27
HETATM   27  N   UNL     1     -10.135  12.632  65.682  1.00  0.00    -0.274 N  
HETATM   28  H   UNL     1     -10.377  12.136  64.824  1.00  0.00     0.000 HD 
HETATM   29  C   UNL     1     -10.957  13.653  66.102  1.00  0.00    -0.284 C  
HETATM   30  O   UNL     1     -10.779  14.297  67.130  1.00  0.00    -0.277 OA 
BRANCH  29  31
HETATM   31  C   UNL     1     -12.160  13.913  65.182  1.00  0.00    -0.403 C  
HETATM   32  H   UNL     1     -14.129  13.853  65.314  1.00  0.00     0.000 HD 
HETATM   33  O   UNL     1     -13.385  13.693  65.884  1.00  0.00    -0.251 OA 
BRANCH  31  34
HETATM   34  C   UNL     1     -12.150  15.349  64.659  1.00  0.00    -0.124 C  
BRANCH  34  35
HETATM   35  C   UNL     1     -11.013  16.169  65.269  1.00  0.00    -0.270 C  
HETATM   36  H1  UNL     1     -10.462  18.137  65.427  1.00  0.00     0.000 HD 
HETATM   37  H2  UNL     1     -12.134  17.904  65.348  1.00  0.00     0.000 HD 
HETATM   38  N   UNL     1     -11.221  17.590  65.020  1.00  0.00    -0.499 NA 
ENDBRANCH  34  35
ENDBRANCH  31  34
ENDBRANCH  29  31
ENDBRANCH  18  27
BRANCH  26  39
HETATM   39  O   UNL     1      -8.580   9.513  68.858  1.00  0.00    -0.122 OA 
BRANCH  39  40
HETATM   40  C   UNL     1      -8.238   8.127  68.760  1.00  0.00    -0.125 C  
HETATM   41  H1  UNL     1      -4.986   8.968  69.658  1.00  0.00     0.000 HD 
HETATM   42  O   UNL     1      -8.271   7.671  67.404  1.00  0.00    -0.114 OA 
HETATM   43  H2  UNL     1      -6.322   9.961  69.490  1.00  0.00     0.000 HD 
HETATM   44  N   UNL     1      -5.897   9.077  69.212  1.00  0.00    -0.035 NA 
HETATM   45  C   UNL     1      -6.840   7.960  69.444  1.00  0.00    -0.047 C  
HETATM   46  C   UNL     1      -7.804   6.377  67.239  1.00  0.00    -0.105 C  
HETATM   47  C   UNL     1      -6.214   6.589  69.151  1.00  0.00    -0.034 C  
HETATM   48  C   UNL     1      -6.863   5.845  68.034  1.00  0.00    -0.067 C  
BRANCH  46  49
HETATM   49  C   UNL     1      -8.392   5.621  66.069  1.00  0.00    -0.124 C  
BRANCH  49  50
HETATM   50  N   UNL     1      -7.663   4.391  65.747  1.00  0.00    -0.089 NA 
HETATM   51  H   UNL     1      -8.141   3.568  66.114  1.00  0.00     0.000 HD 
BRANCH  50  52
HETATM   52  C   UNL     1      -7.418   4.272  64.299  1.00  0.00    -0.071 C  
BRANCH  52  53
HETATM   53  C   UNL     1      -6.319   3.245  64.015  1.00  0.00    -0.023 C  
HETATM   54  O   UNL     1      -5.986   2.524  65.198  1.00  0.00    -0.017 OA 
HETATM   55  H   UNL     1      -5.304   1.887  65.022  1.00  0.00     0.000 HD 
ENDBRANCH  52  53
ENDBRANCH  50  52
ENDBRANCH  49  50
ENDBRANCH  46  49
ENDBRANCH  39  40
ENDBRANCH  26  39
ENDBRANCH  15  16
ENDBRANCH   6  15
ENDBRANCH   2   4
TORSDOF 13
ENDMDL
MODEL      219
REMARK 921   NORMALIZED FREE ENERGY PREDICTED BY IDOCK:    1.88 KCAL/MOL
REMARK 922        TOTAL FREE ENERGY PREDICTED BY IDOCK:   -0.15 KCAL/MOL
REMARK 923 INTER-LIGAND FREE ENERGY PREDICTED BY IDOCK:   -2.12 KCAL/MOL
REMARK 924 INTRA-LIGAND FREE ENERGY PREDICTED BY IDOCK:    1.97 KCAL/MOL
REMARK 927      BINDING AFFINITY PREDICTED BY RF-SCORE:    0.00 PKD
ROOT
HETATM    1  C   UNL     1      -7.365   9.712  70.607  1.00  0.00    -0.096 C  
HETATM    2  N   UNL     1      -7.827  10.165  69.298  1.00  0.00    -0.120 NA 
HETATM    3  H   UNL     1      -7.491  11.111  69.118  1.00  0.00     0.000 HD 
ENDROOT
BRANCH   2   4
HETATM    4  C   UNL     1      -7.483   9.274  68.149  1.00  0.00    -0.083 C  
HETATM    5  C   UNL     1      -6.175   8.477  68.387  1.00  0.00    -0.054 C  
HETATM    6  C   UNL     1      -5.974   7.456  67.245  1.00  0.00    -0.045 C  
HETATM    7  O   UNL     1      -6.189   7.833  69.664  1.00  0.00    -0.030 OA 
HETATM    8  H   UNL     1      -5.387   7.345  69.809  1.00  0.00     0.000 HD 
HETATM    9  O   UNL     1      -6.516  10.972  66.644  1.00  0.00    -0.106 OA 
HETATM   10  O   UNL     1      -5.866   8.163  66.008  1.00  0.00    -0.039 OA 
HETATM   11  H   UNL     1      -6.511  11.354  65.775  1.00  0.00     0.000 HD 
HETATM   12  C   UNL     1      -7.084   8.844  65.663  1.00  0.00    -0.084 C  
HETATM   13  C   UNL     1      -8.838  10.491  66.338  1.00  0.00    -0.165 C  
HETATM   14  C   UNL     1      -7.474   9.904  66.716  1.00  0.00    -0.095 C  
BRANCH   6  15
HETATM   15  O   UNL     1      -7.049   6.515  67.211  1.00  0.00    -0.072 OA 
BRANCH  15  16
HETATM   16  C   UNL     1      -7.072   5.539  68.267  1.00  0.00    -0.066 C  
HETATM   17  H1  UNL     1     -10.583   2.872  68.938  1.00  0.00     0.000 HD 
HETATM   18  C   UNL     1      -7.961   5.929  69.470  1.00  0.00    -0.105 C  
HETATM   19  C   UNL     1      -7.570   4.210  67.635  1.00  0.00    -0.069 C  
HETATM   20  H2  UNL     1     -10.827   4.053  70.118  1.00  0.00     0.000 HD 
HETATM   21  C   UNL     1      -9.977   4.769  68.361  1.00  0.00    -0.086 C  
HETATM   22  C   UNL     1      -9.425   6.052  69.013  1.00  0.00    -0.143 C  
HETATM   23  O   UNL     1      -7.359   3.117  68.555  1.00  0.00    -0.049 OA 
HETATM   24  H   UNL     1      -7.664   2.304  68.169  1.00  0.00     0.000 HD 
HETATM   25  N   UNL     1     -10.218   3.721  69.369  1.00  0.00     0.546 NA 
HETATM   26  C   UNL     1      -9.060   4.293  67.194  1.00  0.00    -0.137 C  
BRANCH  18  27
HETATM   27  N   UNL     1      -7.789   5.003  70.590  1.00  0.00    -0.077 N  
HETATM   28  H   UNL     1      -8.299   4.119  70.572  1.00  0.00     0.000 HD 
HETATM   29  C   UNL     1      -6.973   5.266  71.666  1.00  0.00    -0.066 C  
HETATM   30  O   UNL     1      -6.294   6.281  71.779  1.00  0.00    -0.044 OA 
BRANCH  29  31
HETATM   31  C   UNL     1      -6.951   4.155  72.728  1.00  0.00    -0.057 C  
HETATM   32  H   UNL     1      -5.604   3.238  73.842  1.00  0.00     0.000 HD 
HETATM   33  O   UNL     1      -5.618   3.925  73.185  1.00  0.00     0.000 OA 
BRANCH  31  34
HETATM   34  C   UNL     1      -7.821   4.527  73.929  1.00  0.00    -0.093 C  
BRANCH  34  35
HETATM   35  C   UNL     1      -9.238   3.969  73.799  1.00  0.00    -0.092 C  
HETATM   36  H1  UNL     1     -11.160   4.577  74.171  1.00  0.00     0.000 HD 
HETATM   37  H2  UNL     1     -10.112   5.842  73.775  1.00  0.00     0.000 HD 
HETATM   38  N   UNL     1     -10.215   4.949  74.258  1.00  0.00    -0.229 NA 
ENDBRANCH  34  35
ENDBRANCH  31  34
ENDBRANCH  29  31
ENDBRANCH  18  27
BRANCH  26  39
HETATM   39  O   UNL     1      -9.308   5.210  66.130  1.00  0.00    -0.144 OA 
BRANCH  39  40
HETATM   40  C   UNL     1      -8.849   4.872  64.818  1.00  0.00    -0.147 C  
HETATM   41  H1  UNL     1     -11.887   3.270  64.277  1.00  0.00     0.000 HD 
HETATM   42  O   UNL     1      -7.788   3.912  64.862  1.00  0.00    -0.084 OA 
HETATM   43  H2  UNL     1     -11.362   4.101  65.631  1.00  0.00     0.000 HD 
HETATM   44  N   UNL     1     -11.071   3.587  64.799  1.00  0.00     0.237 NA 
HETATM   45  C   UNL     1     -10.102   4.386  64.016  1.00  0.00     0.097 C  
HETATM   46  C   UNL     1      -7.411   3.440  63.615  1.00  0.00    -0.054 C  
HETATM   47  C   UNL     1      -9.714   3.711  62.693  1.00  0.00    -0.115 C  
HETATM   48  C   UNL     1      -8.272   3.345  62.591  1.00  0.00    -0.073 C  
BRANCH  46  49
HETATM   49  C   UNL     1      -5.970   2.995  63.501  1.00  0.00    -0.014 C  
BRANCH  49  50
HETATM   50  N   UNL     1      -5.230   3.689  62.444  1.00  0.00    -0.005 NA 
HETATM   51  H   UNL     1      -5.354   3.233  61.540  1.00  0.00     0.000 HD 
BRANCH  50  52
HETATM   52  C   UNL     1      -5.591   5.117  62.381  1.00  0.00    -0.014 C  
BRANCH  52  53
HETATM   53  C   UNL     1      -5.137   5.850  63.646  1.00  0.00    -0.016 C  
HETATM   54  O   UNL     1      -6.189   5.894  64.606  1.00  0.00    -0.028 OA 
HETATM   55  H   UNL     1      -5.908   6.350  65.391  1.00  0.00     0.000 HD 
ENDBRANCH  52  53
ENDBRANCH  50  52
ENDBRANCH  49  50
ENDBRANCH  46  49
ENDBRANCH  39  40
ENDBRANCH  26  39
ENDBRANCH  15  16
ENDBRANCH   6  15
ENDBRANCH   2   4
TORSDOF 13
ENDMDL
MODEL      220
REMARK 921   NORMALIZED FREE ENERGY PREDICTED BY IDOCK:    2.01 KCAL/MOL
REMARK 922        TOTAL FREE ENERGY PREDICTED BY IDOCK:    0.08 KCAL/MOL
REMARK 923 INTER-LIGAND FREE ENERGY PREDICTED BY IDOCK:   -0.49 KCAL/MOL
REMARK 924 INTRA-LIGAND FREE ENERGY PREDICTED BY IDOCK:    0.58 KCAL/MOL
REMARK 927      BINDING AFFINITY PREDICTED BY RF-SCORE:    0.00 PKD
ROOT
HETATM    1  C   UNL     1     -11.026   4.723  68.483  1.00  0.00     1.453 C  
HETATM    2  N   UNL     1      -9.757   4.002  68.504  1.00  0.00    -0.111 NA 
HETATM    3  H   UNL     1      -9.353   3.977  67.567  1.00  0.00     0.000 HD 
ENDROOT
BRANCH   2   4
HETATM    4  C   UNL     1      -8.745   4.506  69.482  1.00  0.00    -0.082 C  
HETATM    5  C   UNL     1      -7.318   3.983  69.181  1.00  0.00    -0.054 C  
HETATM    6  C   UNL     1      -6.303   4.675  70.118  1.00  0.00    -0.030 C  
HETATM    7  O   UNL     1      -6.976   4.178  67.807  1.00  0.00    -0.054 OA 
HETATM    8  H   UNL     1      -6.101   3.857  67.623  1.00  0.00     0.000 HD 
HETATM    9  O   UNL     1      -9.233   2.963  71.343  1.00  0.00    -0.097 OA 
HETATM   10  O   UNL     1      -6.635   4.361  71.471  1.00  0.00    -0.025 OA 
HETATM   11  H   UNL     1      -9.426   2.868  72.268  1.00  0.00     0.000 HD 
HETATM   12  C   UNL     1      -7.906   4.909  71.860  1.00  0.00    -0.108 C  
HETATM   13  C   UNL     1     -10.357   5.073  71.400  1.00  0.00    -0.251 C  
HETATM   14  C   UNL     1      -9.064   4.349  71.006  1.00  0.00    -0.129 C  
BRANCH   6  15
HETATM   15  O   UNL     1      -6.295   6.088  69.901  1.00  0.00    -0.028 OA 
BRANCH  15  16
HETATM   16  C   UNL     1      -6.350   6.520  68.531  1.00  0.00    -0.038 C  
HETATM   17  H1  UNL     1      -6.990  10.794  67.431  1.00  0.00     0.000 HD 
HETATM   18  C   UNL     1      -7.773   6.853  68.028  1.00  0.00    -0.113 C  
HETATM   19  C   UNL     1      -5.432   7.769  68.421  1.00  0.00    -0.028 C  
HETATM   20  H2  UNL     1      -8.537  10.156  67.217  1.00  0.00     0.000 HD 
HETATM   21  C   UNL     1      -7.472   9.298  68.783  1.00  0.00    -0.076 C  
HETATM   22  C   UNL     1      -8.346   8.030  68.837  1.00  0.00    -0.126 C  
HETATM   23  O   UNL     1      -5.210   8.098  67.032  1.00  0.00    -0.030 OA 
HETATM   24  H   UNL     1      -4.649   8.862  66.965  1.00  0.00     0.000 HD 
HETATM   25  N   UNL     1      -7.568   9.955  67.466  1.00  0.00    -0.091 NA 
HETATM   26  C   UNL     1      -6.004   8.987  69.202  1.00  0.00    -0.042 C  
BRANCH  18  27
HETATM   27  N   UNL     1      -7.792   7.091  66.584  1.00  0.00    -0.104 N  
HETATM   28  H   UNL     1      -6.907   7.077  66.077  1.00  0.00     0.000 HD 
HETATM   29  C   UNL     1      -8.948   7.334  65.877  1.00  0.00    -0.068 C  
HETATM   30  O   UNL     1     -10.067   7.347  66.377  1.00  0.00    -0.143 OA 
BRANCH  29  31
HETATM   31  C   UNL     1      -8.730   7.563  64.373  1.00  0.00     0.495 C  
HETATM   32  H   UNL     1      -8.240   9.064  63.188  1.00  0.00     0.000 HD 
HETATM   33  O   UNL     1      -8.374   8.923  64.118  1.00  0.00    -0.165 OA 
BRANCH  31  34
HETATM   34  C   UNL     1      -7.618   6.660  63.837  1.00  0.00    -0.108 C  
BRANCH  34  35
HETATM   35  C   UNL     1      -8.003   5.183  63.906  1.00  0.00    -0.102 C  
HETATM   36  H1  UNL     1      -7.551   3.538  65.044  1.00  0.00     0.000 HD 
HETATM   37  H2  UNL     1      -7.445   4.998  65.888  1.00  0.00     0.000 HD 
HETATM   38  N   UNL     1      -7.295   4.524  64.998  1.00  0.00    -0.071 NA 
ENDBRANCH  34  35
ENDBRANCH  31  34
ENDBRANCH  29  31
ENDBRANCH  18  27
BRANCH  26  39
HETATM   39  O   UNL     1      -6.052   8.808  70.616  1.00  0.00    -0.031 OA 
BRANCH  39  40
HETATM   40  C   UNL     1      -5.420   9.785  71.449  1.00  0.00    -0.074 C  
HETATM   41  H1  UNL     1      -7.301   8.583  74.115  1.00  0.00     0.000 HD 
HETATM   42  O   UNL     1      -5.836  11.112  71.114  1.00  0.00    -0.355 OA 
HETATM   43  H2  UNL     1      -7.268   8.055  72.528  1.00  0.00     0.000 HD 
HETATM   44  N   UNL     1      -7.096   8.844  73.151  1.00  0.00    -0.336 NA 
HETATM   45  C   UNL     1      -5.736   9.384  72.929  1.00  0.00     0.097 C  
HETATM   46  C   UNL     1      -5.368  12.081  71.987  1.00  0.00     0.382 C  
HETATM   47  C   UNL     1      -5.376  10.501  73.919  1.00  0.00     0.418 C  
HETATM   48  C   UNL     1      -5.136  11.829  73.284  1.00  0.00     0.508 C  
BRANCH  46  49
HETATM   49  C   UNL     1      -5.182  13.457  71.388  1.00  0.00    -0.186 C  
BRANCH  49  50
HETATM   50  N   UNL     1      -5.244  13.465  69.923  1.00  0.00    -0.084 NA 
HETATM   51  H   UNL     1      -5.288  12.519  69.546  1.00  0.00     0.000 HD 
BRANCH  50  52
HETATM   52  C   UNL     1      -6.361  14.293  69.435  1.00  0.00    -0.120 C  
BRANCH  52  53
HETATM   53  C   UNL     1      -6.368  14.353  67.906  1.00  0.00    -0.162 C  
HETATM   54  O   UNL     1      -7.468  13.615  67.379  1.00  0.00    -0.225 OA 
HETATM   55  H   UNL     1      -7.472  13.652  66.430  1.00  0.00     0.000 HD 
ENDBRANCH  52  53
ENDBRANCH  50  52
ENDBRANCH  49  50
ENDBRANCH  46  49
ENDBRANCH  39  40
ENDBRANCH  26  39
ENDBRANCH  15  16
ENDBRANCH   6  15
ENDBRANCH   2   4
TORSDOF 13
ENDMDL
MODEL      221
REMARK 921   NORMALIZED FREE ENERGY PREDICTED BY IDOCK:    2.17 KCAL/MOL
REMARK 922        TOTAL FREE ENERGY PREDICTED BY IDOCK:    0.35 KCAL/MOL
REMARK 923 INTER-LIGAND FREE ENERGY PREDICTED BY IDOCK:   -5.04 KCAL/MOL
REMARK 924 INTRA-LIGAND FREE ENERGY PREDICTED BY IDOCK:    5.40 KCAL/MOL
REMARK 927      BINDING AFFINITY PREDICTED BY RF-SCORE:    0.00 PKD
ROOT
HETATM    1  C   UNL     1     -11.369   5.268  65.897  1.00  0.00     0.692 C  
HETATM    2  N   UNL     1     -10.185   5.023  66.715  1.00  0.00    -0.236 NA 
HETATM    3  H   UNL     1      -9.824   4.086  66.536  1.00  0.00     0.000 HD 
ENDROOT
BRANCH   2   4
HETATM    4  C   UNL     1      -9.088   6.027  66.578  1.00  0.00    -0.146 C  
HETATM    5  C   UNL     1      -9.622   7.474  66.429  1.00  0.00    -0.125 C  
HETATM    6  C   UNL     1      -8.442   8.471  66.466  1.00  0.00    -0.115 C  
HETATM    7  O   UNL     1     -10.588   7.773  67.440  1.00  0.00    -0.308 OA 
HETATM    8  H   UNL     1     -10.916   8.660  67.348  1.00  0.00     0.000 HD 
HETATM    9  O   UNL     1      -8.556   5.669  64.197  1.00  0.00    -0.305 OA 
HETATM   10  O   UNL     1      -7.565   8.187  65.375  1.00  0.00    -0.081 OA 
HETATM   11  H   UNL     1      -7.883   5.502  63.547  1.00  0.00     0.000 HD 
HETATM   12  C   UNL     1      -6.942   6.898  65.499  1.00  0.00    -0.060 C  
HETATM   13  C   UNL     1      -7.245   4.432  65.767  1.00  0.00    -0.072 C  
HETATM   14  C   UNL     1      -7.978   5.752  65.508  1.00  0.00    -0.115 C  
BRANCH   6  15
HETATM   15  O   UNL     1      -7.754   8.395  67.717  1.00  0.00    -0.100 OA 
BRANCH  15  16
HETATM   16  C   UNL     1      -8.384   7.607  68.741  1.00  0.00    -0.129 C  
HETATM   17  H1  UNL     1      -7.324   8.057  73.050  1.00  0.00     0.000 HD 
HETATM   18  C   UNL     1      -7.493   6.479  69.310  1.00  0.00    -0.095 C  
HETATM   19  C   UNL     1      -8.797   8.591  69.870  1.00  0.00    -0.137 C  
HETATM   20  H2  UNL     1      -6.445   6.680  72.629  1.00  0.00     0.000 HD 
HETATM   21  C   UNL     1      -6.595   8.090  71.109  1.00  0.00    -0.038 C  
HETATM   22  C   UNL     1      -6.254   7.090  69.987  1.00  0.00    -0.031 C  
HETATM   23  O   UNL     1      -9.678   7.929  70.804  1.00  0.00    -0.172 OA 
HETATM   24  H   UNL     1      -9.930   8.531  71.495  1.00  0.00     0.000 HD 
HETATM   25  N   UNL     1      -7.098   7.395  72.308  1.00  0.00    -0.066 NA 
HETATM   26  C   UNL     1      -7.563   9.200  70.597  1.00  0.00    -0.133 C  
BRANCH  18  27
HETATM   27  N   UNL     1      -8.247   5.592  70.196  1.00  0.00    -0.100 N  
HETATM   28  H   UNL     1      -7.752   5.132  70.960  1.00  0.00     0.000 HD 
HETATM   29  C   UNL     1      -9.594   5.347  70.048  1.00  0.00    -0.169 C  
HETATM   30  O   UNL     1     -10.294   5.865  69.185  1.00  0.00    -0.192 OA 
BRANCH  29  31
HETATM   31  C   UNL     1     -10.176   4.376  71.088  1.00  0.00    -0.057 C  
HETATM   32  H   UNL     1      -9.489   3.096  72.424  1.00  0.00     0.000 HD 
HETATM   33  O   UNL     1      -9.129   3.696  71.781  1.00  0.00    -0.102 OA 
BRANCH  31  34
HETATM   34  C   UNL     1     -11.034   5.121  72.111  1.00  0.00    -0.174 C  
BRANCH  34  35
HETATM   35  C   UNL     1     -11.495   6.480  71.585  1.00  0.00    -0.297 C  
HETATM   36  H1  UNL     1     -11.556   8.426  72.227  1.00  0.00     0.000 HD 
HETATM   37  H2  UNL     1     -10.273   7.538  72.874  1.00  0.00     0.000 HD 
HETATM   38  N   UNL     1     -11.248   7.519  72.578  1.00  0.00    -0.306 NA 
ENDBRANCH  34  35
ENDBRANCH  31  34
ENDBRANCH  29  31
ENDBRANCH  18  27
BRANCH  26  39
HETATM   39  O   UNL     1      -6.757  10.046  69.779  1.00  0.00    -0.062 OA 
BRANCH  39  40
HETATM   40  C   UNL     1      -7.392  10.786  68.731  1.00  0.00    -0.104 C  
HETATM   41  H1  UNL     1      -4.514  12.724  68.494  1.00  0.00     0.000 HD 
HETATM   42  O   UNL     1      -8.477  11.576  69.227  1.00  0.00     0.135 OA 
HETATM   43  H2  UNL     1      -4.830  11.428  69.504  1.00  0.00     0.000 HD 
HETATM   44  N   UNL     1      -5.245  12.176  68.949  1.00  0.00    -0.054 NA 
HETATM   45  C   UNL     1      -6.270  11.626  68.034  1.00  0.00    -0.047 C  
HETATM   46  C   UNL     1      -9.027  12.424  68.279  1.00  0.00    -0.178 C  
HETATM   47  C   UNL     1      -6.849  12.690  67.091  1.00  0.00    -0.028 C  
HETATM   48  C   UNL     1      -8.306  12.946  67.276  1.00  0.00    -0.185 C  
BRANCH  46  49
HETATM   49  C   UNL     1     -10.488  12.760  68.482  1.00  0.00    -0.238 C  
BRANCH  49  50
HETATM   50  N   UNL     1     -10.700  14.039  69.165  1.00  0.00    -0.366 NA 
HETATM   51  H   UNL     1      -9.872  14.632  69.112  1.00  0.00     0.000 HD 
BRANCH  50  52
HETATM   52  C   UNL     1     -11.894  14.733  68.651  1.00  0.00    -0.300 C  
BRANCH  52  53
HETATM   53  C   UNL     1     -12.523  15.612  69.735  1.00  0.00    -0.101 C  
HETATM   54  O   UNL     1     -11.576  15.900  70.760  1.00  0.00    -0.351 OA 
HETATM   55  H   UNL     1     -11.966  16.445  71.434  1.00  0.00     0.000 HD 
ENDBRANCH  52  53
ENDBRANCH  50  52
ENDBRANCH  49  50
ENDBRANCH  46  49
ENDBRANCH  39  40
ENDBRANCH  26  39
ENDBRANCH  15  16
ENDBRANCH   6  15
ENDBRANCH   2   4
TORSDOF 13
ENDMDL
MODEL      222
REMARK 921   NORMALIZED FREE ENERGY PREDICTED BY IDOCK:    2.20 KCAL/MOL
REMARK 922        TOTAL FREE ENERGY PREDICTED BY IDOCK:    0.40 KCAL/MOL
REMARK 923 INTER-LIGAND FREE ENERGY PREDICTED BY IDOCK:   -3.94 KCAL/MOL
REMARK 924 INTRA-LIGAND FREE ENERGY PREDICTED BY IDOCK:    4.34 KCAL/MOL
REMARK 927      BINDING AFFINITY PREDICTED BY RF-SCORE:    0.00 PKD
ROOT
HETATM    1  C   UNL     1      -7.111   5.877  65.121  1.00  0.00    -0.064 C  
HETATM    2  N   UNL     1      -7.407   7.288  64.893  1.00  0.00    -0.075 NA 
HETATM    3  H   UNL     1      -7.981   7.393  64.056  1.00  0.00     0.000 HD 
ENDROOT
BRANCH   2   4
HETATM    4  C   UNL     1      -8.040   8.008  66.039  1.00  0.00    -0.110 C  
HETATM    5  C   UNL     1      -7.093   9.057  66.676  1.00  0.00    -0.081 C  
HETATM    6  C   UNL     1      -7.864   9.878  67.734  1.00  0.00    -0.094 C  
HETATM    7  O   UNL     1      -6.516   9.903  65.679  1.00  0.00    -0.079 OA 
HETATM    8  H   UNL     1      -5.936  10.546  66.069  1.00  0.00     0.000 HD 
HETATM    9  O   UNL     1      -7.752   6.272  67.767  1.00  0.00    -0.099 OA 
HETATM   10  O   UNL     1      -8.329   8.994  68.755  1.00  0.00    -0.119 OA 
HETATM   11  H   UNL     1      -8.162   5.749  68.446  1.00  0.00     0.000 HD 
HETATM   12  C   UNL     1      -9.299   8.055  68.261  1.00  0.00    -0.140 C  
HETATM   13  C   UNL     1      -9.841   6.266  66.603  1.00  0.00    -0.201 C  
HETATM   14  C   UNL     1      -8.715   7.146  67.157  1.00  0.00    -0.121 C  
BRANCH   6  15
HETATM   15  O   UNL     1      -8.948  10.590  67.132  1.00  0.00    -0.139 OA 
BRANCH  15  16
HETATM   16  C   UNL     1     -10.176  10.626  67.879  1.00  0.00    -0.177 C  
HETATM   17  H1  UNL     1     -12.514  14.389  68.390  1.00  0.00     0.000 HD 
HETATM   18  C   UNL     1     -10.050  11.282  69.273  1.00  0.00     0.009 C  
HETATM   19  C   UNL     1     -11.204  11.400  67.008  1.00  0.00    -0.283 C  
HETATM   20  H2  UNL     1     -11.702  14.295  69.865  1.00  0.00     0.000 HD 
HETATM   21  C   UNL     1     -10.611  13.578  68.247  1.00  0.00    -0.250 C  
HETATM   22  C   UNL     1      -9.639  12.757  69.115  1.00  0.00     0.561 C  
HETATM   23  O   UNL     1     -12.532  11.243  67.555  1.00  0.00     0.327 OA 
HETATM   24  H   UNL     1     -13.161  11.716  67.023  1.00  0.00     0.000 HD 
HETATM   25  N   UNL     1     -11.871  13.846  68.965  1.00  0.00    -0.338 NA 
HETATM   26  C   UNL     1     -10.833  12.903  66.859  1.00  0.00    -0.257 C  
BRANCH  18  27
HETATM   27  N   UNL     1     -11.272  11.112  70.061  1.00  0.00    -0.451 N  
HETATM   28  H   UNL     1     -11.636  11.917  70.571  1.00  0.00     0.000 HD 
HETATM   29  C   UNL     1     -11.952   9.919  70.146  1.00  0.00    -0.077 C  
HETATM   30  O   UNL     1     -11.621   8.898  69.554  1.00  0.00     0.226 OA 
BRANCH  29  31
HETATM   31  C   UNL     1     -13.205   9.970  71.036  1.00  0.00    -0.325 C  
HETATM   32  H   UNL     1     -15.043   9.252  70.997  1.00  0.00     0.000 HD 
HETATM   33  O   UNL     1     -14.268   9.220  70.447  1.00  0.00     0.477 OA 
BRANCH  31  34
HETATM   34  C   UNL     1     -12.915   9.397  72.423  1.00  0.00    -0.427 C  
BRANCH  34  35
HETATM   35  C   UNL     1     -12.373   7.970  72.347  1.00  0.00    -0.252 C  
HETATM   36  H1  UNL     1     -13.026   6.116  71.763  1.00  0.00     0.000 HD 
HETATM   37  H2  UNL     1     -13.744   7.387  70.913  1.00  0.00     0.000 HD 
HETATM   38  N   UNL     1     -13.387   7.068  71.814  1.00  0.00    -0.315 NA 
ENDBRANCH  34  35
ENDBRANCH  31  34
ENDBRANCH  29  31
ENDBRANCH  18  27
BRANCH  26  39
HETATM   39  O   UNL     1      -9.628  13.142  66.135  1.00  0.00    -0.262 OA 
BRANCH  39  40
HETATM   40  C   UNL     1      -9.193  14.494  65.961  1.00  0.00    -0.063 C  
HETATM   41  H1  UNL     1      -6.376  13.724  67.851  1.00  0.00     0.000 HD 
HETATM   42  O   UNL     1     -10.027  15.411  66.675  1.00  0.00    -0.246 OA 
HETATM   43  H2  UNL     1      -7.643  12.730  67.395  1.00  0.00     0.000 HD 
HETATM   44  N   UNL     1      -7.355  13.694  67.565  1.00  0.00    -0.177 NA 
HETATM   45  C   UNL     1      -7.691  14.541  66.399  1.00  0.00     1.457 C  
HETATM   46  C   UNL     1      -9.561  16.716  66.661  1.00  0.00    -0.263 C  
HETATM   47  C   UNL     1      -7.179  15.981  66.550  1.00  0.00     0.164 C  
HETATM   48  C   UNL     1      -8.255  17.012  66.594  1.00  0.00    -0.295 C  
BRANCH  46  49
HETATM   49  C   UNL     1     -10.625  17.785  66.776  1.00  0.00    -0.233 C  
BRANCH  49  50
HETATM   50  N   UNL     1     -10.077  19.139  66.891  1.00  0.00    -0.347 NA 
HETATM   51  H   UNL     1     -10.813  19.844  66.855  1.00  0.00     0.000 HD 
BRANCH  50  52
HETATM   52  C   UNL     1      -9.249  19.285  68.102  1.00  0.00    -0.334 C  
BRANCH  52  53
HETATM   53  C   UNL     1      -8.450  20.590  68.062  1.00  0.00     0.091 C  
HETATM   54  O   UNL     1      -8.030  20.882  66.732  1.00  0.00    -0.554 OA 
HETATM   55  H   UNL     1      -7.534  21.692  66.707  1.00  0.00     0.000 HD 
ENDBRANCH  52  53
ENDBRANCH  50  52
ENDBRANCH  49  50
ENDBRANCH  46  49
ENDBRANCH  39  40
ENDBRANCH  26  39
ENDBRANCH  15  16
ENDBRANCH   6  15
ENDBRANCH   2   4
TORSDOF 13
ENDMDL
MODEL      223
REMARK 921   NORMALIZED FREE ENERGY PREDICTED BY IDOCK:    2.22 KCAL/MOL
REMARK 922        TOTAL FREE ENERGY PREDICTED BY IDOCK:    0.44 KCAL/MOL
REMARK 923 INTER-LIGAND FREE ENERGY PREDICTED BY IDOCK:   -6.53 KCAL/MOL
REMARK 924 INTRA-LIGAND FREE ENERGY PREDICTED BY IDOCK:    6.98 KCAL/MOL
REMARK 927      BINDING AFFINITY PREDICTED BY RF-SCORE:    0.00 PKD
ROOT
HETATM    1  C   UNL     1      -6.223   8.561  64.117  1.00  0.00    -0.067 C  
HETATM    2  N   UNL     1      -7.285   8.292  65.082  1.00  0.00    -0.078 NA 
HETATM    3  H   UNL     1      -7.272   7.308  65.351  1.00  0.00     0.000 HD 
ENDROOT
BRANCH   2   4
HETATM    4  C   UNL     1      -7.279   9.153  66.303  1.00  0.00    -0.091 C  
HETATM    5  C   UNL     1      -6.841  10.608  66.000  1.00  0.00    -0.129 C  
HETATM    6  C   UNL     1      -7.023  11.479  67.263  1.00  0.00    -0.125 C  
HETATM    7  O   UNL     1      -7.563  11.144  64.889  1.00  0.00    -0.208 OA 
HETATM    8  H   UNL     1      -7.294  12.036  64.704  1.00  0.00     0.000 HD 
HETATM    9  O   UNL     1      -5.140   8.403  67.274  1.00  0.00    -0.031 OA 
HETATM   10  O   UNL     1      -6.201  10.956  68.307  1.00  0.00    -0.049 OA 
HETATM   11  H   UNL     1      -4.685   8.078  68.042  1.00  0.00     0.000 HD 
HETATM   12  C   UNL     1      -6.616   9.644  68.721  1.00  0.00    -0.047 C  
HETATM   13  C   UNL     1      -7.103   7.284  68.057  1.00  0.00    -0.081 C  
HETATM   14  C   UNL     1      -6.529   8.619  67.569  1.00  0.00    -0.058 C  
BRANCH   6  15
HETATM   15  O   UNL     1      -8.397  11.520  67.657  1.00  0.00    -0.127 OA 
BRANCH  15  16
HETATM   16  C   UNL     1      -9.020  12.816  67.655  1.00  0.00    -0.191 C  
HETATM   17  H1  UNL     1     -13.130  13.454  66.045  1.00  0.00     0.000 HD 
HETATM   18  C   UNL     1      -9.073  13.491  66.266  1.00  0.00     0.033 C  
HETATM   19  C   UNL     1     -10.455  12.620  68.217  1.00  0.00    -0.239 C  
HETATM   20  H2  UNL     1     -12.177  13.988  64.759  1.00  0.00     0.000 HD 
HETATM   21  C   UNL     1     -11.361  12.395  65.817  1.00  0.00    -0.352 C  
HETATM   22  C   UNL     1      -9.927  12.640  65.310  1.00  0.00    -0.215 C  
HETATM   23  O   UNL     1     -11.050  13.904  68.509  1.00  0.00    -0.244 OA 
HETATM   24  H   UNL     1     -11.928  13.785  68.852  1.00  0.00     0.000 HD 
HETATM   25  N   UNL     1     -12.181  13.616  65.709  1.00  0.00    -0.433 NA 
HETATM   26  C   UNL     1     -11.354  11.792  67.254  1.00  0.00    -0.315 C  
BRANCH  18  27
HETATM   27  N   UNL     1      -9.531  14.878  66.358  1.00  0.00    -0.283 N  
HETATM   28  H   UNL     1     -10.179  15.224  65.650  1.00  0.00     0.000 HD 
HETATM   29  C   UNL     1      -9.129  15.738  67.354  1.00  0.00    -0.197 C  
HETATM   30  O   UNL     1      -8.378  15.423  68.270  1.00  0.00    -0.145 OA 
BRANCH  29  31
HETATM   31  C   UNL     1      -9.731  17.149  67.249  1.00  0.00    -0.254 C  
HETATM   32  H   UNL     1      -9.369  18.941  67.994  1.00  0.00     0.000 HD 
HETATM   33  O   UNL     1      -8.997  18.069  68.059  1.00  0.00    -0.260 OA 
BRANCH  31  34
HETATM   34  C   UNL     1      -9.710  17.648  65.804  1.00  0.00     0.086 C  
BRANCH  34  35
HETATM   35  C   UNL     1     -11.121  17.874  65.261  1.00  0.00     0.660 C  
HETATM   36  H1  UNL     1     -12.297  17.184  63.730  1.00  0.00     0.000 HD 
HETATM   37  H2  UNL     1     -11.179  16.049  64.291  1.00  0.00     0.000 HD 
HETATM   38  N   UNL     1     -11.356  17.034  64.093  1.00  0.00    -0.852 NA 
ENDBRANCH  34  35
ENDBRANCH  31  34
ENDBRANCH  29  31
ENDBRANCH  18  27
BRANCH  26  39
HETATM   39  O   UNL     1     -10.941  10.437  67.085  1.00  0.00    -0.267 OA 
BRANCH  39  40
HETATM   40  C   UNL     1     -11.147   9.522  68.165  1.00  0.00     0.006 C  
HETATM   41  H1  UNL     1      -8.822  11.333  70.012  1.00  0.00     0.000 HD 
HETATM   42  O   UNL     1     -10.628   8.223  67.861  1.00  0.00    -0.214 OA 
HETATM   43  H2  UNL     1      -9.382  11.612  68.460  1.00  0.00     0.000 HD 
HETATM   44  N   UNL     1      -9.242  10.908  69.185  1.00  0.00    -0.118 NA 
HETATM   45  C   UNL     1     -10.502  10.173  69.434  1.00  0.00    -0.233 C  
HETATM   46  C   UNL     1     -10.669   7.342  68.929  1.00  0.00    -0.150 C  
HETATM   47  C   UNL     1     -10.383   9.177  70.597  1.00  0.00    -0.306 C  
HETATM   48  C   UNL     1     -10.569   7.751  70.203  1.00  0.00    -0.237 C  
BRANCH  46  49
HETATM   49  C   UNL     1     -10.785   5.881  68.559  1.00  0.00    -0.255 C  
BRANCH  49  50
HETATM   50  N   UNL     1     -10.724   4.982  69.716  1.00  0.00     0.008 NA 
HETATM   51  H   UNL     1     -11.569   4.417  69.794  1.00  0.00     0.000 HD 
BRANCH  50  52
HETATM   52  C   UNL     1      -9.514   4.142  69.682  1.00  0.00    -0.189 C  
BRANCH  52  53
HETATM   53  C   UNL     1      -9.342   3.380  70.999  1.00  0.00    -0.142 C  
HETATM   54  O   UNL     1      -9.781   4.173  72.099  1.00  0.00    -0.146 OA 
HETATM   55  H   UNL     1      -9.674   3.700  72.916  1.00  0.00     0.000 HD 
ENDBRANCH  52  53
ENDBRANCH  50  52
ENDBRANCH  49  50
ENDBRANCH  46  49
ENDBRANCH  39  40
ENDBRANCH  26  39
ENDBRANCH  15  16
ENDBRANCH   6  15
ENDBRANCH   2   4
TORSDOF 13
ENDMDL
MODEL      224
REMARK 921   NORMALIZED FREE ENERGY PREDICTED BY IDOCK:    2.43 KCAL/MOL
REMARK 922        TOTAL FREE ENERGY PREDICTED BY IDOCK:    0.81 KCAL/MOL
REMARK 923 INTER-LIGAND FREE ENERGY PREDICTED BY IDOCK:   -5.68 KCAL/MOL
REMARK 924 INTRA-LIGAND FREE ENERGY PREDICTED BY IDOCK:    6.50 KCAL/MOL
REMARK 927      BINDING AFFINITY PREDICTED BY RF-SCORE:    0.00 PKD
ROOT
HETATM    1  C   UNL     1     -12.344  15.589  68.759  1.00  0.00     0.162 C  
HETATM    2  N   UNL     1     -12.912  14.302  68.368  1.00  0.00     0.774 NA 
HETATM    3  H   UNL     1     -13.747  14.448  67.801  1.00  0.00     0.000 HD 
ENDROOT
BRANCH   2   4
HETATM    4  C   UNL     1     -11.976  13.371  67.669  1.00  0.00    -0.322 C  
HETATM    5  C   UNL     1     -10.714  13.056  68.510  1.00  0.00    -0.255 C  
HETATM    6  C   UNL     1      -9.881  11.960  67.807  1.00  0.00    -0.184 C  
HETATM    7  O   UNL     1     -11.064  12.669  69.841  1.00  0.00    -0.468 OA 
HETATM    8  H   UNL     1     -10.290  12.476  70.357  1.00  0.00     0.000 HD 
HETATM    9  O   UNL     1     -10.912  14.992  66.145  1.00  0.00    -0.327 OA 
HETATM   10  O   UNL     1      -9.474  12.441  66.525  1.00  0.00    -0.233 OA 
HETATM   11  H   UNL     1     -10.664  15.201  65.253  1.00  0.00     0.000 HD 
HETATM   12  C   UNL     1     -10.591  12.655  65.645  1.00  0.00    -0.273 C  
HETATM   13  C   UNL     1     -12.784  13.792  65.266  1.00  0.00    -0.481 C  
HETATM   14  C   UNL     1     -11.568  13.716  66.197  1.00  0.00    -0.347 C  
BRANCH   6  15
HETATM   15  O   UNL     1     -10.631  10.749  67.691  1.00  0.00    -0.199 OA 
BRANCH  15  16
HETATM   16  C   UNL     1     -10.226   9.667  68.547  1.00  0.00    -0.193 C  
HETATM   17  H1  UNL     1      -5.935   8.865  69.462  1.00  0.00     0.000 HD 
HETATM   18  C   UNL     1      -9.618   8.459  67.798  1.00  0.00    -0.156 C  
HETATM   19  C   UNL     1      -9.195  10.255  69.550  1.00  0.00    -0.170 C  
HETATM   20  H2  UNL     1      -6.247   7.712  68.271  1.00  0.00     0.000 HD 
HETATM   21  C   UNL     1      -7.272   9.502  68.011  1.00  0.00    -0.081 C  
HETATM   22  C   UNL     1      -8.333   8.894  67.073  1.00  0.00    -0.106 C  
HETATM   23  O   UNL     1      -8.947   9.310  70.614  1.00  0.00    -0.218 OA 
HETATM   24  H   UNL     1      -8.316   9.670  71.228  1.00  0.00     0.000 HD 
HETATM   25  N   UNL     1      -6.637   8.462  68.841  1.00  0.00    -0.052 NA 
HETATM   26  C   UNL     1      -7.869  10.672  68.850  1.00  0.00    -0.129 C  
BRANCH  18  27
HETATM   27  N   UNL     1      -9.412   7.319  68.691  1.00  0.00    -0.138 N  
HETATM   28  H   UNL     1      -9.214   7.501  69.675  1.00  0.00     0.000 HD 
HETATM   29  C   UNL     1      -9.471   6.011  68.267  1.00  0.00    -0.115 C  
HETATM   30  O   UNL     1      -9.728   5.674  67.116  1.00  0.00    -0.124 OA 
BRANCH  29  31
HETATM   31  C   UNL     1      -9.216   4.977  69.375  1.00  0.00    -0.108 C  
HETATM   32  H   UNL     1      -8.041   3.417  69.663  1.00  0.00     0.000 HD 
HETATM   33  O   UNL     1      -8.199   4.056  68.977  1.00  0.00    -0.069 OA 
BRANCH  31  34
HETATM   34  C   UNL     1      -8.775   5.659  70.670  1.00  0.00    -0.138 C  
BRANCH  34  35
HETATM   35  C   UNL     1      -9.923   5.768  71.674  1.00  0.00    -0.174 C  
HETATM   36  H1  UNL     1     -10.679   7.149  72.987  1.00  0.00     0.000 HD 
HETATM   37  H2  UNL     1      -9.933   7.835  71.636  1.00  0.00     0.000 HD 
HETATM   38  N   UNL     1      -9.914   7.076  72.318  1.00  0.00    -0.171 NA 
ENDBRANCH  34  35
ENDBRANCH  31  34
ENDBRANCH  29  31
ENDBRANCH  18  27
BRANCH  26  39
HETATM   39  O   UNL     1      -8.004  11.755  67.932  1.00  0.00    -0.125 OA 
BRANCH  39  40
HETATM   40  C   UNL     1      -6.979  12.751  67.897  1.00  0.00    -0.116 C  
HETATM   41  H1  UNL     1      -6.283  12.008  71.223  1.00  0.00     0.000 HD 
HETATM   42  O   UNL     1      -7.527  14.069  67.793  1.00  0.00    -0.128 OA 
HETATM   43  H2  UNL     1      -7.417  11.318  70.205  1.00  0.00     0.000 HD 
HETATM   44  N   UNL     1      -6.854  12.148  70.389  1.00  0.00     0.517 NA 
HETATM   45  C   UNL     1      -6.102  12.537  69.176  1.00  0.00    -0.088 C  
HETATM   46  C   UNL     1      -6.584  15.077  67.906  1.00  0.00    -0.158 C  
HETATM   47  C   UNL     1      -5.148  13.714  69.426  1.00  0.00    -0.082 C  
HETATM   48  C   UNL     1      -5.471  14.941  68.643  1.00  0.00    -0.093 C  
BRANCH  46  49
HETATM   49  C   UNL     1      -6.918  16.361  67.180  1.00  0.00    -0.204 C  
BRANCH  49  50
HETATM   50  N   UNL     1      -7.478  17.394  68.056  1.00  0.00    -0.195 NA 
HETATM   51  H   UNL     1      -7.336  17.166  69.040  1.00  0.00     0.000 HD 
BRANCH  50  52
HETATM   52  C   UNL     1      -6.941  18.727  67.729  1.00  0.00    -0.215 C  
BRANCH  52  53
HETATM   53  C   UNL     1      -5.983  19.211  68.820  1.00  0.00    -0.218 C  
HETATM   54  O   UNL     1      -6.592  20.232  69.607  1.00  0.00    -0.284 OA 
HETATM   55  H   UNL     1      -5.997  20.533  70.284  1.00  0.00     0.000 HD 
ENDBRANCH  52  53
ENDBRANCH  50  52
ENDBRANCH  49  50
ENDBRANCH  46  49
ENDBRANCH  39  40
ENDBRANCH  26  39
ENDBRANCH  15  16
ENDBRANCH   6  15
ENDBRANCH   2   4
TORSDOF 13
ENDMDL
MODEL      225
REMARK 921   NORMALIZED FREE ENERGY PREDICTED BY IDOCK:    2.64 KCAL/MOL
REMARK 922        TOTAL FREE ENERGY PREDICTED BY IDOCK:    1.18 KCAL/MOL
REMARK 923 INTER-LIGAND FREE ENERGY PREDICTED BY IDOCK:   -1.42 KCAL/MOL
REMARK 924 INTRA-LIGAND FREE ENERGY PREDICTED BY IDOCK:    2.60 KCAL/MOL
REMARK 927      BINDING AFFINITY PREDICTED BY RF-SCORE:    0.00 PKD
ROOT
HETATM    1  C   UNL     1     -11.954   6.123  65.918  1.00  0.00     3.684 C  
HETATM    2  N   UNL     1     -10.913   5.653  66.826  1.00  0.00    -0.524 NA 
HETATM    3  H   UNL     1     -10.276   5.026  66.333  1.00  0.00     0.000 HD 
ENDROOT
BRANCH   2   4
HETATM    4  C   UNL     1     -10.137   6.721  67.525  1.00  0.00    -0.170 C  
HETATM    5  C   UNL     1     -10.961   7.423  68.634  1.00  0.00     0.055 C  
HETATM    6  C   UNL     1     -10.051   8.388  69.426  1.00  0.00    -0.198 C  
HETATM    7  O   UNL     1     -11.583   6.468  69.498  1.00  0.00    -0.594 OA 
HETATM    8  H   UNL     1     -12.088   6.899  70.177  1.00  0.00     0.000 HD 
HETATM    9  O   UNL     1     -10.353   8.501  65.833  1.00  0.00    -0.228 OA 
HETATM   10  O   UNL     1      -9.540   9.379  68.532  1.00  0.00    -0.145 OA 
HETATM   11  H   UNL     1      -9.910   9.148  65.297  1.00  0.00     0.000 HD 
HETATM   12  C   UNL     1      -8.673   8.814  67.534  1.00  0.00    -0.134 C  
HETATM   13  C   UNL     1      -8.387   7.147  65.694  1.00  0.00    -0.138 C  
HETATM   14  C   UNL     1      -9.406   7.787  66.643  1.00  0.00    -0.188 C  
BRANCH   6  15
HETATM   15  O   UNL     1      -8.991   7.674  70.067  1.00  0.00    -0.143 OA 
BRANCH  15  16
HETATM   16  C   UNL     1      -9.034   6.241  69.957  1.00  0.00    -0.149 C  
HETATM   17  H1  UNL     1      -7.431   3.581  73.158  1.00  0.00     0.000 HD 
HETATM   18  C   UNL     1      -7.670   5.589  69.635  1.00  0.00    -0.078 C  
HETATM   19  C   UNL     1      -9.582   5.707  71.309  1.00  0.00    -0.160 C  
HETATM   20  H2  UNL     1      -6.170   3.560  72.039  1.00  0.00     0.000 HD 
HETATM   21  C   UNL     1      -7.172   5.377  72.154  1.00  0.00    -0.088 C  
HETATM   22  C   UNL     1      -6.680   5.869  70.779  1.00  0.00    -0.053 C  
HETATM   23  O   UNL     1      -9.918   4.307  71.187  1.00  0.00    -0.189 OA 
HETATM   24  H   UNL     1     -10.254   3.981  72.014  1.00  0.00     0.000 HD 
HETATM   25  N   UNL     1      -7.105   3.907  72.249  1.00  0.00    -0.049 NA 
HETATM   26  C   UNL     1      -8.586   5.945  72.481  1.00  0.00    -0.120 C  
BRANCH  18  27
HETATM   27  N   UNL     1      -7.810   4.163  69.339  1.00  0.00    -0.057 N  
HETATM   28  H   UNL     1      -7.959   3.518  70.115  1.00  0.00     0.000 HD 
HETATM   29  C   UNL     1      -7.751   3.651  68.063  1.00  0.00    -0.069 C  
HETATM   30  O   UNL     1      -7.605   4.335  67.055  1.00  0.00    -0.079 OA 
BRANCH  29  31
HETATM   31  C   UNL     1      -7.918   2.125  67.988  1.00  0.00    -0.058 C  
HETATM   32  H   UNL     1      -9.364   0.807  68.250  1.00  0.00     0.000 HD 
HETATM   33  O   UNL     1      -9.261   1.751  68.296  1.00  0.00    -0.141 OA 
BRANCH  31  34
HETATM   34  C   UNL     1      -7.575   1.604  66.592  1.00  0.00    -0.064 C  
BRANCH  34  35
HETATM   35  C   UNL     1      -8.814   1.500  65.704  1.00  0.00    -0.124 C  
HETATM   36  H1  UNL     1      -9.864   2.685  64.401  1.00  0.00     0.000 HD 
HETATM   37  H2  UNL     1      -8.214   3.042  64.465  1.00  0.00     0.000 HD 
HETATM   38  N   UNL     1      -9.037   2.753  64.993  1.00  0.00    -0.137 NA 
ENDBRANCH  34  35
ENDBRANCH  31  34
ENDBRANCH  29  31
ENDBRANCH  18  27
BRANCH  26  39
HETATM   39  O   UNL     1      -8.370   7.318  72.798  1.00  0.00    -0.104 OA 
BRANCH  39  40
HETATM   40  C   UNL     1      -7.107   7.903  72.468  1.00  0.00    -0.085 C  
HETATM   41  H1  UNL     1      -7.335   9.794  75.378  1.00  0.00     0.000 HD 
HETATM   42  O   UNL     1      -7.203   8.753  71.321  1.00  0.00    -0.080 OA 
HETATM   43  H2  UNL     1      -8.400   8.651  74.778  1.00  0.00     0.000 HD 
HETATM   44  N   UNL     1      -7.662   9.314  74.540  1.00  0.00     0.070 NA 
HETATM   45  C   UNL     1      -6.604   8.640  73.754  1.00  0.00    -0.033 C  
HETATM   46  C   UNL     1      -6.043   9.460  71.051  1.00  0.00    -0.073 C  
HETATM   47  C   UNL     1      -5.410   9.561  73.463  1.00  0.00    -0.017 C  
HETATM   48  C   UNL     1      -5.190   9.838  72.014  1.00  0.00    -0.063 C  
BRANCH  46  49
HETATM   49  C   UNL     1      -5.827   9.818  69.598  1.00  0.00    -0.037 C  
BRANCH  49  50
HETATM   50  N   UNL     1      -6.787  10.805  69.094  1.00  0.00    -0.074 NA 
HETATM   51  H   UNL     1      -7.624  10.841  69.676  1.00  0.00     0.000 HD 
BRANCH  50  52
HETATM   52  C   UNL     1      -6.170  12.135  68.953  1.00  0.00    -0.077 C  
BRANCH  52  53
HETATM   53  C   UNL     1      -6.092  12.547  67.481  1.00  0.00    -0.154 C  
HETATM   54  O   UNL     1      -5.765  13.929  67.362  1.00  0.00    -0.352 OA 
HETATM   55  H   UNL     1      -5.717  14.185  66.448  1.00  0.00     0.000 HD 
ENDBRANCH  52  53
ENDBRANCH  50  52
ENDBRANCH  49  50
ENDBRANCH  46  49
ENDBRANCH  39  40
ENDBRANCH  26  39
ENDBRANCH  15  16
ENDBRANCH   6  15
ENDBRANCH   2   4
TORSDOF 13
ENDMDL
MODEL      226
REMARK 921   NORMALIZED FREE ENERGY PREDICTED BY IDOCK:    2.68 KCAL/MOL
REMARK 922        TOTAL FREE ENERGY PREDICTED BY IDOCK:    1.25 KCAL/MOL
REMARK 923 INTER-LIGAND FREE ENERGY PREDICTED BY IDOCK:   -2.69 KCAL/MOL
REMARK 924 INTRA-LIGAND FREE ENERGY PREDICTED BY IDOCK:    3.93 KCAL/MOL
REMARK 927      BINDING AFFINITY PREDICTED BY RF-SCORE:    0.00 PKD
ROOT
HETATM    1  C   UNL     1      -9.638  15.277  69.659  1.00  0.00    -0.180 C  
HETATM    2  N   UNL     1      -8.217  15.467  69.929  1.00  0.00    -0.214 NA 
HETATM    3  H   UNL     1      -8.086  15.835  70.871  1.00  0.00     0.000 HD 
ENDROOT
BRANCH   2   4
HETATM    4  C   UNL     1      -7.356  14.262  69.728  1.00  0.00     0.182 C  
HETATM    5  C   UNL     1      -8.172  12.944  69.725  1.00  0.00     2.052 C  
HETATM    6  C   UNL     1      -7.251  11.764  69.343  1.00  0.00     0.076 C  
HETATM    7  O   UNL     1      -9.294  13.035  68.845  1.00  0.00    -0.393 OA 
HETATM    8  H   UNL     1      -9.794  12.227  68.843  1.00  0.00     0.000 HD 
HETATM    9  O   UNL     1      -6.476  14.052  72.022  1.00  0.00    -0.238 OA 
HETATM   10  O   UNL     1      -6.207  11.660  70.312  1.00  0.00    -0.159 OA 
HETATM   11  H   UNL     1      -5.709  13.959  72.575  1.00  0.00     0.000 HD 
HETATM   12  C   UNL     1      -5.338  12.805  70.300  1.00  0.00    -0.124 C  
HETATM   13  C   UNL     1      -5.125  15.288  70.483  1.00  0.00    -0.132 C  
HETATM   14  C   UNL     1      -6.093  14.109  70.639  1.00  0.00    -0.170 C  
BRANCH   6  15
HETATM   15  O   UNL     1      -6.719  11.941  68.027  1.00  0.00    -0.063 OA 
BRANCH  15  16
HETATM   16  C   UNL     1      -7.439  11.300  66.960  1.00  0.00    -0.139 C  
HETATM   17  H1  UNL     1      -8.366   6.938  67.031  1.00  0.00     0.000 HD 
HETATM   18  C   UNL     1      -6.556  10.435  66.031  1.00  0.00    -0.120 C  
HETATM   19  C   UNL     1      -8.539  10.428  67.626  1.00  0.00    -0.118 C  
HETATM   20  H2  UNL     1      -7.027   6.981  66.007  1.00  0.00     0.000 HD 
HETATM   21  C   UNL     1      -6.972   8.386  67.538  1.00  0.00    -0.075 C  
HETATM   22  C   UNL     1      -5.932   9.282  66.837  1.00  0.00    -0.060 C  
HETATM   23  O   UNL     1      -9.478   9.972  66.628  1.00  0.00    -0.161 OA 
HETATM   24  H   UNL     1     -10.151   9.438  67.036  1.00  0.00     0.000 HD 
HETATM   25  N   UNL     1      -7.679   7.531  66.567  1.00  0.00    -0.095 NA 
HETATM   26  C   UNL     1      -7.938   9.232  68.420  1.00  0.00    -0.102 C  
BRANCH  18  27
HETATM   27  N   UNL     1      -7.299   9.974  64.858  1.00  0.00    -0.136 N  
HETATM   28  H   UNL     1      -8.256   9.644  64.987  1.00  0.00     0.000 HD 
HETATM   29  C   UNL     1      -6.769   9.963  63.588  1.00  0.00    -0.125 C  
HETATM   30  O   UNL     1      -5.642  10.361  63.312  1.00  0.00    -0.131 OA 
BRANCH  29  31
HETATM   31  C   UNL     1      -7.726   9.431  62.510  1.00  0.00    -0.114 C  
HETATM   32  H   UNL     1      -8.220   7.681  61.741  1.00  0.00     0.000 HD 
HETATM   33  O   UNL     1      -7.628   8.009  62.408  1.00  0.00    -0.102 OA 
BRANCH  31  34
HETATM   34  C   UNL     1      -9.174   9.797  62.834  1.00  0.00    -0.241 C  
BRANCH  34  35
HETATM   35  C   UNL     1      -9.459  11.276  62.573  1.00  0.00    -0.131 C  
HETATM   36  H1  UNL     1      -9.624  13.013  63.650  1.00  0.00     0.000 HD 
HETATM   37  H2  UNL     1      -8.560  11.891  64.330  1.00  0.00     0.000 HD 
HETATM   38  N   UNL     1      -9.434  12.026  63.823  1.00  0.00    -0.039 NA 
ENDBRANCH  34  35
ENDBRANCH  31  34
ENDBRANCH  29  31
ENDBRANCH  18  27
BRANCH  26  39
HETATM   39  O   UNL     1      -7.166   9.611  69.558  1.00  0.00    -0.066 OA 
BRANCH  39  40
HETATM   40  C   UNL     1      -7.602   9.185  70.852  1.00  0.00    -0.124 C  
HETATM   41  H1  UNL     1      -4.324   8.252  71.541  1.00  0.00     0.000 HD 
HETATM   42  O   UNL     1      -8.436   8.025  70.770  1.00  0.00    -0.118 OA 
HETATM   43  H2  UNL     1      -4.950   8.955  70.157  1.00  0.00     0.000 HD 
HETATM   44  N   UNL     1      -5.165   8.391  70.980  1.00  0.00    -0.028 NA 
HETATM   45  C   UNL     1      -6.313   8.971  71.712  1.00  0.00    -0.049 C  
HETATM   46  C   UNL     1      -8.763   7.485  72.004  1.00  0.00    -0.111 C  
HETATM   47  C   UNL     1      -6.610   8.230  73.023  1.00  0.00    -0.113 C  
HETATM   48  C   UNL     1      -7.947   7.571  73.065  1.00  0.00    -0.132 C  
BRANCH  46  49
HETATM   49  C   UNL     1     -10.082   6.748  72.059  1.00  0.00    -0.182 C  
BRANCH  49  50
HETATM   50  N   UNL     1      -9.940   5.326  72.384  1.00  0.00    -0.172 NA 
HETATM   51  H   UNL     1     -10.844   4.855  72.400  1.00  0.00     0.000 HD 
BRANCH  50  52
HETATM   52  C   UNL     1      -8.998   4.656  71.469  1.00  0.00    -0.133 C  
BRANCH  52  53
HETATM   53  C   UNL     1      -9.512   3.267  71.079  1.00  0.00    -0.158 C  
HETATM   54  O   UNL     1      -8.591   2.618  70.207  1.00  0.00    -0.051 OA 
HETATM   55  H   UNL     1      -8.910   1.756  69.965  1.00  0.00     0.000 HD 
ENDBRANCH  52  53
ENDBRANCH  50  52
ENDBRANCH  49  50
ENDBRANCH  46  49
ENDBRANCH  39  40
ENDBRANCH  26  39
ENDBRANCH  15  16
ENDBRANCH   6  15
ENDBRANCH   2   4
TORSDOF 13
ENDMDL
MODEL      227
REMARK 921   NORMALIZED FREE ENERGY PREDICTED BY IDOCK:    2.77 KCAL/MOL
REMARK 922        TOTAL FREE ENERGY PREDICTED BY IDOCK:    1.41 KCAL/MOL
REMARK 923 INTER-LIGAND FREE ENERGY PREDICTED BY IDOCK:   -1.59 KCAL/MOL
REMARK 924 INTRA-LIGAND FREE ENERGY PREDICTED BY IDOCK:    3.00 KCAL/MOL
REMARK 927      BINDING AFFINITY PREDICTED BY RF-SCORE:    0.00 PKD
ROOT
HETATM    1  C   UNL     1      -6.669   5.530  64.994  1.00  0.00    -0.044 C  
HETATM    2  N   UNL     1      -6.772   6.985  64.945  1.00  0.00    -0.046 NA 
HETATM    3  H   UNL     1      -7.182   7.276  64.057  1.00  0.00     0.000 HD 
ENDROOT
BRANCH   2   4
HETATM    4  C   UNL     1      -7.510   7.617  66.080  1.00  0.00    -0.082 C  
HETATM    5  C   UNL     1      -6.575   8.410  67.027  1.00  0.00    -0.058 C  
HETATM    6  C   UNL     1      -7.420   9.175  68.070  1.00  0.00    -0.084 C  
HETATM    7  O   UNL     1      -5.729   9.297  66.292  1.00  0.00    -0.051 OA 
HETATM    8  H   UNL     1      -5.155   9.783  66.873  1.00  0.00     0.000 HD 
HETATM    9  O   UNL     1      -7.755   5.626  67.515  1.00  0.00    -0.094 OA 
HETATM   10  O   UNL     1      -8.167   8.232  68.841  1.00  0.00    -0.114 OA 
HETATM   11  H   UNL     1      -8.342   5.077  68.021  1.00  0.00     0.000 HD 
HETATM   12  C   UNL     1      -9.138   7.529  68.047  1.00  0.00    -0.131 C  
HETATM   13  C   UNL     1      -9.582   6.099  66.046  1.00  0.00    -0.002 C  
HETATM   14  C   UNL     1      -8.478   6.712  66.914  1.00  0.00    -0.115 C  
BRANCH   6  15
HETATM   15  O   UNL     1      -8.282  10.119  67.431  1.00  0.00    -0.114 OA 
BRANCH  15  16
HETATM   16  C   UNL     1      -9.684  10.005  67.732  1.00  0.00    -0.150 C  
HETATM   17  H1  UNL     1     -12.361  13.568  67.888  1.00  0.00     0.000 HD 
HETATM   18  C   UNL     1     -10.066  10.466  69.157  1.00  0.00    -0.222 C  
HETATM   19  C   UNL     1     -10.438  10.851  66.670  1.00  0.00    -0.254 C  
HETATM   20  H2  UNL     1     -12.059  13.302  69.526  1.00  0.00     0.000 HD 
HETATM   21  C   UNL     1     -10.453  12.859  68.283  1.00  0.00    -0.242 C  
HETATM   22  C   UNL     1      -9.747  11.963  69.319  1.00  0.00     0.465 C  
HETATM   23  O   UNL     1     -11.853  10.569  66.728  1.00  0.00     0.310 OA 
HETATM   24  H   UNL     1     -12.315  11.087  66.078  1.00  0.00     0.000 HD 
HETATM   25  N   UNL     1     -11.894  12.976  68.573  1.00  0.00    -0.330 NA 
HETATM   26  C   UNL     1     -10.162  12.374  66.830  1.00  0.00    -0.225 C  
BRANCH  18  27
HETATM   27  N   UNL     1     -11.457  10.142  69.474  1.00  0.00    -0.395 N  
HETATM   28  H   UNL     1     -12.183  10.808  69.211  1.00  0.00     0.000 HD 
HETATM   29  C   UNL     1     -11.833   8.981  70.110  1.00  0.00     0.198 C  
HETATM   30  O   UNL     1     -11.050   8.099  70.446  1.00  0.00    -0.253 OA 
BRANCH  29  31
HETATM   31  C   UNL     1     -13.346   8.853  70.347  1.00  0.00     1.112 C  
HETATM   32  H   UNL     1     -14.563   7.670  71.354  1.00  0.00     0.000 HD 
HETATM   33  O   UNL     1     -13.627   7.748  71.208  1.00  0.00    -0.282 OA 
BRANCH  31  34
HETATM   34  C   UNL     1     -13.909  10.123  70.985  1.00  0.00     0.262 C  
BRANCH  34  35
HETATM   35  C   UNL     1     -13.598  10.195  72.480  1.00  0.00     0.159 C  
HETATM   36  H1  UNL     1     -14.144   9.225  74.202  1.00  0.00     0.000 HD 
HETATM   37  H2  UNL     1     -14.189   8.244  72.828  1.00  0.00     0.000 HD 
HETATM   38  N   UNL     1     -14.351   9.178  73.205  1.00  0.00    -0.003 NA 
ENDBRANCH  34  35
ENDBRANCH  31  34
ENDBRANCH  29  31
ENDBRANCH  18  27
BRANCH  26  39
HETATM   39  O   UNL     1      -8.812  12.757  66.575  1.00  0.00    -0.158 OA 
BRANCH  39  40
HETATM   40  C   UNL     1      -8.523  14.143  66.371  1.00  0.00     0.466 C  
HETATM   41  H1  UNL     1      -6.186  13.933  68.937  1.00  0.00     0.000 HD 
HETATM   42  O   UNL     1      -9.618  14.974  66.770  1.00  0.00    -0.225 OA 
HETATM   43  H2  UNL     1      -7.164  12.732  68.302  1.00  0.00     0.000 HD 
HETATM   44  N   UNL     1      -7.052  13.738  68.435  1.00  0.00    -0.095 NA 
HETATM   45  C   UNL     1      -7.195  14.443  67.142  1.00  0.00     0.197 C  
HETATM   46  C   UNL     1      -9.333  16.329  66.732  1.00  0.00    -0.237 C  
HETATM   47  C   UNL     1      -6.923  15.950  67.260  1.00  0.00    -0.241 C  
HETATM   48  C   UNL     1      -8.099  16.811  66.943  1.00  0.00    -0.246 C  
BRANCH  46  49
HETATM   49  C   UNL     1     -10.519  17.233  66.483  1.00  0.00    -0.260 C  
BRANCH  49  50
HETATM   50  N   UNL     1     -11.542  16.627  65.626  1.00  0.00     0.787 NA 
HETATM   51  H   UNL     1     -12.096  17.336  65.147  1.00  0.00     0.000 HD 
BRANCH  50  52
HETATM   52  C   UNL     1     -10.950  15.671  64.673  1.00  0.00    -0.325 C  
BRANCH  52  53
HETATM   53  C   UNL     1     -11.960  14.588  64.288  1.00  0.00    -0.397 C  
HETATM   54  O   UNL     1     -13.277  14.967  64.681  1.00  0.00    -0.078 OA 
HETATM   55  H   UNL     1     -13.904  14.294  64.442  1.00  0.00     0.000 HD 
ENDBRANCH  52  53
ENDBRANCH  50  52
ENDBRANCH  49  50
ENDBRANCH  46  49
ENDBRANCH  39  40
ENDBRANCH  26  39
ENDBRANCH  15  16
ENDBRANCH   6  15
ENDBRANCH   2   4
TORSDOF 13
ENDMDL
MODEL      228
REMARK 921   NORMALIZED FREE ENERGY PREDICTED BY IDOCK:    2.79 KCAL/MOL
REMARK 922        TOTAL FREE ENERGY PREDICTED BY IDOCK:    1.45 KCAL/MOL
REMARK 923 INTER-LIGAND FREE ENERGY PREDICTED BY IDOCK:   -0.82 KCAL/MOL
REMARK 924 INTRA-LIGAND FREE ENERGY PREDICTED BY IDOCK:    2.27 KCAL/MOL
REMARK 927      BINDING AFFINITY PREDICTED BY RF-SCORE:    0.00 PKD
ROOT
HETATM    1  C   UNL     1     -10.288  16.615  67.806  1.00  0.00    -0.306 C  
HETATM    2  N   UNL     1     -11.072  16.345  66.604  1.00  0.00     0.043 NA 
HETATM    3  H   UNL     1     -10.902  17.069  65.907  1.00  0.00     0.000 HD 
ENDROOT
BRANCH   2   4
HETATM    4  C   UNL     1     -10.874  14.994  65.996  1.00  0.00    -0.334 C  
HETATM    5  C   UNL     1      -9.379  14.602  65.896  1.00  0.00    -0.120 C  
HETATM    6  C   UNL     1      -9.257  13.136  65.423  1.00  0.00     0.608 C  
HETATM    7  O   UNL     1      -8.708  14.803  67.143  1.00  0.00    -0.195 OA 
HETATM    8  H   UNL     1      -7.791  14.563  67.081  1.00  0.00     0.000 HD 
HETATM    9  O   UNL     1     -11.171  15.611  63.627  1.00  0.00    -0.303 OA 
HETATM   10  O   UNL     1      -9.854  13.017  64.131  1.00  0.00    -0.208 OA 
HETATM   11  H   UNL     1     -11.611  15.427  62.806  1.00  0.00     0.000 HD 
HETATM   12  C   UNL     1     -11.270  13.262  64.162  1.00  0.00    -0.379 C  
HETATM   13  C   UNL     1     -13.123  14.827  64.764  1.00  0.00     0.693 C  
HETATM   14  C   UNL     1     -11.600  14.692  64.643  1.00  0.00    -0.402 C  
BRANCH   6  15
HETATM   15  O   UNL     1      -9.871  12.248  66.360  1.00  0.00    -0.219 OA 
BRANCH  15  16
HETATM   16  C   UNL     1     -10.083  12.769  67.683  1.00  0.00    -0.220 C  
HETATM   17  H1  UNL     1     -11.478  10.186  71.040  1.00  0.00     0.000 HD 
HETATM   18  C   UNL     1     -11.570  12.948  68.063  1.00  0.00    -0.342 C  
HETATM   19  C   UNL     1      -9.389  11.786  68.666  1.00  0.00    -0.090 C  
HETATM   20  H2  UNL     1     -12.911  10.951  70.586  1.00  0.00     0.000 HD 
HETATM   21  C   UNL     1     -11.623  10.551  69.004  1.00  0.00    -0.207 C  
HETATM   22  C   UNL     1     -12.274  11.580  68.060  1.00  0.00     0.286 C  
HETATM   23  O   UNL     1      -9.313  12.375  69.983  1.00  0.00     1.931 OA 
HETATM   24  H   UNL     1      -8.889  11.774  70.584  1.00  0.00     0.000 HD 
HETATM   25  N   UNL     1     -11.909  10.867  70.416  1.00  0.00    -0.330 NA 
HETATM   26  C   UNL     1     -10.099  10.402  68.710  1.00  0.00    -0.187 C  
BRANCH  18  27
HETATM   27  N   UNL     1     -11.721  13.663  69.331  1.00  0.00    -0.304 N  
HETATM   28  H   UNL     1     -11.082  13.440  70.094  1.00  0.00     0.000 HD 
HETATM   29  C   UNL     1     -12.684  14.624  69.544  1.00  0.00     0.139 C  
HETATM   30  O   UNL     1     -13.485  14.992  68.691  1.00  0.00     2.560 OA 
BRANCH  29  31
HETATM   31  C   UNL     1     -12.661  15.238  70.952  1.00  0.00    -0.435 C  
HETATM   32  H   UNL     1     -13.973  15.742  72.338  1.00  0.00     0.000 HD 
HETATM   33  O   UNL     1     -13.988  15.362  71.467  1.00  0.00    -0.495 OA 
BRANCH  31  34
HETATM   34  C   UNL     1     -11.844  14.375  71.913  1.00  0.00    -0.028 C  
BRANCH  34  35
HETATM   35  C   UNL     1     -12.124  14.729  73.374  1.00  0.00    -0.215 C  
HETATM   36  H1  UNL     1     -11.862  16.323  74.637  1.00  0.00     0.000 HD 
HETATM   37  H2  UNL     1     -12.085  16.766  73.022  1.00  0.00     0.000 HD 
HETATM   38  N   UNL     1     -11.676  16.086  73.663  1.00  0.00    -0.130 NA 
ENDBRANCH  34  35
ENDBRANCH  31  34
ENDBRANCH  29  31
ENDBRANCH  18  27
BRANCH  26  39
HETATM   39  O   UNL     1     -10.027   9.666  67.491  1.00  0.00    -0.164 OA 
BRANCH  39  40
HETATM   40  C   UNL     1      -9.849   8.248  67.561  1.00  0.00    -0.177 C  
HETATM   41  H1  UNL     1      -7.888   8.734  70.391  1.00  0.00     0.000 HD 
HETATM   42  O   UNL     1      -9.043   7.764  66.482  1.00  0.00    -0.154 OA 
HETATM   43  H2  UNL     1      -8.685   9.869  69.455  1.00  0.00     0.000 HD 
HETATM   44  N   UNL     1      -8.276   8.935  69.469  1.00  0.00    -0.104 NA 
HETATM   45  C   UNL     1      -9.254   7.940  68.975  1.00  0.00    -0.147 C  
HETATM   46  C   UNL     1      -8.717   6.422  66.587  1.00  0.00    -0.127 C  
HETATM   47  C   UNL     1      -8.734   6.499  69.082  1.00  0.00    -0.129 C  
HETATM   48  C   UNL     1      -8.578   5.806  67.771  1.00  0.00    -0.101 C  
BRANCH  46  49
HETATM   49  C   UNL     1      -8.482   5.708  65.275  1.00  0.00    -0.147 C  
BRANCH  49  50
HETATM   50  N   UNL     1      -8.394   4.252  65.414  1.00  0.00    -0.109 NA 
HETATM   51  H   UNL     1      -8.760   3.940  66.313  1.00  0.00     0.000 HD 
BRANCH  50  52
HETATM   52  C   UNL     1      -9.057   3.562  64.293  1.00  0.00    -0.126 C  
BRANCH  52  53
HETATM   53  C   UNL     1      -8.177   3.584  63.041  1.00  0.00    -0.080 C  
HETATM   54  O   UNL     1      -8.179   2.309  62.404  1.00  0.00    -0.068 OA 
HETATM   55  H   UNL     1      -7.632   2.323  61.627  1.00  0.00     0.000 HD 
ENDBRANCH  52  53
ENDBRANCH  50  52
ENDBRANCH  49  50
ENDBRANCH  46  49
ENDBRANCH  39  40
ENDBRANCH  26  39
ENDBRANCH  15  16
ENDBRANCH   6  15
ENDBRANCH   2   4
TORSDOF 13
ENDMDL
MODEL      229
REMARK 921   NORMALIZED FREE ENERGY PREDICTED BY IDOCK:    2.83 KCAL/MOL
REMARK 922        TOTAL FREE ENERGY PREDICTED BY IDOCK:    1.52 KCAL/MOL
REMARK 923 INTER-LIGAND FREE ENERGY PREDICTED BY IDOCK:   -1.64 KCAL/MOL
REMARK 924 INTRA-LIGAND FREE ENERGY PREDICTED BY IDOCK:    3.16 KCAL/MOL
REMARK 927      BINDING AFFINITY PREDICTED BY RF-SCORE:    0.00 PKD
ROOT
HETATM    1  C   UNL     1      -7.707  13.024  67.798  1.00  0.00    -0.151 C  
HETATM    2  N   UNL     1      -7.817  12.464  66.454  1.00  0.00    -0.232 NA 
HETATM    3  H   UNL     1      -6.927  12.052  66.174  1.00  0.00     0.000 HD 
ENDROOT
BRANCH   2   4
HETATM    4  C   UNL     1      -8.921  11.479  66.255  1.00  0.00    -0.196 C  
HETATM    5  C   UNL     1      -8.601  10.095  66.874  1.00  0.00    -0.126 C  
HETATM    6  C   UNL     1      -9.846   9.184  66.783  1.00  0.00    -0.226 C  
HETATM    7  O   UNL     1      -8.149  10.226  68.223  1.00  0.00    -0.103 OA 
HETATM    8  H   UNL     1      -7.952   9.377  68.602  1.00  0.00     0.000 HD 
HETATM    9  O   UNL     1      -8.449  10.865  63.913  1.00  0.00    -0.358 OA 
HETATM   10  O   UNL     1     -10.189   9.007  65.408  1.00  0.00     0.326 OA 
HETATM   11  H   UNL     1      -8.791  10.757  63.034  1.00  0.00     0.000 HD 
HETATM   12  C   UNL     1     -10.605  10.236  64.790  1.00  0.00     0.331 C  
HETATM   13  C   UNL     1     -10.049  12.611  64.243  1.00  0.00    -0.292 C  
HETATM   14  C   UNL     1      -9.486  11.301  64.806  1.00  0.00    -0.194 C  
BRANCH   6  15
HETATM   15  O   UNL     1     -10.936   9.741  67.522  1.00  0.00    -0.275 OA 
BRANCH  15  16
HETATM   16  C   UNL     1     -10.648  10.929  68.279  1.00  0.00    -0.190 C  
HETATM   17  H1  UNL     1     -11.472  11.193  72.654  1.00  0.00     0.000 HD 
HETATM   18  C   UNL     1     -11.897  11.759  68.654  1.00  0.00    -0.310 C  
HETATM   19  C   UNL     1      -9.900  10.469  69.561  1.00  0.00    -0.142 C  
HETATM   20  H2  UNL     1     -12.801  12.010  72.011  1.00  0.00     0.000 HD 
HETATM   21  C   UNL     1     -12.132  10.424  70.845  1.00  0.00    -0.374 C  
HETATM   22  C   UNL     1     -12.819  10.926  69.561  1.00  0.00     0.388 C  
HETATM   23  O   UNL     1      -9.332  11.612  70.237  1.00  0.00     1.840 OA 
HETATM   24  H   UNL     1      -8.874  11.331  71.022  1.00  0.00     0.000 HD 
HETATM   25  N   UNL     1     -11.927  11.525  71.805  1.00  0.00     0.801 NA 
HETATM   26  C   UNL     1     -10.819   9.652  70.515  1.00  0.00    -0.309 C  
BRANCH  18  27
HETATM   27  N   UNL     1     -11.530  13.047  69.244  1.00  0.00    -0.310 N  
HETATM   28  H   UNL     1     -10.588  13.405  69.083  1.00  0.00     0.000 HD 
HETATM   29  C   UNL     1     -12.396  13.800  70.004  1.00  0.00    -0.300 C  
HETATM   30  O   UNL     1     -13.557  13.483  70.238  1.00  0.00     0.700 OA 
BRANCH  29  31
HETATM   31  C   UNL     1     -11.795  15.115  70.527  1.00  0.00    -0.318 C  
HETATM   32  H   UNL     1     -12.118  16.367  72.018  1.00  0.00     0.000 HD 
HETATM   33  O   UNL     1     -12.490  15.554  71.695  1.00  0.00    -0.341 OA 
BRANCH  31  34
HETATM   34  C   UNL     1     -10.317  14.942  70.875  1.00  0.00     0.619 C  
BRANCH  34  35
HETATM   35  C   UNL     1      -9.416  15.775  69.963  1.00  0.00     0.205 C  
HETATM   36  H1  UNL     1      -9.100  16.038  67.955  1.00  0.00     0.000 HD 
HETATM   37  H2  UNL     1     -10.687  15.609  68.341  1.00  0.00     0.000 HD 
HETATM   38  N   UNL     1      -9.700  15.483  68.563  1.00  0.00    -0.199 NA 
ENDBRANCH  34  35
ENDBRANCH  31  34
ENDBRANCH  29  31
ENDBRANCH  18  27
BRANCH  26  39
HETATM   39  O   UNL     1     -11.248   8.399  69.986  1.00  0.00    -0.206 OA 
BRANCH  39  40
HETATM   40  C   UNL     1     -10.571   7.213  70.410  1.00  0.00    -0.224 C  
HETATM   41  H1  UNL     1     -12.737   7.064  73.126  1.00  0.00     0.000 HD 
HETATM   42  O   UNL     1      -9.241   7.496  70.857  1.00  0.00    -0.153 OA 
HETATM   43  H2  UNL     1     -12.690   8.176  71.876  1.00  0.00     0.000 HD 
HETATM   44  N   UNL     1     -12.150   7.498  72.413  1.00  0.00    -0.225 NA 
HETATM   45  C   UNL     1     -11.472   6.548  71.503  1.00  0.00    -0.302 C  
HETATM   46  C   UNL     1      -8.596   6.405  71.416  1.00  0.00    -0.130 C  
HETATM   47  C   UNL     1     -10.735   5.432  72.259  1.00  0.00    -0.287 C  
HETATM   48  C   UNL     1      -9.257   5.431  72.060  1.00  0.00    -0.152 C  
BRANCH  46  49
HETATM   49  C   UNL     1      -7.089   6.411  71.293  1.00  0.00    -0.077 C  
BRANCH  49  50
HETATM   50  N   UNL     1      -6.584   7.457  70.399  1.00  0.00    -0.046 NA 
HETATM   51  H   UNL     1      -6.124   8.203  70.921  1.00  0.00     0.000 HD 
BRANCH  50  52
HETATM   52  C   UNL     1      -5.698   6.899  69.362  1.00  0.00    -0.015 C  
BRANCH  52  53
HETATM   53  C   UNL     1      -6.307   7.079  67.970  1.00  0.00    -0.043 C  
HETATM   54  O   UNL     1      -6.489   5.816  67.334  1.00  0.00    -0.040 OA 
HETATM   55  H   UNL     1      -6.867   5.927  66.470  1.00  0.00     0.000 HD 
ENDBRANCH  52  53
ENDBRANCH  50  52
ENDBRANCH  49  50
ENDBRANCH  46  49
ENDBRANCH  39  40
ENDBRANCH  26  39
ENDBRANCH  15  16
ENDBRANCH   6  15
ENDBRANCH   2   4
TORSDOF 13
ENDMDL
MODEL      230
REMARK 921   NORMALIZED FREE ENERGY PREDICTED BY IDOCK:    2.91 KCAL/MOL
REMARK 922        TOTAL FREE ENERGY PREDICTED BY IDOCK:    1.65 KCAL/MOL
REMARK 923 INTER-LIGAND FREE ENERGY PREDICTED BY IDOCK:   -3.71 KCAL/MOL
REMARK 924 INTRA-LIGAND FREE ENERGY PREDICTED BY IDOCK:    5.36 KCAL/MOL
REMARK 927      BINDING AFFINITY PREDICTED BY RF-SCORE:    0.00 PKD
ROOT
HETATM    1  C   UNL     1      -9.838  19.530  65.897  1.00  0.00    -0.251 C  
HETATM    2  N   UNL     1      -8.917  19.710  67.016  1.00  0.00    -0.303 NA 
HETATM    3  H   UNL     1      -9.441  19.843  67.881  1.00  0.00     0.000 HD 
ENDROOT
BRANCH   2   4
HETATM    4  C   UNL     1      -7.902  18.629  67.195  1.00  0.00    -0.234 C  
HETATM    5  C   UNL     1      -8.249  17.678  68.369  1.00  0.00    -0.289 C  
HETATM    6  C   UNL     1      -7.258  16.493  68.388  1.00  0.00    -0.169 C  
HETATM    7  O   UNL     1      -9.601  17.224  68.282  1.00  0.00    -0.267 OA 
HETATM    8  H   UNL     1      -9.814  16.641  69.002  1.00  0.00     0.000 HD 
HETATM    9  O   UNL     1      -6.179  19.935  68.381  1.00  0.00    -0.244 OA 
HETATM   10  O   UNL     1      -5.936  17.000  68.579  1.00  0.00    -0.140 OA 
HETATM   11  H   UNL     1      -5.265  20.190  68.428  1.00  0.00     0.000 HD 
HETATM   12  C   UNL     1      -5.499  17.808  67.472  1.00  0.00    -0.134 C  
HETATM   13  C   UNL     1      -5.939  19.783  66.007  1.00  0.00    -0.188 C  
HETATM   14  C   UNL     1      -6.396  19.049  67.272  1.00  0.00    -0.187 C  
BRANCH   6  15
HETATM   15  O   UNL     1      -7.352  15.734  67.180  1.00  0.00    -0.202 OA 
BRANCH  15  16
HETATM   16  C   UNL     1      -8.638  15.161  66.889  1.00  0.00    -0.257 C  
HETATM   17  H1  UNL     1     -10.462  12.023  69.481  1.00  0.00     0.000 HD 
HETATM   18  C   UNL     1      -8.578  13.728  66.312  1.00  0.00     0.564 C  
HETATM   19  C   UNL     1      -9.442  15.174  68.219  1.00  0.00    -0.201 C  
HETATM   20  H2  UNL     1      -9.842  11.096  68.216  1.00  0.00     0.000 HD 
HETATM   21  C   UNL     1      -8.690  12.758  68.696  1.00  0.00     0.057 C  
HETATM   22  C   UNL     1      -7.947  12.780  67.346  1.00  0.00    -0.179 C  
HETATM   23  O   UNL     1     -10.832  14.877  67.958  1.00  0.00    -0.251 OA 
HETATM   24  H   UNL     1     -11.324  14.885  68.771  1.00  0.00     0.000 HD 
HETATM   25  N   UNL     1      -9.971  12.037  68.588  1.00  0.00    -0.183 NA 
HETATM   26  C   UNL     1      -8.847  14.197  69.273  1.00  0.00     0.368 C  
BRANCH  18  27
HETATM   27  N   UNL     1      -9.892  13.277  65.851  1.00  0.00    -0.389 N  
HETATM   28  H   UNL     1     -10.173  12.317  66.051  1.00  0.00     0.000 HD 
HETATM   29  C   UNL     1     -10.766  14.086  65.161  1.00  0.00    -0.382 C  
HETATM   30  O   UNL     1     -10.545  15.261  64.892  1.00  0.00    -0.407 OA 
BRANCH  29  31
HETATM   31  C   UNL     1     -12.085  13.400  64.771  1.00  0.00    -0.406 C  
HETATM   32  H   UNL     1     -13.756  13.889  63.842  1.00  0.00     0.000 HD 
HETATM   33  O   UNL     1     -12.941  14.313  64.083  1.00  0.00    -0.360 OA 
BRANCH  31  34
HETATM   34  C   UNL     1     -11.829  12.195  63.866  1.00  0.00    -0.558 C  
BRANCH  34  35
HETATM   35  C   UNL     1     -11.313  10.991  64.653  1.00  0.00     0.301 C  
HETATM   36  H1  UNL     1      -9.584   9.902  64.821  1.00  0.00     0.000 HD 
HETATM   37  H2  UNL     1      -9.329  11.521  64.414  1.00  0.00     0.000 HD 
HETATM   38  N   UNL     1      -9.929  10.705  64.296  1.00  0.00    -0.332 NA 
ENDBRANCH  34  35
ENDBRANCH  31  34
ENDBRANCH  29  31
ENDBRANCH  18  27
BRANCH  26  39
HETATM   39  O   UNL     1      -7.547  14.555  69.738  1.00  0.00    -0.006 OA 
BRANCH  39  40
HETATM   40  C   UNL     1      -7.012  13.860  70.869  1.00  0.00     1.353 C  
HETATM   41  H1  UNL     1      -4.968  16.610  71.464  1.00  0.00     0.000 HD 
HETATM   42  O   UNL     1      -6.221  12.737  70.471  1.00  0.00    -0.102 OA 
HETATM   43  H2  UNL     1      -6.113  16.389  70.264  1.00  0.00     0.000 HD 
HETATM   44  N   UNL     1      -5.482  15.921  70.915  1.00  0.00    -0.081 NA 
HETATM   45  C   UNL     1      -6.223  14.917  71.711  1.00  0.00     0.687 C  
HETATM   46  C   UNL     1      -5.559  12.121  71.520  1.00  0.00     0.309 C  
HETATM   47  C   UNL     1      -5.349  14.260  72.789  1.00  0.00    -0.222 C  
HETATM   48  C   UNL     1      -5.153  12.793  72.608  1.00  0.00     0.165 C  
BRANCH  46  49
HETATM   49  C   UNL     1      -5.282  10.646  71.335  1.00  0.00    -0.063 C  
BRANCH  49  50
HETATM   50  N   UNL     1      -6.405   9.790  71.731  1.00  0.00    -0.294 NA 
HETATM   51  H   UNL     1      -7.042  10.279  72.360  1.00  0.00     0.000 HD 
BRANCH  50  52
HETATM   52  C   UNL     1      -7.114   9.252  70.557  1.00  0.00    -0.100 C  
BRANCH  52  53
HETATM   53  C   UNL     1      -7.006   7.726  70.506  1.00  0.00    -0.046 C  
HETATM   54  O   UNL     1      -7.640   7.140  71.640  1.00  0.00    -0.086 OA 
HETATM   55  H   UNL     1      -7.573   6.193  71.609  1.00  0.00     0.000 HD 
ENDBRANCH  52  53
ENDBRANCH  50  52
ENDBRANCH  49  50
ENDBRANCH  46  49
ENDBRANCH  39  40
ENDBRANCH  26  39
ENDBRANCH  15  16
ENDBRANCH   6  15
ENDBRANCH   2   4
TORSDOF 13
ENDMDL
MODEL      231
REMARK 921   NORMALIZED FREE ENERGY PREDICTED BY IDOCK:    2.91 KCAL/MOL
REMARK 922        TOTAL FREE ENERGY PREDICTED BY IDOCK:    1.66 KCAL/MOL
REMARK 923 INTER-LIGAND FREE ENERGY PREDICTED BY IDOCK:    0.18 KCAL/MOL
REMARK 924 INTRA-LIGAND FREE ENERGY PREDICTED BY IDOCK:    1.48 KCAL/MOL
REMARK 927      BINDING AFFINITY PREDICTED BY RF-SCORE:    0.00 PKD
ROOT
HETATM    1  C   UNL     1      -6.159  16.299  70.025  1.00  0.00    -0.146 C  
HETATM    2  N   UNL     1      -7.588  16.297  69.727  1.00  0.00     0.166 NA 
HETATM    3  H   UNL     1      -7.805  17.035  69.056  1.00  0.00     0.000 HD 
ENDROOT
BRANCH   2   4
HETATM    4  C   UNL     1      -8.146  14.995  69.252  1.00  0.00    -0.178 C  
HETATM    5  C   UNL     1      -9.296  14.479  70.154  1.00  0.00     1.130 C  
HETATM    6  C   UNL     1      -9.937  13.228  69.513  1.00  0.00     0.951 C  
HETATM    7  O   UNL     1     -10.268  15.501  70.386  1.00  0.00    -0.379 OA 
HETATM    8  H   UNL     1     -10.972  15.184  70.939  1.00  0.00     0.000 HD 
HETATM    9  O   UNL     1      -6.394  13.500  70.133  1.00  0.00    -0.305 OA 
HETATM   10  O   UNL     1      -8.944  12.207  69.400  1.00  0.00     0.680 OA 
HETATM   11  H   UNL     1      -5.782  12.797  69.951  1.00  0.00     0.000 HD 
HETATM   12  C   UNL     1      -7.893  12.571  68.489  1.00  0.00    -0.108 C  
HETATM   13  C   UNL     1      -6.123  14.223  67.870  1.00  0.00    -0.157 C  
HETATM   14  C   UNL     1      -7.138  13.836  68.952  1.00  0.00    -0.107 C  
BRANCH   6  15
HETATM   15  O   UNL     1     -10.502  13.545  68.239  1.00  0.00    -0.239 OA 
BRANCH  15  16
HETATM   16  C   UNL     1      -9.973  12.824  67.113  1.00  0.00    -0.218 C  
HETATM   17  H1  UNL     1     -11.007  13.918  62.915  1.00  0.00     0.000 HD 
HETATM   18  C   UNL     1     -10.989  11.881  66.429  1.00  0.00    -0.292 C  
HETATM   19  C   UNL     1      -9.460  13.888  66.104  1.00  0.00    -0.171 C  
HETATM   20  H2  UNL     1     -12.032  12.606  63.183  1.00  0.00     0.000 HD 
HETATM   21  C   UNL     1     -11.713  13.792  64.860  1.00  0.00    -0.363 C  
HETATM   22  C   UNL     1     -12.156  12.705  65.858  1.00  0.00    -0.459 C  
HETATM   23  O   UNL     1      -8.666  13.254  65.077  1.00  0.00     1.215 OA 
HETATM   24  H   UNL     1      -8.353  13.905  64.460  1.00  0.00     0.000 HD 
HETATM   25  N   UNL     1     -11.300  13.199  63.575  1.00  0.00    -0.272 NA 
HETATM   26  C   UNL     1     -10.623  14.715  65.483  1.00  0.00    -0.355 C  
BRANCH  18  27
HETATM   27  N   UNL     1     -10.346  11.032  65.426  1.00  0.00    -0.270 N  
HETATM   28  H   UNL     1     -10.270  11.381  64.470  1.00  0.00     0.000 HD 
HETATM   29  C   UNL     1      -9.839   9.784  65.709  1.00  0.00    -0.290 C  
HETATM   30  O   UNL     1      -9.849   9.277  66.826  1.00  0.00    -0.189 OA 
BRANCH  29  31
HETATM   31  C   UNL     1      -9.214   9.068  64.501  1.00  0.00     0.212 C  
HETATM   32  H   UNL     1      -8.513   9.562  62.723  1.00  0.00     0.000 HD 
HETATM   33  O   UNL     1      -8.899  10.005  63.470  1.00  0.00    -0.194 OA 
BRANCH  31  34
HETATM   34  C   UNL     1      -7.934   8.334  64.900  1.00  0.00    -0.144 C  
BRANCH  34  35
HETATM   35  C   UNL     1      -8.196   6.861  65.211  1.00  0.00    -0.129 C  
HETATM   36  H1  UNL     1      -7.197   5.271  66.034  1.00  0.00     0.000 HD 
HETATM   37  H2  UNL     1      -6.718   6.768  66.654  1.00  0.00     0.000 HD 
HETATM   38  N   UNL     1      -7.022   6.254  65.827  1.00  0.00    -0.056 NA 
ENDBRANCH  34  35
ENDBRANCH  31  34
ENDBRANCH  29  31
ENDBRANCH  18  27
BRANCH  26  39
HETATM   39  O   UNL     1     -11.322  15.538  66.415  1.00  0.00    -0.177 OA 
BRANCH  39  40
HETATM   40  C   UNL     1     -10.957  16.917  66.515  1.00  0.00     0.171 C  
HETATM   41  H1  UNL     1     -11.986  17.326  63.218  1.00  0.00     0.000 HD 
HETATM   42  O   UNL     1      -9.538  17.081  66.611  1.00  0.00    -0.244 OA 
HETATM   43  H2  UNL     1     -12.018  15.949  64.169  1.00  0.00     0.000 HD 
HETATM   44  N   UNL     1     -11.573  16.855  64.024  1.00  0.00    -0.772 NA 
HETATM   45  C   UNL     1     -11.589  17.639  65.279  1.00  0.00     1.972 C  
HETATM   46  C   UNL     1      -9.124  18.402  66.559  1.00  0.00    -0.290 C  
HETATM   47  C   UNL     1     -11.035  19.059  65.093  1.00  0.00     0.874 C  
HETATM   48  C   UNL     1      -9.798  19.341  65.877  1.00  0.00    -0.218 C  
BRANCH  46  49
HETATM   49  C   UNL     1      -7.833  18.705  67.285  1.00  0.00    -0.232 C  
BRANCH  49  50
HETATM   50  N   UNL     1      -8.012  18.911  68.725  1.00  0.00    -0.335 NA 
HETATM   51  H   UNL     1      -7.116  18.996  69.204  1.00  0.00     0.000 HD 
BRANCH  50  52
HETATM   52  C   UNL     1      -8.882  20.068  69.001  1.00  0.00     0.206 C  
BRANCH  52  53
HETATM   53  C   UNL     1     -10.252  19.612  69.508  1.00  0.00     0.085 C  
HETATM   54  O   UNL     1     -10.403  19.920  70.891  1.00  0.00    -0.196 OA 
HETATM   55  H   UNL     1     -11.254  19.637  71.207  1.00  0.00     0.000 HD 
ENDBRANCH  52  53
ENDBRANCH  50  52
ENDBRANCH  49  50
ENDBRANCH  46  49
ENDBRANCH  39  40
ENDBRANCH  26  39
ENDBRANCH  15  16
ENDBRANCH   6  15
ENDBRANCH   2   4
TORSDOF 13
ENDMDL
MODEL      232
REMARK 921   NORMALIZED FREE ENERGY PREDICTED BY IDOCK:    3.25 KCAL/MOL
REMARK 922        TOTAL FREE ENERGY PREDICTED BY IDOCK:    2.26 KCAL/MOL
REMARK 923 INTER-LIGAND FREE ENERGY PREDICTED BY IDOCK:   -5.43 KCAL/MOL
REMARK 924 INTRA-LIGAND FREE ENERGY PREDICTED BY IDOCK:    7.70 KCAL/MOL
REMARK 927      BINDING AFFINITY PREDICTED BY RF-SCORE:    0.00 PKD
ROOT
HETATM    1  C   UNL     1     -10.650  10.230  70.394  1.00  0.00    -0.147 C  
HETATM    2  N   UNL     1      -9.238  10.038  70.076  1.00  0.00    -0.378 NA 
HETATM    3  H   UNL     1      -9.065   9.063  69.829  1.00  0.00     0.000 HD 
ENDROOT
BRANCH   2   4
HETATM    4  C   UNL     1      -8.688  10.937  69.017  1.00  0.00    -0.100 C  
HETATM    5  C   UNL     1      -9.736  11.954  68.498  1.00  0.00    -0.169 C  
HETATM    6  C   UNL     1      -9.057  12.956  67.538  1.00  0.00    -0.191 C  
HETATM    7  O   UNL     1     -10.383  12.626  69.581  1.00  0.00    -0.069 OA 
HETATM    8  H   UNL     1     -11.026  13.249  69.263  1.00  0.00     0.000 HD 
HETATM    9  O   UNL     1      -8.823   9.382  67.107  1.00  0.00    -0.127 OA 
HETATM   10  O   UNL     1      -8.519  12.239  66.426  1.00  0.00    -0.059 OA 
HETATM   11  H   UNL     1      -8.371   8.979  66.376  1.00  0.00     0.000 HD 
HETATM   12  C   UNL     1      -7.459  11.349  66.816  1.00  0.00    -0.137 C  
HETATM   13  C   UNL     1      -6.733   9.449  68.267  1.00  0.00    -0.059 C  
HETATM   14  C   UNL     1      -7.943  10.272  67.811  1.00  0.00    -0.102 C  
BRANCH   6  15
HETATM   15  O   UNL     1      -8.041  13.698  68.217  1.00  0.00    -0.141 OA 
BRANCH  15  16
HETATM   16  C   UNL     1      -8.352  15.069  68.520  1.00  0.00    -0.161 C  
HETATM   17  H1  UNL     1     -10.762  17.609  65.758  1.00  0.00     0.000 HD 
HETATM   18  C   UNL     1      -7.534  16.099  67.708  1.00  0.00    -0.133 C  
HETATM   19  C   UNL     1      -9.871  15.252  68.251  1.00  0.00    -0.218 C  
HETATM   20  H2  UNL     1      -9.194  18.117  65.400  1.00  0.00     0.000 HD 
HETATM   21  C   UNL     1      -9.345  16.099  65.876  1.00  0.00    -0.281 C  
HETATM   22  C   UNL     1      -7.849  15.945  66.210  1.00  0.00     0.164 C  
HETATM   23  O   UNL     1     -10.320  16.513  68.792  1.00  0.00    -0.249 OA 
HETATM   24  H   UNL     1     -11.250  16.625  68.626  1.00  0.00     0.000 HD 
HETATM   25  N   UNL     1      -9.772  17.507  65.978  1.00  0.00    -0.516 NA 
HETATM   26  C   UNL     1     -10.216  15.135  66.738  1.00  0.00    -0.264 C  
BRANCH  18  27
HETATM   27  N   UNL     1      -7.746  17.462  68.198  1.00  0.00    -0.213 N  
HETATM   28  H   UNL     1      -8.224  17.589  69.090  1.00  0.00     0.000 HD 
HETATM   29  C   UNL     1      -7.331  18.581  67.512  1.00  0.00    -0.219 C  
HETATM   30  O   UNL     1      -6.724  18.546  66.447  1.00  0.00    -0.186 OA 
BRANCH  29  31
HETATM   31  C   UNL     1      -7.665  19.909  68.210  1.00  0.00    -0.260 C  
HETATM   32  H   UNL     1      -9.141  21.219  68.208  1.00  0.00     0.000 HD 
HETATM   33  O   UNL     1      -8.935  20.398  67.776  1.00  0.00    -0.280 OA 
BRANCH  31  34
HETATM   34  C   UNL     1      -7.704  19.734  69.729  1.00  0.00     0.316 C  
BRANCH  34  35
HETATM   35  C   UNL     1      -6.544  20.457  70.414  1.00  0.00     0.126 C  
HETATM   36  H1  UNL     1      -4.681  21.161  69.927  1.00  0.00     0.000 HD 
HETATM   37  H2  UNL     1      -5.769  21.172  68.635  1.00  0.00     0.000 HD 
HETATM   38  N   UNL     1      -5.455  20.679  69.471  1.00  0.00    -0.329 NA 
ENDBRANCH  34  35
ENDBRANCH  31  34
ENDBRANCH  29  31
ENDBRANCH  18  27
BRANCH  26  39
HETATM   39  O   UNL     1      -9.994  13.840  66.183  1.00  0.00    -0.293 OA 
BRANCH  39  40
HETATM   40  C   UNL     1     -10.774  13.440  65.052  1.00  0.00    -0.343 C  
HETATM   41  H1  UNL     1     -13.322  12.557  67.247  1.00  0.00     0.000 HD 
HETATM   42  O   UNL     1     -10.236  12.270  64.428  1.00  0.00    -0.304 OA 
HETATM   43  H2  UNL     1     -11.824  13.221  67.586  1.00  0.00     0.000 HD 
HETATM   44  N   UNL     1     -12.365  12.675  66.915  1.00  0.00    -0.340 NA 
HETATM   45  C   UNL     1     -12.243  13.260  65.562  1.00  0.00    -0.457 C  
HETATM   46  C   UNL     1     -11.037  11.756  63.421  1.00  0.00    -0.365 C  
HETATM   47  C   UNL     1     -13.128  12.547  64.530  1.00  0.00    -0.044 C  
HETATM   48  C   UNL     1     -12.373  11.876  63.433  1.00  0.00    -0.577 C  
BRANCH  46  49
HETATM   49  C   UNL     1     -10.304  11.007  62.330  1.00  0.00     0.704 C  
BRANCH  49  50
HETATM   50  N   UNL     1      -9.275  10.098  62.841  1.00  0.00    -0.278 NA 
HETATM   51  H   UNL     1      -8.364  10.554  62.890  1.00  0.00     0.000 HD 
BRANCH  50  52
HETATM   52  C   UNL     1      -9.660   9.523  64.142  1.00  0.00     0.332 C  
BRANCH  52  53
HETATM   53  C   UNL     1      -8.776   8.324  64.492  1.00  0.00     0.158 C  
HETATM   54  O   UNL     1      -9.575   7.193  64.832  1.00  0.00     0.754 OA 
HETATM   55  H   UNL     1      -9.026   6.448  65.049  1.00  0.00     0.000 HD 
ENDBRANCH  52  53
ENDBRANCH  50  52
ENDBRANCH  49  50
ENDBRANCH  46  49
ENDBRANCH  39  40
ENDBRANCH  26  39
ENDBRANCH  15  16
ENDBRANCH   6  15
ENDBRANCH   2   4
TORSDOF 13
ENDMDL
MODEL      233
REMARK 921   NORMALIZED FREE ENERGY PREDICTED BY IDOCK:    3.26 KCAL/MOL
REMARK 922        TOTAL FREE ENERGY PREDICTED BY IDOCK:    2.27 KCAL/MOL
REMARK 923 INTER-LIGAND FREE ENERGY PREDICTED BY IDOCK:    0.28 KCAL/MOL
REMARK 924 INTRA-LIGAND FREE ENERGY PREDICTED BY IDOCK:    1.99 KCAL/MOL
REMARK 927      BINDING AFFINITY PREDICTED BY RF-SCORE:    0.00 PKD
ROOT
HETATM    1  C   UNL     1      -7.391   8.486  73.006  1.00  0.00     0.012 C  
HETATM    2  N   UNL     1      -8.548   7.711  72.569  1.00  0.00    -0.116 NA 
HETATM    3  H   UNL     1      -9.271   7.725  73.288  1.00  0.00     0.000 HD 
ENDROOT
BRANCH   2   4
HETATM    4  C   UNL     1      -9.131   8.109  71.252  1.00  0.00    -0.150 C  
HETATM    5  C   UNL     1     -10.020   9.374  71.356  1.00  0.00    -0.160 C  
HETATM    6  C   UNL     1     -10.446   9.827  69.941  1.00  0.00    -0.261 C  
HETATM    7  O   UNL     1      -9.346  10.422  72.057  1.00  0.00     3.597 OA 
HETATM    8  H   UNL     1      -9.891  11.198  72.120  1.00  0.00     0.000 HD 
HETATM    9  O   UNL     1     -10.971   6.470  71.153  1.00  0.00    -0.244 OA 
HETATM   10  O   UNL     1     -11.201   8.781  69.329  1.00  0.00     0.030 OA 
HETATM   11  H   UNL     1     -11.415   5.801  70.646  1.00  0.00     0.000 HD 
HETATM   12  C   UNL     1     -10.409   7.602  69.100  1.00  0.00    -0.213 C  
HETATM   13  C   UNL     1      -8.935   5.835  70.073  1.00  0.00    -0.147 C  
HETATM   14  C   UNL     1      -9.862   7.007  70.415  1.00  0.00    -0.179 C  
BRANCH   6  15
HETATM   15  O   UNL     1      -9.303  10.170  69.153  1.00  0.00    -0.174 OA 
BRANCH  15  16
HETATM   16  C   UNL     1      -9.337  11.457  68.513  1.00  0.00    -0.180 C  
HETATM   17  H1  UNL     1      -5.611  13.593  67.313  1.00  0.00     0.000 HD 
HETATM   18  C   UNL     1      -8.940  12.634  69.433  1.00  0.00     1.306 C  
HETATM   19  C   UNL     1      -8.375  11.374  67.296  1.00  0.00    -0.149 C  
HETATM   20  H2  UNL     1      -6.000  14.378  68.754  1.00  0.00     0.000 HD 
HETATM   21  C   UNL     1      -6.476  12.355  68.733  1.00  0.00    -0.084 C  
HETATM   22  C   UNL     1      -7.483  12.460  69.895  1.00  0.00     1.279 C  
HETATM   23  O   UNL     1      -8.560  12.524  66.441  1.00  0.00    -0.409 OA 
HETATM   24  H   UNL     1      -7.971  12.474  65.697  1.00  0.00     0.000 HD 
HETATM   25  N   UNL     1      -6.276  13.663  68.082  1.00  0.00    -0.103 NA 
HETATM   26  C   UNL     1      -6.888  11.233  67.733  1.00  0.00    -0.074 C  
BRANCH  18  27
HETATM   27  N   UNL     1      -9.185  13.926  68.792  1.00  0.00    -0.380 N  
HETATM   28  H   UNL     1      -8.506  14.675  68.932  1.00  0.00     0.000 HD 
HETATM   29  C   UNL     1     -10.287  14.181  68.009  1.00  0.00    -0.231 C  
HETATM   30  O   UNL     1     -11.151  13.350  67.749  1.00  0.00    -0.254 OA 
BRANCH  29  31
HETATM   31  C   UNL     1     -10.342  15.609  67.443  1.00  0.00    -0.275 C  
HETATM   32  H   UNL     1     -11.409  16.604  66.113  1.00  0.00     0.000 HD 
HETATM   33  O   UNL     1     -11.376  15.721  66.463  1.00  0.00    -0.076 OA 
BRANCH  31  34
HETATM   34  C   UNL     1     -10.610  16.627  68.551  1.00  0.00    -0.338 C  
BRANCH  34  35
HETATM   35  C   UNL     1     -10.361  18.060  68.079  1.00  0.00    -0.387 C  
HETATM   36  H1  UNL     1      -9.552  19.015  66.455  1.00  0.00     0.000 HD 
HETATM   37  H2  UNL     1     -10.249  17.521  66.086  1.00  0.00     0.000 HD 
HETATM   38  N   UNL     1      -9.718  18.060  66.770  1.00  0.00    -0.308 NA 
ENDBRANCH  34  35
ENDBRANCH  31  34
ENDBRANCH  29  31
ENDBRANCH  18  27
BRANCH  26  39
HETATM   39  O   UNL     1      -6.587  10.011  68.403  1.00  0.00    -0.054 OA 
BRANCH  39  40
HETATM   40  C   UNL     1      -7.277   8.824  67.999  1.00  0.00    -0.083 C  
HETATM   41  H1  UNL     1      -4.727   6.965  69.460  1.00  0.00     0.000 HD 
HETATM   42  O   UNL     1      -7.253   8.658  66.578  1.00  0.00    -0.078 OA 
HETATM   43  H2  UNL     1      -4.911   8.626  69.391  1.00  0.00     0.000 HD 
HETATM   44  N   UNL     1      -5.154   7.738  68.951  1.00  0.00    -0.022 NA 
HETATM   45  C   UNL     1      -6.621   7.637  68.780  1.00  0.00    -0.049 C  
HETATM   46  C   UNL     1      -7.777   7.450  66.148  1.00  0.00    -0.094 C  
HETATM   47  C   UNL     1      -7.056   6.272  68.228  1.00  0.00    -0.083 C  
HETATM   48  C   UNL     1      -7.711   6.333  66.890  1.00  0.00    -0.100 C  
BRANCH  46  49
HETATM   49  C   UNL     1      -8.385   7.463  64.764  1.00  0.00     0.008 C  
BRANCH  49  50
HETATM   50  N   UNL     1      -7.402   7.687  63.700  1.00  0.00    -0.086 NA 
HETATM   51  H   UNL     1      -6.727   8.405  63.961  1.00  0.00     0.000 HD 
BRANCH  50  52
HETATM   52  C   UNL     1      -6.733   6.433  63.312  1.00  0.00    -0.041 C  
BRANCH  52  53
HETATM   53  C   UNL     1      -7.667   5.235  63.498  1.00  0.00    -0.080 C  
HETATM   54  O   UNL     1      -8.816   5.360  62.664  1.00  0.00    -0.288 OA 
HETATM   55  H   UNL     1      -9.397   4.617  62.780  1.00  0.00     0.000 HD 
ENDBRANCH  52  53
ENDBRANCH  50  52
ENDBRANCH  49  50
ENDBRANCH  46  49
ENDBRANCH  39  40
ENDBRANCH  26  39
ENDBRANCH  15  16
ENDBRANCH   6  15
ENDBRANCH   2   4
TORSDOF 13
ENDMDL
MODEL      234
REMARK 921   NORMALIZED FREE ENERGY PREDICTED BY IDOCK:    3.57 KCAL/MOL
REMARK 922        TOTAL FREE ENERGY PREDICTED BY IDOCK:    2.82 KCAL/MOL
REMARK 923 INTER-LIGAND FREE ENERGY PREDICTED BY IDOCK:   -4.16 KCAL/MOL
REMARK 924 INTRA-LIGAND FREE ENERGY PREDICTED BY IDOCK:    6.98 KCAL/MOL
REMARK 927      BINDING AFFINITY PREDICTED BY RF-SCORE:    0.00 PKD
ROOT
HETATM    1  C   UNL     1     -13.655  10.128  70.717  1.00  0.00     0.137 C  
HETATM    2  N   UNL     1     -12.275  10.249  71.177  1.00  0.00    -0.364 NA 
HETATM    3  H   UNL     1     -11.927   9.338  71.480  1.00  0.00     0.000 HD 
ENDROOT
BRANCH   2   4
HETATM    4  C   UNL     1     -11.322  10.861  70.203  1.00  0.00    -0.284 C  
HETATM    5  C   UNL     1     -11.948  12.047  69.426  1.00  0.00    -0.275 C  
HETATM    6  C   UNL     1     -10.863  12.737  68.569  1.00  0.00    -0.253 C  
HETATM    7  O   UNL     1     -12.575  12.972  70.316  1.00  0.00    -0.172 OA 
HETATM    8  H   UNL     1     -12.959  13.699  69.840  1.00  0.00     0.000 HD 
HETATM    9  O   UNL     1     -11.521   9.194  68.396  1.00  0.00    -0.219 OA 
HETATM   10  O   UNL     1     -10.344  11.792  67.632  1.00  0.00    -0.194 OA 
HETATM   11  H   UNL     1     -11.069   8.613  67.795  1.00  0.00     0.000 HD 
HETATM   12  C   UNL     1      -9.650  10.711  68.278  1.00  0.00    -0.162 C  
HETATM   13  C   UNL     1      -9.735   8.856  69.950  1.00  0.00    -0.185 C  
HETATM   14  C   UNL     1     -10.577   9.904  69.213  1.00  0.00    -0.224 C  
BRANCH   6  15
HETATM   15  O   UNL     1      -9.825  13.268  69.397  1.00  0.00     0.462 OA 
BRANCH  15  16
HETATM   16  C   UNL     1      -8.529  12.659  69.260  1.00  0.00     0.894 C  
HETATM   17  H1  UNL     1      -5.150  14.742  67.226  1.00  0.00     0.000 HD 
HETATM   18  C   UNL     1      -8.217  12.148  67.835  1.00  0.00    -0.155 C  
HETATM   19  C   UNL     1      -7.488  13.728  69.691  1.00  0.00     0.467 C  
HETATM   20  H2  UNL     1      -5.688  13.705  66.009  1.00  0.00     0.000 HD 
HETATM   21  C   UNL     1      -7.201  14.438  67.232  1.00  0.00     0.000 C  
HETATM   22  C   UNL     1      -8.205  13.332  66.852  1.00  0.00     0.031 C  
HETATM   23  O   UNL     1      -6.189  13.116  69.849  1.00  0.00    -0.182 OA 
HETATM   24  H   UNL     1      -5.551  13.770  70.112  1.00  0.00     0.000 HD 
HETATM   25  N   UNL     1      -5.814  14.010  66.975  1.00  0.00     0.337 NA 
HETATM   26  C   UNL     1      -7.428  14.923  68.696  1.00  0.00    -0.124 C  
BRANCH  18  27
HETATM   27  N   UNL     1      -6.981  11.366  67.801  1.00  0.00    -0.073 N  
HETATM   28  H   UNL     1      -6.343  11.431  68.595  1.00  0.00     0.000 HD 
HETATM   29  C   UNL     1      -6.636  10.548  66.749  1.00  0.00    -0.086 C  
HETATM   30  O   UNL     1      -7.337  10.373  65.759  1.00  0.00    -0.137 OA 
BRANCH  29  31
HETATM   31  C   UNL     1      -5.289   9.828  66.926  1.00  0.00    -0.041 C  
HETATM   32  H   UNL     1      -4.330   8.876  68.364  1.00  0.00     0.000 HD 
HETATM   33  O   UNL     1      -5.162   9.321  68.255  1.00  0.00    -0.037 OA 
BRANCH  31  34
HETATM   34  C   UNL     1      -5.159   8.663  65.945  1.00  0.00    -0.027 C  
BRANCH  34  35
HETATM   35  C   UNL     1      -5.326   7.313  66.641  1.00  0.00    -0.023 C  
HETATM   36  H1  UNL     1      -5.260   5.323  66.152  1.00  0.00     0.000 HD 
HETATM   37  H2  UNL     1      -4.258   6.290  65.196  1.00  0.00     0.000 HD 
HETATM   38  N   UNL     1      -5.149   6.224  65.688  1.00  0.00    -0.013 NA 
ENDBRANCH  34  35
ENDBRANCH  31  34
ENDBRANCH  29  31
ENDBRANCH  18  27
BRANCH  26  39
HETATM   39  O   UNL     1      -8.618  15.707  68.647  1.00  0.00    -0.167 OA 
BRANCH  39  40
HETATM   40  C   UNL     1      -8.577  17.041  69.160  1.00  0.00    -0.024 C  
HETATM   41  H1  UNL     1     -11.352  17.776  67.197  1.00  0.00     0.000 HD 
HETATM   42  O   UNL     1      -7.433  17.756  68.681  1.00  0.00    -0.258 OA 
HETATM   43  H2  UNL     1     -10.534  16.325  67.364  1.00  0.00     0.000 HD 
HETATM   44  N   UNL     1     -10.464  17.340  67.446  1.00  0.00    -0.347 NA 
HETATM   45  C   UNL     1      -9.940  17.711  68.779  1.00  0.00    -0.358 C  
HETATM   46  C   UNL     1      -7.427  19.097  69.029  1.00  0.00    -0.318 C  
HETATM   47  C   UNL     1      -9.919  19.230  69.002  1.00  0.00    -0.446 C  
HETATM   48  C   UNL     1      -8.556  19.802  69.195  1.00  0.00     0.023 C  
BRANCH  46  49
HETATM   49  C   UNL     1      -6.058  19.724  69.162  1.00  0.00    -0.282 C  
BRANCH  49  50
HETATM   50  N   UNL     1      -5.276  19.681  67.923  1.00  0.00    -0.171 NA 
HETATM   51  H   UNL     1      -4.502  19.021  67.994  1.00  0.00     0.000 HD 
BRANCH  50  52
HETATM   52  C   UNL     1      -6.129  19.387  66.757  1.00  0.00    -0.169 C  
BRANCH  52  53
HETATM   53  C   UNL     1      -6.830  20.654  66.261  1.00  0.00    -0.214 C  
HETATM   54  O   UNL     1      -8.232  20.435  66.129  1.00  0.00    -0.529 OA 
HETATM   55  H   UNL     1      -8.666  21.221  65.821  1.00  0.00     0.000 HD 
ENDBRANCH  52  53
ENDBRANCH  50  52
ENDBRANCH  49  50
ENDBRANCH  46  49
ENDBRANCH  39  40
ENDBRANCH  26  39
ENDBRANCH  15  16
ENDBRANCH   6  15
ENDBRANCH   2   4
TORSDOF 13
ENDMDL
MODEL      235
REMARK 921   NORMALIZED FREE ENERGY PREDICTED BY IDOCK:    3.63 KCAL/MOL
REMARK 922        TOTAL FREE ENERGY PREDICTED BY IDOCK:    2.93 KCAL/MOL
REMARK 923 INTER-LIGAND FREE ENERGY PREDICTED BY IDOCK:   -2.99 KCAL/MOL
REMARK 924 INTRA-LIGAND FREE ENERGY PREDICTED BY IDOCK:    5.92 KCAL/MOL
REMARK 927      BINDING AFFINITY PREDICTED BY RF-SCORE:    0.00 PKD
ROOT
HETATM    1  C   UNL     1     -12.686  13.288  66.230  1.00  0.00     0.129 C  
HETATM    2  N   UNL     1     -12.405  11.944  66.727  1.00  0.00     0.106 NA 
HETATM    3  H   UNL     1     -12.091  11.347  65.961  1.00  0.00     0.000 HD 
ENDROOT
BRANCH   2   4
HETATM    4  C   UNL     1     -11.439  11.866  67.864  1.00  0.00    -0.316 C  
HETATM    5  C   UNL     1      -9.989  11.591  67.392  1.00  0.00    -0.190 C  
HETATM    6  C   UNL     1      -9.023  11.695  68.594  1.00  0.00    -0.084 C  
HETATM    7  O   UNL     1      -9.610  12.484  66.342  1.00  0.00    -0.240 OA 
HETATM    8  H   UNL     1      -8.721  12.315  66.053  1.00  0.00     0.000 HD 
HETATM    9  O   UNL     1     -11.939   9.571  68.615  1.00  0.00     0.175 OA 
HETATM   10  O   UNL     1      -9.388  10.713  69.565  1.00  0.00    -0.125 OA 
HETATM   11  H   UNL     1     -12.158   9.002  69.343  1.00  0.00     0.000 HD 
HETATM   12  C   UNL     1     -10.685  10.965  70.132  1.00  0.00     0.122 C  
HETATM   13  C   UNL     1     -13.124  11.326  69.726  1.00  0.00     0.669 C  
HETATM   14  C   UNL     1     -11.800  10.928  69.064  1.00  0.00    -0.299 C  
BRANCH   6  15
HETATM   15  O   UNL     1      -9.049  13.011  69.153  1.00  0.00     0.402 OA 
BRANCH  15  16
HETATM   16  C   UNL     1      -8.678  14.083  68.270  1.00  0.00    -0.182 C  
HETATM   17  H1  UNL     1      -4.413  15.054  67.400  1.00  0.00     0.000 HD 
HETATM   18  C   UNL     1      -8.140  15.340  68.990  1.00  0.00    -0.202 C  
HETATM   19  C   UNL     1      -7.604  13.513  67.303  1.00  0.00    -0.058 C  
HETATM   20  H2  UNL     1      -4.799  16.228  68.548  1.00  0.00     0.000 HD 
HETATM   21  C   UNL     1      -5.745  14.402  68.849  1.00  0.00    -0.082 C  
HETATM   22  C   UNL     1      -6.849  14.989  69.749  1.00  0.00    -0.181 C  
HETATM   23  O   UNL     1      -7.381  14.434  66.213  1.00  0.00     0.796 OA 
HETATM   24  H   UNL     1      -6.724  14.085  65.622  1.00  0.00     0.000 HD 
HETATM   25  N   UNL     1      -5.144  15.443  67.995  1.00  0.00    -0.121 NA 
HETATM   26  C   UNL     1      -6.273  13.180  68.038  1.00  0.00    -0.117 C  
BRANCH  18  27
HETATM   27  N   UNL     1      -7.971  16.461  68.064  1.00  0.00    -0.153 N  
HETATM   28  H   UNL     1      -8.236  16.329  67.088  1.00  0.00     0.000 HD 
HETATM   29  C   UNL     1      -7.469  17.684  68.447  1.00  0.00    -0.253 C  
HETATM   30  O   UNL     1      -7.145  17.963  69.597  1.00  0.00    -0.004 OA 
BRANCH  29  31
HETATM   31  C   UNL     1      -7.372  18.711  67.307  1.00  0.00    -0.217 C  
HETATM   32  H   UNL     1      -6.230  19.024  65.729  1.00  0.00     0.000 HD 
HETATM   33  O   UNL     1      -6.289  18.389  66.434  1.00  0.00    -0.169 OA 
BRANCH  31  34
HETATM   34  C   UNL     1      -8.664  18.745  66.490  1.00  0.00    -0.317 C  
BRANCH  34  35
HETATM   35  C   UNL     1      -9.854  19.213  67.327  1.00  0.00    -0.334 C  
HETATM   36  H1  UNL     1     -10.540  20.951  68.171  1.00  0.00     0.000 HD 
HETATM   37  H2  UNL     1      -9.642  21.190  66.761  1.00  0.00     0.000 HD 
HETATM   38  N   UNL     1      -9.747  20.639  67.612  1.00  0.00    -0.373 NA 
ENDBRANCH  34  35
ENDBRANCH  31  34
ENDBRANCH  29  31
ENDBRANCH  18  27
BRANCH  26  39
HETATM   39  O   UNL     1      -6.375  12.121  68.987  1.00  0.00    -0.073 OA 
BRANCH  39  40
HETATM   40  C   UNL     1      -6.038  10.795  68.569  1.00  0.00    -0.043 C  
HETATM   41  H1  UNL     1      -5.499  12.049  65.370  1.00  0.00     0.000 HD 
HETATM   42  O   UNL     1      -7.181   9.934  68.573  1.00  0.00    -0.074 OA 
HETATM   43  H2  UNL     1      -5.951  12.866  66.759  1.00  0.00     0.000 HD 
HETATM   44  N   UNL     1      -5.942  11.963  66.285  1.00  0.00    -0.005 NA 
HETATM   45  C   UNL     1      -5.357  10.927  67.166  1.00  0.00    -0.047 C  
HETATM   46  C   UNL     1      -6.938   8.681  68.034  1.00  0.00    -0.075 C  
HETATM   47  C   UNL     1      -5.213   9.569  66.464  1.00  0.00    -0.044 C  
HETATM   48  C   UNL     1      -6.030   8.478  67.068  1.00  0.00    -0.053 C  
BRANCH  46  49
HETATM   49  C   UNL     1      -7.801   7.565  68.577  1.00  0.00    -0.122 C  
BRANCH  49  50
HETATM   50  N   UNL     1      -8.867   7.156  67.657  1.00  0.00    -0.120 NA 
HETATM   51  H   UNL     1      -8.957   7.807  66.877  1.00  0.00     0.000 HD 
BRANCH  50  52
HETATM   52  C   UNL     1      -8.673   5.774  67.186  1.00  0.00    -0.108 C  
BRANCH  52  53
HETATM   53  C   UNL     1      -9.836   5.333  66.294  1.00  0.00    -0.182 C  
HETATM   54  O   UNL     1     -10.743   6.412  66.081  1.00  0.00    -0.422 OA 
HETATM   55  H   UNL     1     -11.465   6.137  65.528  1.00  0.00     0.000 HD 
ENDBRANCH  52  53
ENDBRANCH  50  52
ENDBRANCH  49  50
ENDBRANCH  46  49
ENDBRANCH  39  40
ENDBRANCH  26  39
ENDBRANCH  15  16
ENDBRANCH   6  15
ENDBRANCH   2   4
TORSDOF 13
ENDMDL
MODEL      236
REMARK 921   NORMALIZED FREE ENERGY PREDICTED BY IDOCK:    4.03 KCAL/MOL
REMARK 922        TOTAL FREE ENERGY PREDICTED BY IDOCK:    3.62 KCAL/MOL
REMARK 923 INTER-LIGAND FREE ENERGY PREDICTED BY IDOCK:   -0.84 KCAL/MOL
REMARK 924 INTRA-LIGAND FREE ENERGY PREDICTED BY IDOCK:    4.46 KCAL/MOL
REMARK 927      BINDING AFFINITY PREDICTED BY RF-SCORE:    0.00 PKD
ROOT
HETATM    1  C   UNL     1     -13.862  15.130  70.039  1.00  0.00     1.345 C  
HETATM    2  N   UNL     1     -12.464  14.938  70.412  1.00  0.00    -0.349 NA 
HETATM    3  H   UNL     1     -12.346  14.033  70.869  1.00  0.00     0.000 HD 
ENDROOT
BRANCH   2   4
HETATM    4  C   UNL     1     -11.475  15.082  69.303  1.00  0.00    -0.307 C  
HETATM    5  C   UNL     1     -10.066  15.479  69.812  1.00  0.00    -0.285 C  
HETATM    6  C   UNL     1      -9.060  15.442  68.640  1.00  0.00    -0.195 C  
HETATM    7  O   UNL     1      -9.648  14.631  70.884  1.00  0.00     0.910 OA 
HETATM    8  H   UNL     1      -8.784  14.875  71.196  1.00  0.00     0.000 HD 
HETATM    9  O   UNL     1     -12.137  17.321  68.508  1.00  0.00     0.788 OA 
HETATM   10  O   UNL     1      -9.474  16.381  67.646  1.00  0.00    -0.222 OA 
HETATM   11  H   UNL     1     -12.380  17.863  67.767  1.00  0.00     0.000 HD 
HETATM   12  C   UNL     1     -10.730  16.019  67.046  1.00  0.00    -0.277 C  
HETATM   13  C   UNL     1     -13.142  15.465  67.386  1.00  0.00     3.339 C  
HETATM   14  C   UNL     1     -11.875  15.975  68.081  1.00  0.00     0.071 C  
BRANCH   6  15
HETATM   15  O   UNL     1      -8.963  14.123  68.097  1.00  0.00    -0.174 OA 
BRANCH  15  16
HETATM   16  C   UNL     1      -8.444  13.111  68.977  1.00  0.00     0.433 C  
HETATM   17  H1  UNL     1      -4.289  11.540  68.572  1.00  0.00     0.000 HD 
HETATM   18  C   UNL     1      -8.341  11.707  68.338  1.00  0.00    -0.157 C  
HETATM   19  C   UNL     1      -7.042  13.598  69.437  1.00  0.00     0.080 C  
HETATM   20  H2  UNL     1      -5.184  10.325  67.818  1.00  0.00     0.000 HD 
HETATM   21  C   UNL     1      -5.949  12.238  67.543  1.00  0.00    -0.136 C  
HETATM   22  C   UNL     1      -7.357  11.747  67.156  1.00  0.00    -0.146 C  
HETATM   23  O   UNL     1      -6.571  12.783  70.533  1.00  0.00    -0.406 OA 
HETATM   24  H   UNL     1      -5.714  13.081  70.815  1.00  0.00     0.000 HD 
HETATM   25  N   UNL     1      -5.221  11.215  68.315  1.00  0.00    -0.040 NA 
HETATM   26  C   UNL     1      -6.015  13.616  68.269  1.00  0.00    -0.106 C  
BRANCH  18  27
HETATM   27  N   UNL     1      -8.000  10.687  69.330  1.00  0.00    -0.291 N  
HETATM   28  H   UNL     1      -7.473  10.970  70.157  1.00  0.00     0.000 HD 
HETATM   29  C   UNL     1      -8.356   9.364  69.202  1.00  0.00    -0.125 C  
HETATM   30  O   UNL     1      -9.013   8.918  68.267  1.00  0.00    -0.137 OA 
BRANCH  29  31
HETATM   31  C   UNL     1      -7.887   8.469  70.360  1.00  0.00    -0.089 C  
HETATM   32  H   UNL     1      -7.236   8.709  72.208  1.00  0.00     0.000 HD 
HETATM   33  O   UNL     1      -7.526   9.263  71.492  1.00  0.00    -0.336 OA 
BRANCH  31  34
HETATM   34  C   UNL     1      -8.986   7.493  70.779  1.00  0.00    -0.149 C  
BRANCH  34  35
HETATM   35  C   UNL     1      -9.680   7.937  72.067  1.00  0.00    -0.187 C  
HETATM   36  H1  UNL     1     -11.321   9.035  72.618  1.00  0.00     0.000 HD 
HETATM   37  H2  UNL     1     -11.497   8.250  71.133  1.00  0.00     0.000 HD 
HETATM   38  N   UNL     1     -10.858   8.739  71.760  1.00  0.00    -0.320 NA 
ENDBRANCH  34  35
ENDBRANCH  31  34
ENDBRANCH  29  31
ENDBRANCH  18  27
BRANCH  26  39
HETATM   39  O   UNL     1      -6.308  14.562  67.243  1.00  0.00    -0.301 OA 
BRANCH  39  40
HETATM   40  C   UNL     1      -5.812  15.897  67.384  1.00  0.00    -0.076 C  
HETATM   41  H1  UNL     1      -6.089  15.529  70.831  1.00  0.00     0.000 HD 
HETATM   42  O   UNL     1      -6.759  16.862  66.915  1.00  0.00    -0.176 OA 
HETATM   43  H2  UNL     1      -6.430  14.422  69.623  1.00  0.00     0.000 HD 
HETATM   44  N   UNL     1      -6.340  15.412  69.849  1.00  0.00    -0.160 NA 
HETATM   45  C   UNL     1      -5.427  16.075  68.890  1.00  0.00    -0.108 C  
HETATM   46  C   UNL     1      -6.389  18.174  67.167  1.00  0.00    -0.168 C  
HETATM   47  C   UNL     1      -5.163  17.545  69.248  1.00  0.00    -0.173 C  
HETATM   48  C   UNL     1      -5.645  18.520  68.228  1.00  0.00    -0.175 C  
BRANCH  46  49
HETATM   49  C   UNL     1      -6.923  19.196  66.189  1.00  0.00    -0.244 C  
BRANCH  49  50
HETATM   50  N   UNL     1      -8.354  19.042  65.912  1.00  0.00    -0.446 NA 
HETATM   51  H   UNL     1      -8.611  18.060  65.809  1.00  0.00     0.000 HD 
BRANCH  50  52
HETATM   52  C   UNL     1      -9.177  19.710  66.936  1.00  0.00    -0.350 C  
BRANCH  52  53
HETATM   53  C   UNL     1     -10.668  19.519  66.648  1.00  0.00    -0.445 C  
HETATM   54  O   UNL     1     -10.858  18.881  65.388  1.00  0.00    -0.553 OA 
HETATM   55  H   UNL     1     -11.784  18.763  65.209  1.00  0.00     0.000 HD 
ENDBRANCH  52  53
ENDBRANCH  50  52
ENDBRANCH  49  50
ENDBRANCH  46  49
ENDBRANCH  39  40
ENDBRANCH  26  39
ENDBRANCH  15  16
ENDBRANCH   6  15
ENDBRANCH   2   4
TORSDOF 13
ENDMDL
MODEL      237
REMARK 921   NORMALIZED FREE ENERGY PREDICTED BY IDOCK:    4.12 KCAL/MOL
REMARK 922        TOTAL FREE ENERGY PREDICTED BY IDOCK:    3.78 KCAL/MOL
REMARK 923 INTER-LIGAND FREE ENERGY PREDICTED BY IDOCK:    2.20 KCAL/MOL
REMARK 924 INTRA-LIGAND FREE ENERGY PREDICTED BY IDOCK:    1.58 KCAL/MOL
REMARK 927      BINDING AFFINITY PREDICTED BY RF-SCORE:    0.00 PKD
ROOT
HETATM    1  C   UNL     1     -11.581  10.740  70.490  1.00  0.00    -0.330 C  
HETATM    2  N   UNL     1     -11.135  12.115  70.291  1.00  0.00    -0.044 NA 
HETATM    3  H   UNL     1     -10.798  12.504  71.172  1.00  0.00     0.000 HD 
ENDROOT
BRANCH   2   4
HETATM    4  C   UNL     1     -10.110  12.313  69.222  1.00  0.00     0.435 C  
HETATM    5  C   UNL     1      -8.663  12.135  69.747  1.00  0.00     2.254 C  
HETATM    6  C   UNL     1      -7.671  12.181  68.563  1.00  0.00    -0.119 C  
HETATM    7  O   UNL     1      -8.530  10.922  70.491  1.00  0.00     0.693 OA 
HETATM    8  H   UNL     1      -7.642  10.813  70.813  1.00  0.00     0.000 HD 
HETATM    9  O   UNL     1     -10.099  14.778  69.172  1.00  0.00    -0.224 OA 
HETATM   10  O   UNL     1      -7.777  13.452  67.920  1.00  0.00    -0.122 OA 
HETATM   11  H   UNL     1     -10.159  15.564  68.642  1.00  0.00     0.000 HD 
HETATM   12  C   UNL     1      -9.065  13.647  67.311  1.00  0.00    -0.228 C  
HETATM   13  C   UNL     1     -11.546  13.699  67.604  1.00  0.00    -0.381 C  
HETATM   14  C   UNL     1     -10.209  13.607  68.348  1.00  0.00    -0.245 C  
BRANCH   6  15
HETATM   15  O   UNL     1      -7.928  11.114  67.645  1.00  0.00    -0.112 OA 
BRANCH  15  16
HETATM   16  C   UNL     1      -7.900   9.785  68.193  1.00  0.00    -0.085 C  
HETATM   17  H1  UNL     1      -8.354   6.166  65.627  1.00  0.00     0.000 HD 
HETATM   18  C   UNL     1      -9.285   9.104  68.274  1.00  0.00    -0.132 C  
HETATM   19  C   UNL     1      -6.940   8.954  67.298  1.00  0.00    -0.078 C  
HETATM   20  H2  UNL     1      -9.906   6.322  66.267  1.00  0.00     0.000 HD 
HETATM   21  C   UNL     1      -8.948   8.132  65.912  1.00  0.00    -0.151 C  
HETATM   22  C   UNL     1      -9.862   8.936  66.857  1.00  0.00    -0.288 C  
HETATM   23  O   UNL     1      -6.638   7.693  67.935  1.00  0.00    -0.055 OA 
HETATM   24  H   UNL     1      -6.051   7.185  67.387  1.00  0.00     0.000 HD 
HETATM   25  N   UNL     1      -8.958   6.698  66.253  1.00  0.00    -0.152 NA 
HETATM   26  C   UNL     1      -7.513   8.738  65.868  1.00  0.00    -0.089 C  
BRANCH  18  27
HETATM   27  N   UNL     1      -9.224   7.845  69.018  1.00  0.00    -0.148 N  
HETATM   28  H   UNL     1      -9.113   6.976  68.495  1.00  0.00     0.000 HD 
HETATM   29  C   UNL     1      -9.310   7.777  70.390  1.00  0.00    -0.160 C  
HETATM   30  O   UNL     1      -9.417   8.757  71.119  1.00  0.00    -0.194 OA 
BRANCH  29  31
HETATM   31  C   UNL     1      -9.230   6.351  70.957  1.00  0.00    -0.154 C  
HETATM   32  H   UNL     1      -9.480   4.509  70.293  1.00  0.00     0.000 HD 
HETATM   33  O   UNL     1      -9.530   5.391  69.942  1.00  0.00    -0.145 OA 
BRANCH  31  34
HETATM   34  C   UNL     1      -7.835   6.058  71.508  1.00  0.00    -0.106 C  
BRANCH  34  35
HETATM   35  C   UNL     1      -7.138   4.943  70.728  1.00  0.00    -0.048 C  
HETATM   36  H1  UNL     1      -7.033   2.896  70.753  1.00  0.00     0.000 HD 
HETATM   37  H2  UNL     1      -8.508   3.507  71.304  1.00  0.00     0.000 HD 
HETATM   38  N   UNL     1      -7.498   3.639  71.273  1.00  0.00    -0.043 NA 
ENDBRANCH  34  35
ENDBRANCH  31  34
ENDBRANCH  29  31
ENDBRANCH  18  27
BRANCH  26  39
HETATM   39  O   UNL     1      -7.638   9.932  65.098  1.00  0.00    -0.120 OA 
BRANCH  39  40
HETATM   40  C   UNL     1      -8.942  10.330  64.664  1.00  0.00    -0.211 C  
HETATM   41  H1  UNL     1      -8.208   8.975  61.546  1.00  0.00     0.000 HD 
HETATM   42  O   UNL     1      -9.053  11.753  64.567  1.00  0.00     0.137 OA 
HETATM   43  H2  UNL     1      -7.262   9.016  62.926  1.00  0.00     0.000 HD 
HETATM   44  N   UNL     1      -8.033   9.460  62.427  1.00  0.00    -0.116 NA 
HETATM   45  C   UNL     1      -9.211   9.586  63.313  1.00  0.00     0.014 C  
HETATM   46  C   UNL     1     -10.246  12.183  64.009  1.00  0.00    -0.370 C  
HETATM   47  C   UNL     1     -10.441  10.144  62.582  1.00  0.00     1.472 C  
HETATM   48  C   UNL     1     -10.916  11.459  63.099  1.00  0.00    -0.129 C  
BRANCH  46  49
HETATM   49  C   UNL     1     -10.718  13.547  64.460  1.00  0.00    -0.418 C  
BRANCH  49  50
HETATM   50  N   UNL     1     -11.351  14.325  63.391  1.00  0.00     0.404 NA 
HETATM   51  H   UNL     1     -11.651  13.726  62.622  1.00  0.00     0.000 HD 
BRANCH  50  52
HETATM   52  C   UNL     1     -12.466  15.140  63.905  1.00  0.00     0.313 C  
BRANCH  52  53
HETATM   53  C   UNL     1     -11.950  16.446  64.514  1.00  0.00     0.557 C  
HETATM   54  O   UNL     1     -11.344  17.262  63.514  1.00  0.00     1.122 OA 
HETATM   55  H   UNL     1     -11.023  18.072  63.893  1.00  0.00     0.000 HD 
ENDBRANCH  52  53
ENDBRANCH  50  52
ENDBRANCH  49  50
ENDBRANCH  46  49
ENDBRANCH  39  40
ENDBRANCH  26  39
ENDBRANCH  15  16
ENDBRANCH   6  15
ENDBRANCH   2   4
TORSDOF 13
ENDMDL
MODEL      238
REMARK 921   NORMALIZED FREE ENERGY PREDICTED BY IDOCK:    4.43 KCAL/MOL
REMARK 922        TOTAL FREE ENERGY PREDICTED BY IDOCK:    4.33 KCAL/MOL
REMARK 923 INTER-LIGAND FREE ENERGY PREDICTED BY IDOCK:   -0.05 KCAL/MOL
REMARK 924 INTRA-LIGAND FREE ENERGY PREDICTED BY IDOCK:    4.37 KCAL/MOL
REMARK 927      BINDING AFFINITY PREDICTED BY RF-SCORE:    0.00 PKD
ROOT
HETATM    1  C   UNL     1      -5.302  17.571  69.659  1.00  0.00    -0.197 C  
HETATM    2  N   UNL     1      -6.715  17.863  69.443  1.00  0.00    -0.213 NA 
HETATM    3  H   UNL     1      -6.829  18.438  68.608  1.00  0.00     0.000 HD 
ENDROOT
BRANCH   2   4
HETATM    4  C   UNL     1      -7.616  16.673  69.368  1.00  0.00    -0.028 C  
HETATM    5  C   UNL     1      -8.984  16.921  70.052  1.00  0.00     1.631 C  
HETATM    6  C   UNL     1      -9.921  15.721  69.789  1.00  0.00    -0.250 C  
HETATM    7  O   UNL     1      -9.569  18.146  69.605  1.00  0.00     0.302 OA 
HETATM    8  H   UNL     1     -10.408  18.298  70.024  1.00  0.00     0.000 HD 
HETATM    9  O   UNL     1      -6.619  15.343  71.190  1.00  0.00     0.629 OA 
HETATM   10  O   UNL     1      -9.333  14.545  70.345  1.00  0.00     1.044 OA 
HETATM   11  H   UNL     1      -6.266  14.504  71.462  1.00  0.00     0.000 HD 
HETATM   12  C   UNL     1      -8.107  14.186  69.686  1.00  0.00     0.612 C  
HETATM   13  C   UNL     1      -5.811  14.885  68.987  1.00  0.00    -0.096 C  
HETATM   14  C   UNL     1      -7.034  15.290  69.817  1.00  0.00    -0.168 C  
BRANCH   6  15
HETATM   15  O   UNL     1     -10.164  15.566  68.388  1.00  0.00    -0.211 OA 
BRANCH  15  16
HETATM   16  C   UNL     1      -9.894  14.265  67.838  1.00  0.00    -0.226 C  
HETATM   17  H1  UNL     1      -9.354  13.625  63.457  1.00  0.00     0.000 HD 
HETATM   18  C   UNL     1     -11.101  13.615  67.124  1.00  0.00    -0.297 C  
HETATM   19  C   UNL     1      -8.710  14.439  66.847  1.00  0.00    -0.193 C  
HETATM   20  H2  UNL     1     -10.949  13.123  63.677  1.00  0.00     0.000 HD 
HETATM   21  C   UNL     1     -10.379  14.701  64.903  1.00  0.00    -0.350 C  
HETATM   22  C   UNL     1     -11.515  14.477  65.919  1.00  0.00    -0.345 C  
HETATM   23  O   UNL     1      -8.195  13.145  66.462  1.00  0.00    -0.386 OA 
HETATM   24  H   UNL     1      -7.471  13.251  65.855  1.00  0.00     0.000 HD 
HETATM   25  N   UNL     1     -10.106  13.476  64.129  1.00  0.00    -0.133 NA 
HETATM   26  C   UNL     1      -9.109  15.278  65.598  1.00  0.00     0.225 C  
BRANCH  18  27
HETATM   27  N   UNL     1     -10.830  12.223  66.764  1.00  0.00    -0.244 N  
HETATM   28  H   UNL     1     -10.415  12.030  65.852  1.00  0.00     0.000 HD 
HETATM   29  C   UNL     1     -11.106  11.163  67.596  1.00  0.00    -0.287 C  
HETATM   30  O   UNL     1     -11.577  11.279  68.722  1.00  0.00    -0.262 OA 
BRANCH  29  31
HETATM   31  C   UNL     1     -10.744   9.789  67.008  1.00  0.00    -0.166 C  
HETATM   32  H   UNL     1     -10.348   9.030  65.230  1.00  0.00     0.000 HD 
HETATM   33  O   UNL     1     -10.572   9.879  65.593  1.00  0.00    -0.039 OA 
BRANCH  31  34
HETATM   34  C   UNL     1      -9.451   9.254  67.623  1.00  0.00    -0.156 C  
BRANCH  34  35
HETATM   35  C   UNL     1      -9.692   7.983  68.437  1.00  0.00    -0.158 C  
HETATM   36  H1  UNL     1     -11.019   6.420  68.473  1.00  0.00     0.000 HD 
HETATM   37  H2  UNL     1     -10.777   7.070  66.933  1.00  0.00     0.000 HD 
HETATM   38  N   UNL     1     -10.857   7.268  67.930  1.00  0.00    -0.157 NA 
ENDBRANCH  34  35
ENDBRANCH  31  34
ENDBRANCH  29  31
ENDBRANCH  18  27
BRANCH  26  39
HETATM   39  O   UNL     1      -9.428  16.639  65.883  1.00  0.00    -0.447 OA 
BRANCH  39  40
HETATM   40  C   UNL     1      -8.424  17.634  65.664  1.00  0.00     0.567 C  
HETATM   41  H1  UNL     1      -6.027  15.256  66.495  1.00  0.00     0.000 HD 
HETATM   42  O   UNL     1      -8.469  18.657  66.665  1.00  0.00    -0.274 OA 
HETATM   43  H2  UNL     1      -7.689  15.090  66.410  1.00  0.00     0.000 HD 
HETATM   44  N   UNL     1      -6.920  15.747  66.539  1.00  0.00     0.078 NA 
HETATM   45  C   UNL     1      -7.053  16.882  65.598  1.00  0.00     1.083 C  
HETATM   46  C   UNL     1      -7.424  19.563  66.584  1.00  0.00    -0.250 C  
HETATM   47  C   UNL     1      -5.861  17.846  65.667  1.00  0.00    -0.179 C  
HETATM   48  C   UNL     1      -6.212  19.223  66.119  1.00  0.00    -0.195 C  
BRANCH  46  49
HETATM   49  C   UNL     1      -7.729  20.950  67.102  1.00  0.00    -0.196 C  
BRANCH  49  50
HETATM   50  N   UNL     1      -9.140  21.144  67.447  1.00  0.00    -0.432 NA 
HETATM   51  H   UNL     1      -9.330  22.110  67.710  1.00  0.00     0.000 HD 
BRANCH  50  52
HETATM   52  C   UNL     1     -10.027  20.696  66.360  1.00  0.00     0.030 C  
BRANCH  52  53
HETATM   53  C   UNL     1     -11.301  20.060  66.922  1.00  0.00     0.709 C  
HETATM   54  O   UNL     1     -11.029  18.757  67.433  1.00  0.00    -0.422 OA 
HETATM   55  H   UNL     1     -11.819  18.362  67.782  1.00  0.00     0.000 HD 
ENDBRANCH  52  53
ENDBRANCH  50  52
ENDBRANCH  49  50
ENDBRANCH  46  49
ENDBRANCH  39  40
ENDBRANCH  26  39
ENDBRANCH  15  16
ENDBRANCH   6  15
ENDBRANCH   2   4
TORSDOF 13
ENDMDL
MODEL      239
REMARK 921   NORMALIZED FREE ENERGY PREDICTED BY IDOCK:    5.10 KCAL/MOL
REMARK 922        TOTAL FREE ENERGY PREDICTED BY IDOCK:    5.51 KCAL/MOL
REMARK 923 INTER-LIGAND FREE ENERGY PREDICTED BY IDOCK:    0.13 KCAL/MOL
REMARK 924 INTRA-LIGAND FREE ENERGY PREDICTED BY IDOCK:    5.38 KCAL/MOL
REMARK 927      BINDING AFFINITY PREDICTED BY RF-SCORE:    0.00 PKD
ROOT
HETATM    1  C   UNL     1     -13.653  14.580  70.265  1.00  0.00     0.657 C  
HETATM    2  N   UNL     1     -12.413  13.839  70.473  1.00  0.00    -0.347 NA 
HETATM    3  H   UNL     1     -12.621  12.898  70.807  1.00  0.00     0.000 HD 
ENDROOT
BRANCH   2   4
HETATM    4  C   UNL     1     -11.496  13.772  69.295  1.00  0.00    -0.293 C  
HETATM    5  C   UNL     1     -10.112  13.176  69.655  1.00  0.00     1.149 C  
HETATM    6  C   UNL     1      -9.282  12.976  68.366  1.00  0.00    -0.136 C  
HETATM    7  O   UNL     1     -10.250  11.952  70.380  1.00  0.00     1.514 OA 
HETATM    8  H   UNL     1      -9.401  11.586  70.600  1.00  0.00     0.000 HD 
HETATM    9  O   UNL     1     -10.789  16.134  69.243  1.00  0.00    -0.264 OA 
HETATM   10  O   UNL     1      -9.090  14.245  67.739  1.00  0.00    -0.182 OA 
HETATM   11  H   UNL     1     -10.680  16.921  68.723  1.00  0.00     0.000 HD 
HETATM   12  C   UNL     1     -10.327  14.815  67.278  1.00  0.00    -0.247 C  
HETATM   13  C   UNL     1     -12.644  15.557  67.848  1.00  0.00     1.347 C  
HETATM   14  C   UNL     1     -11.316  15.068  68.437  1.00  0.00    -0.309 C  
BRANCH   6  15
HETATM   15  O   UNL     1      -9.928  12.055  67.485  1.00  0.00    -0.189 OA 
BRANCH  15  16
HETATM   16  C   UNL     1      -9.280  10.784  67.308  1.00  0.00    -0.147 C  
HETATM   17  H1  UNL     1      -4.854  10.430  66.894  1.00  0.00     0.000 HD 
HETATM   18  C   UNL     1      -8.784  10.520  65.869  1.00  0.00    -0.167 C  
HETATM   19  C   UNL     1      -8.090  10.749  68.306  1.00  0.00    -0.121 C  
HETATM   20  H2  UNL     1      -5.353  10.320  65.287  1.00  0.00     0.000 HD 
HETATM   21  C   UNL     1      -6.514  11.591  66.451  1.00  0.00     0.032 C  
HETATM   22  C   UNL     1      -7.718  11.563  65.490  1.00  0.00     0.708 C  
HETATM   23  O   UNL     1      -7.558   9.408  68.393  1.00  0.00    -0.081 OA 
HETATM   24  H   UNL     1      -6.829   9.387  69.003  1.00  0.00     0.000 HD 
HETATM   25  N   UNL     1      -5.650  10.412  66.258  1.00  0.00    -0.057 NA 
HETATM   26  C   UNL     1      -6.979  11.770  67.928  1.00  0.00    -0.085 C  
BRANCH  18  27
HETATM   27  N   UNL     1      -8.318   9.142  65.703  1.00  0.00    -0.119 N  
HETATM   28  H   UNL     1      -7.959   8.649  66.521  1.00  0.00     0.000 HD 
HETATM   29  C   UNL     1      -8.339   8.481  64.497  1.00  0.00    -0.128 C  
HETATM   30  O   UNL     1      -8.773   8.965  63.457  1.00  0.00    -0.146 OA 
BRANCH  29  31
HETATM   31  C   UNL     1      -7.795   7.044  64.556  1.00  0.00    -0.118 C  
HETATM   32  H   UNL     1      -7.754   5.560  65.856  1.00  0.00     0.000 HD 
HETATM   33  O   UNL     1      -8.091   6.448  65.819  1.00  0.00    -0.114 OA 
BRANCH  31  34
HETATM   34  C   UNL     1      -8.409   6.180  63.454  1.00  0.00     0.078 C  
BRANCH  34  35
HETATM   35  C   UNL     1      -9.209   5.011  64.027  1.00  0.00     0.163 C  
HETATM   36  H1  UNL     1      -9.741   3.109  63.479  1.00  0.00     0.000 HD 
HETATM   37  H2  UNL     1      -8.261   3.610  62.839  1.00  0.00     0.000 HD 
HETATM   38  N   UNL     1      -9.207   3.889  63.097  1.00  0.00    -0.109 NA 
ENDBRANCH  34  35
ENDBRANCH  31  34
ENDBRANCH  29  31
ENDBRANCH  18  27
BRANCH  26  39
HETATM   39  O   UNL     1      -7.378  13.136  68.028  1.00  0.00    -0.097 OA 
BRANCH  39  40
HETATM   40  C   UNL     1      -6.367  14.147  67.968  1.00  0.00    -0.149 C  
HETATM   41  H1  UNL     1      -6.877  14.714  71.361  1.00  0.00     0.000 HD 
HETATM   42  O   UNL     1      -6.801  15.281  67.210  1.00  0.00    -0.214 OA 
HETATM   43  H2  UNL     1      -7.618  13.600  70.357  1.00  0.00     0.000 HD 
HETATM   44  N   UNL     1      -7.124  14.491  70.397  1.00  0.00     0.189 NA 
HETATM   45  C   UNL     1      -5.988  14.490  69.448  1.00  0.00    -0.101 C  
HETATM   46  C   UNL     1      -5.918  16.348  67.248  1.00  0.00    -0.158 C  
HETATM   47  C   UNL     1      -5.137  15.764  69.546  1.00  0.00    -0.103 C  
HETATM   48  C   UNL     1      -5.130  16.592  68.305  1.00  0.00    -0.108 C  
BRANCH  46  49
HETATM   49  C   UNL     1      -5.939  17.249  66.033  1.00  0.00     0.066 C  
BRANCH  49  50
HETATM   50  N   UNL     1      -7.284  17.706  65.673  1.00  0.00    -0.424 NA 
HETATM   51  H   UNL     1      -7.937  16.926  65.603  1.00  0.00     0.000 HD 
BRANCH  50  52
HETATM   52  C   UNL     1      -7.772  18.736  66.608  1.00  0.00    -0.248 C  
BRANCH  52  53
HETATM   53  C   UNL     1      -9.243  18.500  66.960  1.00  0.00    -0.284 C  
HETATM   54  O   UNL     1     -10.070  18.687  65.815  1.00  0.00    -0.529 OA 
HETATM   55  H   UNL     1     -10.983  18.541  66.034  1.00  0.00     0.000 HD 
ENDBRANCH  52  53
ENDBRANCH  50  52
ENDBRANCH  49  50
ENDBRANCH  46  49
ENDBRANCH  39  40
ENDBRANCH  26  39
ENDBRANCH  15  16
ENDBRANCH   6  15
ENDBRANCH   2   4
TORSDOF 13
ENDMDL
MODEL      240
REMARK 921   NORMALIZED FREE ENERGY PREDICTED BY IDOCK:    5.19 KCAL/MOL
REMARK 922        TOTAL FREE ENERGY PREDICTED BY IDOCK:    5.67 KCAL/MOL
REMARK 923 INTER-LIGAND FREE ENERGY PREDICTED BY IDOCK:    4.19 KCAL/MOL
REMARK 924 INTRA-LIGAND FREE ENERGY PREDICTED BY IDOCK:    1.48 KCAL/MOL
REMARK 927      BINDING AFFINITY PREDICTED BY RF-SCORE:    0.00 PKD
ROOT
HETATM    1  C   UNL     1      -9.966  16.327  71.021  1.00  0.00     2.150 C  
HETATM    2  N   UNL     1      -9.318  16.528  69.729  1.00  0.00     0.283 NA 
HETATM    3  H   UNL     1      -8.885  17.452  69.695  1.00  0.00     0.000 HD 
ENDROOT
BRANCH   2   4
HETATM    4  C   UNL     1      -8.323  15.485  69.337  1.00  0.00    -0.249 C  
HETATM    5  C   UNL     1      -8.751  14.062  69.775  1.00  0.00     1.266 C  
HETATM    6  C   UNL     1      -7.771  13.021  69.191  1.00  0.00     0.317 C  
HETATM    7  O   UNL     1     -10.098  13.786  69.384  1.00  0.00    -0.402 OA 
HETATM    8  H   UNL     1     -10.361  12.913  69.653  1.00  0.00     0.000 HD 
HETATM    9  O   UNL     1      -6.673  15.856  71.132  1.00  0.00     1.315 OA 
HETATM   10  O   UNL     1      -6.461  13.285  69.696  1.00  0.00    -0.112 OA 
HETATM   11  H   UNL     1      -5.763  16.007  71.358  1.00  0.00     0.000 HD 
HETATM   12  C   UNL     1      -5.948  14.549  69.240  1.00  0.00    -0.104 C  
HETATM   13  C   UNL     1      -6.279  17.020  69.080  1.00  0.00    -0.203 C  
HETATM   14  C   UNL     1      -6.823  15.732  69.709  1.00  0.00    -0.120 C  
BRANCH   6  15
HETATM   15  O   UNL     1      -7.791  13.052  67.762  1.00  0.00    -0.129 OA 
BRANCH  15  16
HETATM   16  C   UNL     1      -9.083  12.939  67.142  1.00  0.00    -0.220 C  
HETATM   17  H1  UNL     1     -10.428   9.176  65.161  1.00  0.00     0.000 HD 
HETATM   18  C   UNL     1      -9.051  12.973  65.597  1.00  0.00     0.530 C  
HETATM   19  C   UNL     1      -9.700  11.603  67.640  1.00  0.00    -0.180 C  
HETATM   20  H2  UNL     1      -9.952  10.103  63.835  1.00  0.00     0.000 HD 
HETATM   21  C   UNL     1      -8.805  10.409  65.541  1.00  0.00    -0.176 C  
HETATM   22  C   UNL     1      -8.253  11.768  65.070  1.00  0.00     1.205 C  
HETATM   23  O   UNL     1     -11.101  11.545  67.291  1.00  0.00    -0.260 OA 
HETATM   24  H   UNL     1     -11.478  10.728  67.595  1.00  0.00     0.000 HD 
HETATM   25  N   UNL     1     -10.063  10.075  64.849  1.00  0.00    -0.244 NA 
HETATM   26  C   UNL     1      -8.934  10.364  67.094  1.00  0.00    -0.139 C  
BRANCH  18  27
HETATM   27  N   UNL     1     -10.398  13.056  65.031  1.00  0.00    -0.337 N  
HETATM   28  H   UNL     1     -10.617  12.488  64.213  1.00  0.00     0.000 HD 
HETATM   29  C   UNL     1     -11.383  13.865  65.550  1.00  0.00    -0.308 C  
HETATM   30  O   UNL     1     -11.240  14.568  66.545  1.00  0.00    -0.329 OA 
BRANCH  29  31
HETATM   31  C   UNL     1     -12.718  13.798  64.791  1.00  0.00    -0.215 C  
HETATM   32  H   UNL     1     -14.531  13.083  65.103  1.00  0.00     0.000 HD 
HETATM   33  O   UNL     1     -13.706  13.124  65.572  1.00  0.00     0.085 OA 
BRANCH  31  34
HETATM   34  C   UNL     1     -13.231  15.200  64.461  1.00  0.00     1.365 C  
BRANCH  34  35
HETATM   35  C   UNL     1     -12.238  15.982  63.602  1.00  0.00     1.488 C  
HETATM   36  H1  UNL     1     -10.471  16.993  63.846  1.00  0.00     0.000 HD 
HETATM   37  H2  UNL     1     -10.680  15.718  64.935  1.00  0.00     0.000 HD 
HETATM   38  N   UNL     1     -11.134  16.471  64.419  1.00  0.00    -0.933 NA 
ENDBRANCH  34  35
ENDBRANCH  31  34
ENDBRANCH  29  31
ENDBRANCH  18  27
BRANCH  26  39
HETATM   39  O   UNL     1      -7.597  10.242  67.574  1.00  0.00    -0.093 OA 
BRANCH  39  40
HETATM   40  C   UNL     1      -7.314   9.243  68.558  1.00  0.00    -0.076 C  
HETATM   41  H1  UNL     1      -4.154   8.891  67.149  1.00  0.00     0.000 HD 
HETATM   42  O   UNL     1      -8.084   8.056  68.340  1.00  0.00    -0.119 OA 
HETATM   43  H2  UNL     1      -5.393   9.928  66.711  1.00  0.00     0.000 HD 
HETATM   44  N   UNL     1      -5.162   9.048  67.173  1.00  0.00    -0.036 NA 
HETATM   45  C   UNL     1      -5.768   9.003  68.522  1.00  0.00    -0.041 C  
HETATM   46  C   UNL     1      -7.738   7.006  69.175  1.00  0.00    -0.105 C  
HETATM   47  C   UNL     1      -5.359   7.750  69.310  1.00  0.00    -0.022 C  
HETATM   48  C   UNL     1      -6.493   6.842  69.648  1.00  0.00    -0.044 C  
BRANCH  46  49
HETATM   49  C   UNL     1      -8.850   6.028  69.480  1.00  0.00    -0.125 C  
BRANCH  49  50
HETATM   50  N   UNL     1      -9.531   5.532  68.280  1.00  0.00    -0.111 NA 
HETATM   51  H   UNL     1     -10.326   6.120  68.032  1.00  0.00     0.000 HD 
BRANCH  50  52
HETATM   52  C   UNL     1      -8.596   5.385  67.151  1.00  0.00    -0.108 C  
BRANCH  52  53
HETATM   53  C   UNL     1      -9.322   4.871  65.905  1.00  0.00    -0.159 C  
HETATM   54  O   UNL     1      -8.388   4.382  64.945  1.00  0.00    -0.111 OA 
HETATM   55  H   UNL     1      -8.838   4.064  64.172  1.00  0.00     0.000 HD 
ENDBRANCH  52  53
ENDBRANCH  50  52
ENDBRANCH  49  50
ENDBRANCH  46  49
ENDBRANCH  39  40
ENDBRANCH  26  39
ENDBRANCH  15  16
ENDBRANCH   6  15
ENDBRANCH   2   4
TORSDOF 13
ENDMDL
MODEL      241
REMARK 921   NORMALIZED FREE ENERGY PREDICTED BY IDOCK:    5.30 KCAL/MOL
REMARK 922        TOTAL FREE ENERGY PREDICTED BY IDOCK:    5.87 KCAL/MOL
REMARK 923 INTER-LIGAND FREE ENERGY PREDICTED BY IDOCK:    4.14 KCAL/MOL
REMARK 924 INTRA-LIGAND FREE ENERGY PREDICTED BY IDOCK:    1.73 KCAL/MOL
REMARK 927      BINDING AFFINITY PREDICTED BY RF-SCORE:    0.00 PKD
ROOT
HETATM    1  C   UNL     1     -12.444   5.280  66.641  1.00  0.00     7.389 C  
HETATM    2  N   UNL     1     -11.260   4.440  66.790  1.00  0.00     0.902 NA 
HETATM    3  H   UNL     1     -11.152   3.841  65.971  1.00  0.00     0.000 HD 
ENDROOT
BRANCH   2   4
HETATM    4  C   UNL     1      -9.984   5.166  67.063  1.00  0.00    -0.196 C  
HETATM    5  C   UNL     1      -9.292   5.658  65.767  1.00  0.00    -0.060 C  
HETATM    6  C   UNL     1      -8.079   6.543  66.130  1.00  0.00    -0.118 C  
HETATM    7  O   UNL     1     -10.212   6.355  64.924  1.00  0.00     1.669 OA 
HETATM    8  H   UNL     1      -9.787   6.656  64.129  1.00  0.00     0.000 HD 
HETATM    9  O   UNL     1      -8.525   3.215  67.448  1.00  0.00    -0.085 OA 
HETATM   10  O   UNL     1      -7.148   5.765  66.884  1.00  0.00    -0.067 OA 
HETATM   11  H   UNL     1      -7.890   2.796  68.017  1.00  0.00     0.000 HD 
HETATM   12  C   UNL     1      -7.683   5.361  68.156  1.00  0.00    -0.085 C  
HETATM   13  C   UNL     1      -9.513   4.193  69.394  1.00  0.00    -0.260 C  
HETATM   14  C   UNL     1      -8.938   4.475  68.001  1.00  0.00    -0.116 C  
BRANCH   6  15
HETATM   15  O   UNL     1      -8.495   7.701  66.858  1.00  0.00    -0.121 OA 
BRANCH  15  16
HETATM   16  C   UNL     1      -7.486   8.696  67.100  1.00  0.00    -0.088 C  
HETATM   17  H1  UNL     1      -6.985  10.622  71.091  1.00  0.00     0.000 HD 
HETATM   18  C   UNL     1      -8.029  10.140  67.195  1.00  0.00    -0.109 C  
HETATM   19  C   UNL     1      -6.777   8.297  68.424  1.00  0.00    -0.064 C  
HETATM   20  H2  UNL     1      -7.848  11.804  70.253  1.00  0.00     0.000 HD 
HETATM   21  C   UNL     1      -8.353   9.855  69.735  1.00  0.00    -0.183 C  
HETATM   22  C   UNL     1      -8.991  10.253  68.391  1.00  0.00    -0.132 C  
HETATM   23  O   UNL     1      -5.575   9.079  68.595  1.00  0.00    -0.040 OA 
HETATM   24  H   UNL     1      -5.141   8.835  69.405  1.00  0.00     0.000 HD 
HETATM   25  N   UNL     1      -7.407  10.886  70.202  1.00  0.00     0.014 NA 
HETATM   26  C   UNL     1      -7.717   8.435  69.657  1.00  0.00    -0.095 C  
BRANCH  18  27
HETATM   27  N   UNL     1      -6.945  11.122  67.241  1.00  0.00    -0.089 N  
HETATM   28  H   UNL     1      -6.050  10.878  66.817  1.00  0.00     0.000 HD 
HETATM   29  C   UNL     1      -7.075  12.359  67.830  1.00  0.00    -0.109 C  
HETATM   30  O   UNL     1      -8.110  12.768  68.344  1.00  0.00    -0.149 OA 
BRANCH  29  31
HETATM   31  C   UNL     1      -5.805  13.223  67.767  1.00  0.00    -0.132 C  
HETATM   32  H   UNL     1      -5.310  15.032  67.151  1.00  0.00     0.000 HD 
HETATM   33  O   UNL     1      -6.095  14.498  67.190  1.00  0.00    -0.206 OA 
BRANCH  31  34
HETATM   34  C   UNL     1      -5.221  13.442  69.163  1.00  0.00    -0.073 C  
BRANCH  34  35
HETATM   35  C   UNL     1      -5.703  14.754  69.782  1.00  0.00    -0.105 C  
HETATM   36  H1  UNL     1      -6.234  15.467  71.629  1.00  0.00     0.000 HD 
HETATM   37  H2  UNL     1      -5.079  14.236  71.683  1.00  0.00     0.000 HD 
HETATM   38  N   UNL     1      -5.912  14.593  71.216  1.00  0.00    -0.048 NA 
ENDBRANCH  34  35
ENDBRANCH  31  34
ENDBRANCH  29  31
ENDBRANCH  18  27
BRANCH  26  39
HETATM   39  O   UNL     1      -8.822   7.533  69.657  1.00  0.00    -0.140 OA 
BRANCH  39  40
HETATM   40  C   UNL     1      -9.770   7.617  70.725  1.00  0.00    -0.173 C  
HETATM   41  H1  UNL     1      -7.793   5.391  72.522  1.00  0.00     0.000 HD 
HETATM   42  O   UNL     1     -11.012   6.999  70.376  1.00  0.00    -0.247 OA 
HETATM   43  H2  UNL     1      -7.538   6.032  70.997  1.00  0.00     0.000 HD 
HETATM   44  N   UNL     1      -8.239   5.803  71.702  1.00  0.00    -0.118 NA 
HETATM   45  C   UNL     1      -9.086   6.984  71.982  1.00  0.00    -0.131 C  
HETATM   46  C   UNL     1     -11.912   6.921  71.427  1.00  0.00    -0.349 C  
HETATM   47  C   UNL     1     -10.087   6.734  73.119  1.00  0.00    -0.227 C  
HETATM   48  C   UNL     1     -11.517   6.809  72.704  1.00  0.00    -0.218 C  
BRANCH  46  49
HETATM   49  C   UNL     1     -13.371   6.923  71.031  1.00  0.00     0.099 C  
BRANCH  49  50
HETATM   50  N   UNL     1     -13.912   8.268  70.815  1.00  0.00    -0.261 NA 
HETATM   51  H   UNL     1     -14.929   8.278  70.896  1.00  0.00     0.000 HD 
BRANCH  50  52
HETATM   52  C   UNL     1     -13.290   9.251  71.719  1.00  0.00    -0.409 C  
BRANCH  52  53
HETATM   53  C   UNL     1     -12.470  10.275  70.930  1.00  0.00    -0.370 C  
HETATM   54  O   UNL     1     -13.059  10.514  69.654  1.00  0.00    -0.556 OA 
HETATM   55  H   UNL     1     -12.549  11.149  69.165  1.00  0.00     0.000 HD 
ENDBRANCH  52  53
ENDBRANCH  50  52
ENDBRANCH  49  50
ENDBRANCH  46  49
ENDBRANCH  39  40
ENDBRANCH  26  39
ENDBRANCH  15  16
ENDBRANCH   6  15
ENDBRANCH   2   4
TORSDOF 13
ENDMDL
MODEL      242
REMARK 921   NORMALIZED FREE ENERGY PREDICTED BY IDOCK:    5.31 KCAL/MOL
REMARK 922        TOTAL FREE ENERGY PREDICTED BY IDOCK:    5.89 KCAL/MOL
REMARK 923 INTER-LIGAND FREE ENERGY PREDICTED BY IDOCK:    0.15 KCAL/MOL
REMARK 924 INTRA-LIGAND FREE ENERGY PREDICTED BY IDOCK:    5.74 KCAL/MOL
REMARK 927      BINDING AFFINITY PREDICTED BY RF-SCORE:    0.00 PKD
ROOT
HETATM    1  C   UNL     1      -6.143  16.316  70.084  1.00  0.00    -0.089 C  
HETATM    2  N   UNL     1      -7.560  16.299  69.736  1.00  0.00     0.166 NA 
HETATM    3  H   UNL     1      -7.740  16.951  68.972  1.00  0.00     0.000 HD 
ENDROOT
BRANCH   2   4
HETATM    4  C   UNL     1      -8.128  14.957  69.407  1.00  0.00    -0.103 C  
HETATM    5  C   UNL     1      -9.453  14.673  70.158  1.00  0.00     0.865 C  
HETATM    6  C   UNL     1     -10.069  13.353  69.643  1.00  0.00     1.006 C  
HETATM    7  O   UNL     1     -10.368  15.763  70.019  1.00  0.00    -0.299 OA 
HETATM    8  H   UNL     1     -11.180  15.589  70.480  1.00  0.00     0.000 HD 
HETATM    9  O   UNL     1      -6.678  13.580  70.850  1.00  0.00    -0.169 OA 
HETATM   10  O   UNL     1      -9.155  12.286  69.900  1.00  0.00     2.101 OA 
HETATM   11  H   UNL     1      -6.100  12.829  70.913  1.00  0.00     0.000 HD 
HETATM   12  C   UNL     1      -7.936  12.423  69.150  1.00  0.00     0.407 C  
HETATM   13  C   UNL     1      -5.962  13.847  68.584  1.00  0.00    -0.088 C  
HETATM   14  C   UNL     1      -7.176  13.718  69.510  1.00  0.00     0.194 C  
BRANCH   6  15
HETATM   15  O   UNL     1     -10.378  13.447  68.250  1.00  0.00    -0.236 OA 
BRANCH  15  16
HETATM   16  C   UNL     1      -9.752  12.476  67.394  1.00  0.00    -0.194 C  
HETATM   17  H1  UNL     1      -9.461  13.060  62.983  1.00  0.00     0.000 HD 
HETATM   18  C   UNL     1     -10.743  11.631  66.562  1.00  0.00    -0.272 C  
HETATM   19  C   UNL     1      -8.792  13.261  66.458  1.00  0.00     0.017 C  
HETATM   20  H2  UNL     1     -10.774  12.008  63.097  1.00  0.00     0.000 HD 
HETATM   21  C   UNL     1     -10.636  13.368  64.663  1.00  0.00    -0.415 C  
HETATM   22  C   UNL     1     -11.532  12.547  65.610  1.00  0.00    -0.400 C  
HETATM   23  O   UNL     1      -7.922  12.344  65.761  1.00  0.00     0.442 OA 
HETATM   24  H   UNL     1      -7.335  12.824  65.188  1.00  0.00     0.000 HD 
HETATM   25  N   UNL     1     -10.053  12.517  63.609  1.00  0.00    -0.374 NA 
HETATM   26  C   UNL     1      -9.564  14.172  65.459  1.00  0.00    -0.018 C  
BRANCH  18  27
HETATM   27  N   UNL     1     -10.066  10.535  65.868  1.00  0.00    -0.253 N  
HETATM   28  H   UNL     1      -9.668  10.715  64.947  1.00  0.00     0.000 HD 
HETATM   29  C   UNL     1      -9.941   9.271  66.399  1.00  0.00    -0.286 C  
HETATM   30  O   UNL     1     -10.356   8.949  67.508  1.00  0.00    -0.230 OA 
BRANCH  29  31
HETATM   31  C   UNL     1      -9.199   8.277  65.492  1.00  0.00     0.067 C  
HETATM   32  H   UNL     1      -7.961   8.357  63.958  1.00  0.00     0.000 HD 
HETATM   33  O   UNL     1      -8.420   8.972  64.518  1.00  0.00    -0.167 OA 
BRANCH  31  34
HETATM   34  C   UNL     1      -8.270   7.378  66.309  1.00  0.00    -0.126 C  
BRANCH  34  35
HETATM   35  C   UNL     1      -8.933   6.047  66.664  1.00  0.00    -0.128 C  
HETATM   36  H1  UNL     1      -8.573   4.437  67.880  1.00  0.00     0.000 HD 
HETATM   37  H2  UNL     1      -7.945   5.889  68.473  1.00  0.00     0.000 HD 
HETATM   38  N   UNL     1      -8.131   5.325  67.644  1.00  0.00    -0.100 NA 
ENDBRANCH  34  35
ENDBRANCH  31  34
ENDBRANCH  29  31
ENDBRANCH  18  27
BRANCH  26  39
HETATM   39  O   UNL     1     -10.282  15.241  66.072  1.00  0.00    -0.279 OA 
BRANCH  39  40
HETATM   40  C   UNL     1      -9.627  16.504  66.222  1.00  0.00    -0.306 C  
HETATM   41  H1  UNL     1      -6.598  14.802  66.382  1.00  0.00     0.000 HD 
HETATM   42  O   UNL     1      -9.921  17.103  67.488  1.00  0.00    -0.264 OA 
HETATM   43  H2  UNL     1      -8.141  14.189  66.171  1.00  0.00     0.000 HD 
HETATM   44  N   UNL     1      -7.593  14.969  66.534  1.00  0.00     0.371 NA 
HETATM   45  C   UNL     1      -8.100  16.248  65.989  1.00  0.00     0.117 C  
HETATM   46  C   UNL     1      -9.194  18.255  67.743  1.00  0.00    -0.270 C  
HETATM   47  C   UNL     1      -7.243  17.450  66.411  1.00  0.00    -0.333 C  
HETATM   48  C   UNL     1      -7.961  18.450  67.252  1.00  0.00    -0.239 C  
BRANCH  46  49
HETATM   49  C   UNL     1      -9.868  19.257  68.652  1.00  0.00    -0.431 C  
BRANCH  49  50
HETATM   50  N   UNL     1     -10.837  20.110  67.959  1.00  0.00    -0.050 NA 
HETATM   51  H   UNL     1     -11.360  20.690  68.615  1.00  0.00     0.000 HD 
BRANCH  50  52
HETATM   52  C   UNL     1     -10.189  20.926  66.917  1.00  0.00     0.467 C  
BRANCH  52  53
HETATM   53  C   UNL     1     -10.401  20.310  65.532  1.00  0.00    -0.007 C  
HETATM   54  O   UNL     1     -11.348  19.248  65.594  1.00  0.00     0.056 OA 
HETATM   55  H   UNL     1     -11.479  18.865  64.734  1.00  0.00     0.000 HD 
ENDBRANCH  52  53
ENDBRANCH  50  52
ENDBRANCH  49  50
ENDBRANCH  46  49
ENDBRANCH  39  40
ENDBRANCH  26  39
ENDBRANCH  15  16
ENDBRANCH   6  15
ENDBRANCH   2   4
TORSDOF 13
ENDMDL
MODEL      243
REMARK 921   NORMALIZED FREE ENERGY PREDICTED BY IDOCK:    5.76 KCAL/MOL
REMARK 922        TOTAL FREE ENERGY PREDICTED BY IDOCK:    6.68 KCAL/MOL
REMARK 923 INTER-LIGAND FREE ENERGY PREDICTED BY IDOCK:    2.62 KCAL/MOL
REMARK 924 INTRA-LIGAND FREE ENERGY PREDICTED BY IDOCK:    4.06 KCAL/MOL
REMARK 927      BINDING AFFINITY PREDICTED BY RF-SCORE:    0.00 PKD
ROOT
HETATM    1  C   UNL     1      -6.576  17.152  71.582  1.00  0.00     4.104 C  
HETATM    2  N   UNL     1      -6.082  15.876  71.074  1.00  0.00     0.458 NA 
HETATM    3  H   UNL     1      -6.029  15.196  71.832  1.00  0.00     0.000 HD 
ENDROOT
BRANCH   2   4
HETATM    4  C   UNL     1      -6.844  15.302  69.924  1.00  0.00    -0.135 C  
HETATM    5  C   UNL     1      -6.324  13.903  69.508  1.00  0.00    -0.118 C  
HETATM    6  C   UNL     1      -7.260  13.299  68.437  1.00  0.00    -0.110 C  
HETATM    7  O   UNL     1      -6.203  13.040  70.640  1.00  0.00    -0.432 OA 
HETATM    8  H   UNL     1      -5.884  12.182  70.385  1.00  0.00     0.000 HD 
HETATM    9  O   UNL     1      -5.768  16.566  68.100  1.00  0.00    -0.109 OA 
HETATM   10  O   UNL     1      -7.262  14.151  67.291  1.00  0.00    -0.148 OA 
HETATM   11  H   UNL     1      -5.886  17.111  67.332  1.00  0.00     0.000 HD 
HETATM   12  C   UNL     1      -7.834  15.440  67.574  1.00  0.00    -0.170 C  
HETATM   13  C   UNL     1      -7.783  17.501  68.985  1.00  0.00    -0.139 C  
HETATM   14  C   UNL     1      -7.040  16.201  68.658  1.00  0.00    -0.147 C  
BRANCH   6  15
HETATM   15  O   UNL     1      -8.580  13.127  68.957  1.00  0.00     0.210 OA 
BRANCH  15  16
HETATM   16  C   UNL     1      -9.658  13.564  68.111  1.00  0.00    -0.215 C  
HETATM   17  H1  UNL     1     -12.785  10.751  66.630  1.00  0.00     0.000 HD 
HETATM   18  C   UNL     1      -9.508  13.150  66.629  1.00  0.00    -0.260 C  
HETATM   19  C   UNL     1     -10.963  12.970  68.708  1.00  0.00    -0.258 C  
HETATM   20  H2  UNL     1     -11.774  10.868  65.285  1.00  0.00     0.000 HD 
HETATM   21  C   UNL     1     -10.778  10.961  67.107  1.00  0.00    -0.270 C  
HETATM   22  C   UNL     1      -9.515  11.616  66.517  1.00  0.00    -0.219 C  
HETATM   23  O   UNL     1     -12.114  13.583  68.088  1.00  0.00    -0.346 OA 
HETATM   24  H   UNL     1     -12.912  13.220  68.453  1.00  0.00     0.000 HD 
HETATM   25  N   UNL     1     -11.949  11.184  66.240  1.00  0.00     0.447 NA 
HETATM   26  C   UNL     1     -11.014  11.420  68.578  1.00  0.00    -0.221 C  
BRANCH  18  27
HETATM   27  N   UNL     1     -10.520  13.788  65.786  1.00  0.00    -0.291 N  
HETATM   28  H   UNL     1     -10.984  13.225  65.073  1.00  0.00     0.000 HD 
HETATM   29  C   UNL     1     -10.876  15.112  65.909  1.00  0.00    -0.339 C  
HETATM   30  O   UNL     1     -10.405  15.874  66.747  1.00  0.00    -0.286 OA 
BRANCH  29  31
HETATM   31  C   UNL     1     -11.955  15.569  64.914  1.00  0.00     0.066 C  
HETATM   32  H   UNL     1     -13.925  15.541  64.795  1.00  0.00     0.000 HD 
HETATM   33  O   UNL     1     -13.258  15.258  65.410  1.00  0.00     0.651 OA 
BRANCH  31  34
HETATM   34  C   UNL     1     -11.873  17.077  64.672  1.00  0.00     1.675 C  
BRANCH  34  35
HETATM   35  C   UNL     1     -10.957  17.766  65.683  1.00  0.00     0.226 C  
HETATM   36  H1  UNL     1     -10.842  19.564  66.662  1.00  0.00     0.000 HD 
HETATM   37  H2  UNL     1     -12.422  19.086  66.304  1.00  0.00     0.000 HD 
HETATM   38  N   UNL     1     -11.452  19.103  65.988  1.00  0.00     0.755 NA 
ENDBRANCH  34  35
ENDBRANCH  31  34
ENDBRANCH  29  31
ENDBRANCH  18  27
BRANCH  26  39
HETATM   39  O   UNL     1     -10.026  10.733  69.344  1.00  0.00    -0.198 OA 
BRANCH  39  40
HETATM   40  C   UNL     1      -9.870   9.325  69.148  1.00  0.00    -0.167 C  
HETATM   41  H1  UNL     1     -10.927   8.852  72.427  1.00  0.00     0.000 HD 
HETATM   42  O   UNL     1      -8.492   8.961  69.019  1.00  0.00    -0.129 OA 
HETATM   43  H2  UNL     1     -10.762  10.279  71.569  1.00  0.00     0.000 HD 
HETATM   44  N   UNL     1     -10.455   9.310  71.647  1.00  0.00    -0.330 NA 
HETATM   45  C   UNL     1     -10.595   8.622  70.344  1.00  0.00    -0.220 C  
HETATM   46  C   UNL     1      -8.278   7.592  68.977  1.00  0.00    -0.127 C  
HETATM   47  C   UNL     1     -10.255   7.127  70.427  1.00  0.00    -0.203 C  
HETATM   48  C   UNL     1      -9.078   6.719  69.607  1.00  0.00    -0.143 C  
BRANCH  46  49
HETATM   49  C   UNL     1      -7.050   7.152  68.212  1.00  0.00    -0.082 C  
BRANCH  49  50
HETATM   50  N   UNL     1      -7.040   5.719  67.905  1.00  0.00    -0.069 NA 
HETATM   51  H   UNL     1      -7.477   5.527  67.004  1.00  0.00     0.000 HD 
BRANCH  50  52
HETATM   52  C   UNL     1      -5.677   5.163  67.972  1.00  0.00    -0.017 C  
BRANCH  52  53
HETATM   53  C   UNL     1      -5.701   3.640  67.816  1.00  0.00    -0.022 C  
HETATM   54  O   UNL     1      -7.040   3.170  67.680  1.00  0.00    -0.049 OA 
HETATM   55  H   UNL     1      -7.055   2.225  67.583  1.00  0.00     0.000 HD 
ENDBRANCH  52  53
ENDBRANCH  50  52
ENDBRANCH  49  50
ENDBRANCH  46  49
ENDBRANCH  39  40
ENDBRANCH  26  39
ENDBRANCH  15  16
ENDBRANCH   6  15
ENDBRANCH   2   4
TORSDOF 13
ENDMDL
MODEL      244
REMARK 921   NORMALIZED FREE ENERGY PREDICTED BY IDOCK:    5.82 KCAL/MOL
REMARK 922        TOTAL FREE ENERGY PREDICTED BY IDOCK:    6.78 KCAL/MOL
REMARK 923 INTER-LIGAND FREE ENERGY PREDICTED BY IDOCK:    2.12 KCAL/MOL
REMARK 924 INTRA-LIGAND FREE ENERGY PREDICTED BY IDOCK:    4.66 KCAL/MOL
REMARK 927      BINDING AFFINITY PREDICTED BY RF-SCORE:    0.00 PKD
ROOT
HETATM    1  C   UNL     1     -11.081  19.372  64.917  1.00  0.00     1.614 C  
HETATM    2  N   UNL     1     -10.801  19.215  66.341  1.00  0.00    -0.316 NA 
HETATM    3  H   UNL     1     -11.591  18.765  66.804  1.00  0.00     0.000 HD 
ENDROOT
BRANCH   2   4
HETATM    4  C   UNL     1      -9.536  18.493  66.674  1.00  0.00    -0.311 C  
HETATM    5  C   UNL     1      -9.523  17.960  68.129  1.00  0.00    -0.288 C  
HETATM    6  C   UNL     1      -8.270  17.083  68.349  1.00  0.00    -0.250 C  
HETATM    7  O   UNL     1     -10.721  17.240  68.425  1.00  0.00    -0.367 OA 
HETATM    8  H   UNL     1     -10.713  16.913  69.317  1.00  0.00     0.000 HD 
HETATM    9  O   UNL     1      -8.089  20.451  67.070  1.00  0.00    -0.344 OA 
HETATM   10  O   UNL     1      -7.104  17.881  68.139  1.00  0.00    -0.211 OA 
HETATM   11  H   UNL     1      -7.268  20.886  66.875  1.00  0.00     0.000 HD 
HETATM   12  C   UNL     1      -6.989  18.326  66.776  1.00  0.00    -0.196 C  
HETATM   13  C   UNL     1      -8.044  19.536  64.861  1.00  0.00     1.882 C  
HETATM   14  C   UNL     1      -8.182  19.210  66.353  1.00  0.00    -0.314 C  
BRANCH   6  15
HETATM   15  O   UNL     1      -8.285  15.949  67.478  1.00  0.00    -0.147 OA 
BRANCH  15  16
HETATM   16  C   UNL     1      -9.582  15.465  67.089  1.00  0.00    -0.212 C  
HETATM   17  H1  UNL     1     -11.177  11.562  68.543  1.00  0.00     0.000 HD 
HETATM   18  C   UNL     1      -9.547  14.323  66.048  1.00  0.00    -0.243 C  
HETATM   19  C   UNL     1     -10.289  14.990  68.389  1.00  0.00    -0.231 C  
HETATM   20  H2  UNL     1     -10.638  11.152  66.998  1.00  0.00     0.000 HD 
HETATM   21  C   UNL     1      -9.474  12.587  67.950  1.00  0.00    -0.196 C  
HETATM   22  C   UNL     1      -8.832  13.099  66.647  1.00  0.00    -0.076 C  
HETATM   23  O   UNL     1     -11.689  14.751  68.130  1.00  0.00    -0.324 OA 
HETATM   24  H   UNL     1     -12.121  14.460  68.925  1.00  0.00     0.000 HD 
HETATM   25  N   UNL     1     -10.752  11.901  67.681  1.00  0.00    -0.208 NA 
HETATM   26  C   UNL     1      -9.607  13.732  69.000  1.00  0.00     0.186 C  
BRANCH  18  27
HETATM   27  N   UNL     1     -10.885  14.011  65.544  1.00  0.00    -0.299 N  
HETATM   28  H   UNL     1     -11.267  13.082  65.724  1.00  0.00     0.000 HD 
HETATM   29  C   UNL     1     -11.652  14.910  64.839  1.00  0.00    -0.395 C  
HETATM   30  O   UNL     1     -11.305  16.060  64.590  1.00  0.00    -0.431 OA 
BRANCH  29  31
HETATM   31  C   UNL     1     -13.021  14.365  64.403  1.00  0.00     0.510 C  
HETATM   32  H   UNL     1     -14.395  14.801  63.055  1.00  0.00     0.000 HD 
HETATM   33  O   UNL     1     -13.548  15.138  63.324  1.00  0.00     2.042 OA 
BRANCH  31  34
HETATM   34  C   UNL     1     -12.912  12.909  63.950  1.00  0.00     0.086 C  
BRANCH  34  35
HETATM   35  C   UNL     1     -11.510  12.344  64.184  1.00  0.00    -0.381 C  
HETATM   36  H1  UNL     1      -9.859  11.846  63.076  1.00  0.00     0.000 HD 
HETATM   37  H2  UNL     1     -10.767  13.106  62.411  1.00  0.00     0.000 HD 
HETATM   38  N   UNL     1     -10.794  12.222  62.920  1.00  0.00     0.157 NA 
ENDBRANCH  34  35
ENDBRANCH  31  34
ENDBRANCH  29  31
ENDBRANCH  18  27
BRANCH  26  39
HETATM   39  O   UNL     1      -8.281  13.954  69.476  1.00  0.00     0.431 OA 
BRANCH  39  40
HETATM   40  C   UNL     1      -7.564  12.850  70.036  1.00  0.00     1.841 C  
HETATM   41  H1  UNL     1      -4.607  14.522  69.288  1.00  0.00     0.000 HD 
HETATM   42  O   UNL     1      -7.684  11.678  69.225  1.00  0.00     0.003 OA 
HETATM   43  H2  UNL     1      -6.187  15.012  69.036  1.00  0.00     0.000 HD 
HETATM   44  N   UNL     1      -5.570  14.210  69.161  1.00  0.00    -0.083 NA 
HETATM   45  C   UNL     1      -6.087  13.329  70.232  1.00  0.00    -0.086 C  
HETATM   46  C   UNL     1      -6.887  10.625  69.644  1.00  0.00    -0.124 C  
HETATM   47  C   UNL     1      -5.139  12.162  70.544  1.00  0.00    -0.112 C  
HETATM   48  C   UNL     1      -5.713  10.815  70.265  1.00  0.00    -0.092 C  
BRANCH  46  49
HETATM   49  C   UNL     1      -7.409   9.245  69.312  1.00  0.00    -0.070 C  
BRANCH  49  50
HETATM   50  N   UNL     1      -6.537   8.499  68.400  1.00  0.00    -0.059 NA 
HETATM   51  H   UNL     1      -5.572   8.490  68.730  1.00  0.00     0.000 HD 
BRANCH  50  52
HETATM   52  C   UNL     1      -7.041   7.134  68.168  1.00  0.00    -0.085 C  
BRANCH  52  53
HETATM   53  C   UNL     1      -7.424   6.936  66.699  1.00  0.00    -0.082 C  
HETATM   54  O   UNL     1      -7.980   5.640  66.495  1.00  0.00    -0.100 OA 
HETATM   55  H   UNL     1      -8.217   5.517  65.583  1.00  0.00     0.000 HD 
ENDBRANCH  52  53
ENDBRANCH  50  52
ENDBRANCH  49  50
ENDBRANCH  46  49
ENDBRANCH  39  40
ENDBRANCH  26  39
ENDBRANCH  15  16
ENDBRANCH   6  15
ENDBRANCH   2   4
TORSDOF 13
ENDMDL
MODEL      245
REMARK 921   NORMALIZED FREE ENERGY PREDICTED BY IDOCK:    5.87 KCAL/MOL
REMARK 922        TOTAL FREE ENERGY PREDICTED BY IDOCK:    6.87 KCAL/MOL
REMARK 923 INTER-LIGAND FREE ENERGY PREDICTED BY IDOCK:   -4.78 KCAL/MOL
REMARK 924 INTRA-LIGAND FREE ENERGY PREDICTED BY IDOCK:   11.65 KCAL/MOL
REMARK 927      BINDING AFFINITY PREDICTED BY RF-SCORE:    0.00 PKD
ROOT
HETATM    1  C   UNL     1     -10.542  11.130  70.073  1.00  0.00     0.352 C  
HETATM    2  N   UNL     1      -9.324  10.549  69.515  1.00  0.00    -0.400 NA 
HETATM    3  H   UNL     1      -9.545   9.688  69.016  1.00  0.00     0.000 HD 
ENDROOT
BRANCH   2   4
HETATM    4  C   UNL     1      -8.521  11.455  68.640  1.00  0.00    -0.131 C  
HETATM    5  C   UNL     1      -9.295  12.737  68.243  1.00  0.00    -0.194 C  
HETATM    6  C   UNL     1      -8.352  13.701  67.488  1.00  0.00    -0.188 C  
HETATM    7  O   UNL     1      -9.872  13.366  69.389  1.00  0.00    -0.167 OA 
HETATM    8  H   UNL     1     -10.347  14.152  69.146  1.00  0.00     0.000 HD 
HETATM    9  O   UNL     1      -8.821  10.262  66.502  1.00  0.00    -0.135 OA 
HETATM   10  O   UNL     1      -7.887  13.056  66.301  1.00  0.00     0.812 OA 
HETATM   11  H   UNL     1      -8.406   9.883  65.737  1.00  0.00     0.000 HD 
HETATM   12  C   UNL     1      -7.065  11.912  66.591  1.00  0.00     0.082 C  
HETATM   13  C   UNL     1      -6.859   9.708  67.751  1.00  0.00    -0.078 C  
HETATM   14  C   UNL     1      -7.836  10.830  67.379  1.00  0.00    -0.111 C  
BRANCH   6  15
HETATM   15  O   UNL     1      -7.261  14.100  68.322  1.00  0.00    -0.095 OA 
BRANCH  15  16
HETATM   16  C   UNL     1      -7.295  15.453  68.806  1.00  0.00    -0.135 C  
HETATM   17  H1  UNL     1      -8.762  18.825  66.282  1.00  0.00     0.000 HD 
HETATM   18  C   UNL     1      -6.185  16.361  68.228  1.00  0.00    -0.120 C  
HETATM   19  C   UNL     1      -8.697  16.020  68.448  1.00  0.00    -0.186 C  
HETATM   20  H2  UNL     1      -7.090  18.994  66.132  1.00  0.00     0.000 HD 
HETATM   21  C   UNL     1      -7.735  17.023  66.280  1.00  0.00    -0.311 C  
HETATM   22  C   UNL     1      -6.356  16.481  66.704  1.00  0.00     0.024 C  
HETATM   23  O   UNL     1      -8.915  17.270  69.138  1.00  0.00    -0.139 OA 
HETATM   24  H   UNL     1      -9.772  17.616  68.919  1.00  0.00     0.000 HD 
HETATM   25  N   UNL     1      -7.850  18.466  66.562  1.00  0.00    -0.245 NA 
HETATM   26  C   UNL     1      -8.887  16.186  66.912  1.00  0.00    -0.219 C  
BRANCH  18  27
HETATM   27  N   UNL     1      -6.145  17.659  68.902  1.00  0.00    -0.189 N  
HETATM   28  H   UNL     1      -6.512  17.726  69.851  1.00  0.00     0.000 HD 
HETATM   29  C   UNL     1      -5.635  18.795  68.316  1.00  0.00    -0.190 C  
HETATM   30  O   UNL     1      -5.144  18.826  67.193  1.00  0.00    -0.138 OA 
BRANCH  29  31
HETATM   31  C   UNL     1      -5.701  20.047  69.205  1.00  0.00    -0.257 C  
HETATM   32  H   UNL     1      -6.483  21.857  69.110  1.00  0.00     0.000 HD 
HETATM   33  O   UNL     1      -6.443  21.083  68.559  1.00  0.00    -0.219 OA 
BRANCH  31  34
HETATM   34  C   UNL     1      -6.368  19.733  70.545  1.00  0.00    -0.191 C  
BRANCH  34  35
HETATM   35  C   UNL     1      -5.410  19.934  71.718  1.00  0.00    -0.416 C  
HETATM   36  H1  UNL     1      -4.538  21.489  72.730  1.00  0.00     0.000 HD 
HETATM   37  H2  UNL     1      -6.049  21.866  72.079  1.00  0.00     0.000 HD 
HETATM   38  N   UNL     1      -5.177  21.355  71.948  1.00  0.00    -0.307 NA 
ENDBRANCH  34  35
ENDBRANCH  31  34
ENDBRANCH  29  31
ENDBRANCH  18  27
BRANCH  26  39
HETATM   39  O   UNL     1      -8.895  14.959  66.185  1.00  0.00    -0.176 OA 
BRANCH  39  40
HETATM   40  C   UNL     1     -10.155  14.345  65.898  1.00  0.00    -0.325 C  
HETATM   41  H1  UNL     1     -11.031  17.206  64.127  1.00  0.00     0.000 HD 
HETATM   42  O   UNL     1     -10.964  14.227  67.072  1.00  0.00    -0.293 OA 
HETATM   43  H2  UNL     1      -9.601  16.857  64.923  1.00  0.00     0.000 HD 
HETATM   44  N   UNL     1     -10.599  16.653  64.867  1.00  0.00    -0.689 NA 
HETATM   45  C   UNL     1     -10.818  15.193  64.762  1.00  0.00    -0.357 C  
HETATM   46  C   UNL     1     -12.250  13.777  66.821  1.00  0.00    -0.397 C  
HETATM   47  C   UNL     1     -12.296  14.832  64.560  1.00  0.00    -0.384 C  
HETATM   48  C   UNL     1     -12.888  14.030  65.669  1.00  0.00    -0.442 C  
BRANCH  46  49
HETATM   49  C   UNL     1     -12.904  13.021  67.956  1.00  0.00     1.871 C  
BRANCH  49  50
HETATM   50  N   UNL     1     -12.709  13.653  69.263  1.00  0.00     0.002 NA 
HETATM   51  H   UNL     1     -11.952  13.210  69.783  1.00  0.00     0.000 HD 
BRANCH  50  52
HETATM   52  C   UNL     1     -12.495  15.105  69.134  1.00  0.00     0.060 C  
BRANCH  52  53
HETATM   53  C   UNL     1     -12.340  15.759  70.509  1.00  0.00    -0.350 C  
HETATM   54  O   UNL     1     -11.757  17.053  70.388  1.00  0.00     0.190 OA 
HETATM   55  H   UNL     1     -11.660  17.459  71.242  1.00  0.00     0.000 HD 
ENDBRANCH  52  53
ENDBRANCH  50  52
ENDBRANCH  49  50
ENDBRANCH  46  49
ENDBRANCH  39  40
ENDBRANCH  26  39
ENDBRANCH  15  16
ENDBRANCH   6  15
ENDBRANCH   2   4
TORSDOF 13
ENDMDL
MODEL      246
REMARK 921   NORMALIZED FREE ENERGY PREDICTED BY IDOCK:    6.24 KCAL/MOL
REMARK 922        TOTAL FREE ENERGY PREDICTED BY IDOCK:    7.53 KCAL/MOL
REMARK 923 INTER-LIGAND FREE ENERGY PREDICTED BY IDOCK:   -2.64 KCAL/MOL
REMARK 924 INTRA-LIGAND FREE ENERGY PREDICTED BY IDOCK:   10.16 KCAL/MOL
REMARK 927      BINDING AFFINITY PREDICTED BY RF-SCORE:    0.00 PKD
ROOT
HETATM    1  C   UNL     1      -8.964   7.699  72.538  1.00  0.00    -0.142 C  
HETATM    2  N   UNL     1      -9.269   7.909  71.126  1.00  0.00    -0.145 NA 
HETATM    3  H   UNL     1     -10.043   8.568  71.031  1.00  0.00     0.000 HD 
ENDROOT
BRANCH   2   4
HETATM    4  C   UNL     1      -8.121   8.344  70.276  1.00  0.00    -0.104 C  
HETATM    5  C   UNL     1      -6.750   7.960  70.888  1.00  0.00    -0.037 C  
HETATM    6  C   UNL     1      -5.623   8.282  69.882  1.00  0.00    -0.025 C  
HETATM    7  O   UNL     1      -6.726   6.584  71.274  1.00  0.00    -0.055 OA 
HETATM    8  H   UNL     1      -5.885   6.348  71.649  1.00  0.00     0.000 HD 
HETATM    9  O   UNL     1      -8.068  10.725  70.918  1.00  0.00     1.051 OA 
HETATM   10  O   UNL     1      -5.632   9.685  69.612  1.00  0.00    -0.033 OA 
HETATM   11  H   UNL     1      -8.052  11.628  70.625  1.00  0.00     0.000 HD 
HETATM   12  C   UNL     1      -6.834  10.102  68.942  1.00  0.00    -0.054 C  
HETATM   13  C   UNL     1      -9.331  10.189  68.960  1.00  0.00    -0.192 C  
HETATM   14  C   UNL     1      -8.095   9.833  69.793  1.00  0.00    -0.167 C  
BRANCH   6  15
HETATM   15  O   UNL     1      -5.783   7.523  68.681  1.00  0.00    -0.022 OA 
BRANCH  15  16
HETATM   16  C   UNL     1      -6.722   8.041  67.723  1.00  0.00    -0.068 C  
HETATM   17  H1  UNL     1      -9.786   5.446  65.782  1.00  0.00     0.000 HD 
HETATM   18  C   UNL     1      -6.411   7.656  66.258  1.00  0.00    -0.049 C  
HETATM   19  C   UNL     1      -8.121   7.507  68.137  1.00  0.00    -0.124 C  
HETATM   20  H2  UNL     1      -8.611   5.539  64.576  1.00  0.00     0.000 HD 
HETATM   21  C   UNL     1      -7.846   5.531  66.508  1.00  0.00    -0.101 C  
HETATM   22  C   UNL     1      -6.486   6.128  66.098  1.00  0.00    -0.046 C  
HETATM   23  O   UNL     1      -9.152   8.200  67.399  1.00  0.00    -0.132 OA 
HETATM   24  H   UNL     1     -10.008   7.873  67.652  1.00  0.00     0.000 HD 
HETATM   25  N   UNL     1      -8.886   5.841  65.511  1.00  0.00    -0.143 NA 
HETATM   26  C   UNL     1      -8.238   5.966  67.953  1.00  0.00    -0.108 C  
BRANCH  18  27
HETATM   27  N   UNL     1      -7.275   8.371  65.318  1.00  0.00    -0.081 N  
HETATM   28  H   UNL     1      -8.110   7.899  64.971  1.00  0.00     0.000 HD 
HETATM   29  C   UNL     1      -7.015   9.649  64.879  1.00  0.00    -0.113 C  
HETATM   30  O   UNL     1      -6.058  10.319  65.250  1.00  0.00    -0.107 OA 
BRANCH  29  31
HETATM   31  C   UNL     1      -8.054  10.199  63.888  1.00  0.00    -0.157 C  
HETATM   32  H   UNL     1      -9.481   9.477  62.731  1.00  0.00     0.000 HD 
HETATM   33  O   UNL     1      -8.838   9.137  63.344  1.00  0.00    -0.186 OA 
BRANCH  31  34
HETATM   34  C   UNL     1      -8.990  11.195  64.573  1.00  0.00     0.004 C  
BRANCH  34  35
HETATM   35  C   UNL     1      -9.708  12.087  63.561  1.00  0.00    -0.200 C  
HETATM   36  H1  UNL     1     -11.530  12.177  62.625  1.00  0.00     0.000 HD 
HETATM   37  H2  UNL     1     -11.589  11.472  64.160  1.00  0.00     0.000 HD 
HETATM   38  N   UNL     1     -11.051  11.582  63.300  1.00  0.00    -0.279 NA 
ENDBRANCH  34  35
ENDBRANCH  31  34
ENDBRANCH  29  31
ENDBRANCH  18  27
BRANCH  26  39
HETATM   39  O   UNL     1      -7.391   5.206  68.812  1.00  0.00    -0.061 OA 
BRANCH  39  40
HETATM   40  C   UNL     1      -7.156   3.831  68.496  1.00  0.00    -0.051 C  
HETATM   41  H1  UNL     1      -5.278   3.584  71.412  1.00  0.00     0.000 HD 
HETATM   42  O   UNL     1      -6.308   3.691  67.352  1.00  0.00    -0.035 OA 
HETATM   43  H2  UNL     1      -6.101   4.906  70.798  1.00  0.00     0.000 HD 
HETATM   44  N   UNL     1      -5.654   4.018  70.569  1.00  0.00    -0.012 NA 
HETATM   45  C   UNL     1      -6.579   3.165  69.790  1.00  0.00    -0.033 C  
HETATM   46  C   UNL     1      -5.929   2.383  67.095  1.00  0.00    -0.023 C  
HETATM   47  C   UNL     1      -6.003   1.769  69.513  1.00  0.00    -0.023 C  
HETATM   48  C   UNL     1      -5.790   1.470  68.068  1.00  0.00    -0.019 C  
BRANCH  46  49
HETATM   49  C   UNL     1      -5.637   2.067  65.645  1.00  0.00    -0.016 C  
BRANCH  49  50
HETATM   50  N   UNL     1      -6.269   3.001  64.709  1.00  0.00    -0.023 NA 
HETATM   51  H   UNL     1      -6.208   2.664  63.748  1.00  0.00     0.000 HD 
BRANCH  50  52
HETATM   52  C   UNL     1      -7.662   3.289  65.092  1.00  0.00    -0.081 C  
BRANCH  52  53
HETATM   53  C   UNL     1      -8.558   2.073  64.846  1.00  0.00    -0.099 C  
HETATM   54  O   UNL     1      -9.773   2.187  65.584  1.00  0.00    -0.342 OA 
HETATM   55  H   UNL     1     -10.329   1.432  65.431  1.00  0.00     0.000 HD 
ENDBRANCH  52  53
ENDBRANCH  50  52
ENDBRANCH  49  50
ENDBRANCH  46  49
ENDBRANCH  39  40
ENDBRANCH  26  39
ENDBRANCH  15  16
ENDBRANCH   6  15
ENDBRANCH   2   4
TORSDOF 13
ENDMDL
MODEL      247
REMARK 921   NORMALIZED FREE ENERGY PREDICTED BY IDOCK:    6.91 KCAL/MOL
REMARK 922        TOTAL FREE ENERGY PREDICTED BY IDOCK:    8.70 KCAL/MOL
REMARK 923 INTER-LIGAND FREE ENERGY PREDICTED BY IDOCK:    2.74 KCAL/MOL
REMARK 924 INTRA-LIGAND FREE ENERGY PREDICTED BY IDOCK:    5.96 KCAL/MOL
REMARK 927      BINDING AFFINITY PREDICTED BY RF-SCORE:    0.00 PKD
ROOT
HETATM    1  C   UNL     1      -9.892   8.091  72.429  1.00  0.00    -0.247 C  
HETATM    2  N   UNL     1      -9.933   8.103  70.970  1.00  0.00    -0.185 NA 
HETATM    3  H   UNL     1     -10.198   7.181  70.621  1.00  0.00     0.000 HD 
ENDROOT
BRANCH   2   4
HETATM    4  C   UNL     1     -10.805   9.150  70.358  1.00  0.00    -0.242 C  
HETATM    5  C   UNL     1     -10.111  10.534  70.288  1.00  0.00     0.359 C  
HETATM    6  C   UNL     1     -10.996  11.520  69.494  1.00  0.00    -0.125 C  
HETATM    7  O   UNL     1      -8.805  10.427  69.715  1.00  0.00    -0.369 OA 
HETATM    8  H   UNL     1      -8.380  11.276  69.673  1.00  0.00     0.000 HD 
HETATM    9  O   UNL     1     -12.225   9.637  72.315  1.00  0.00    -0.240 OA 
HETATM   10  O   UNL     1     -12.247  11.664  70.168  1.00  0.00    -0.310 OA 
HETATM   11  H   UNL     1     -13.107   9.732  72.654  1.00  0.00     0.000 HD 
HETATM   12  C   UNL     1     -13.002  10.440  70.178  1.00  0.00     0.056 C  
HETATM   13  C   UNL     1     -13.071   8.015  70.775  1.00  0.00     0.332 C  
HETATM   14  C   UNL     1     -12.258   9.307  70.917  1.00  0.00    -0.201 C  
BRANCH   6  15
HETATM   15  O   UNL     1     -11.180  11.066  68.151  1.00  0.00    -0.253 OA 
BRANCH  15  16
HETATM   16  C   UNL     1      -9.988  10.708  67.432  1.00  0.00    -0.181 C  
HETATM   17  H1  UNL     1      -6.881  13.724  66.365  1.00  0.00     0.000 HD 
HETATM   18  C   UNL     1      -9.987  11.140  65.948  1.00  0.00    -0.239 C  
HETATM   19  C   UNL     1      -8.799  11.364  68.187  1.00  0.00    -0.162 C  
HETATM   20  H2  UNL     1      -7.719  13.574  64.909  1.00  0.00     0.000 HD 
HETATM   21  C   UNL     1      -8.914  13.389  66.600  1.00  0.00    -0.122 C  
HETATM   22  C   UNL     1     -10.058  12.674  65.857  1.00  0.00    -0.276 C  
HETATM   23  O   UNL     1      -7.549  10.830  67.699  1.00  0.00    -0.094 OA 
HETATM   24  H   UNL     1      -6.821  11.232  68.160  1.00  0.00     0.000 HD 
HETATM   25  N   UNL     1      -7.638  13.251  65.873  1.00  0.00     2.615 NA 
HETATM   26  C   UNL     1      -8.825  12.917  68.082  1.00  0.00    -0.194 C  
BRANCH  18  27
HETATM   27  N   UNL     1      -8.848  10.578  65.223  1.00  0.00    -0.182 N  
HETATM   28  H   UNL     1      -8.028  11.166  65.075  1.00  0.00     0.000 HD 
HETATM   29  C   UNL     1      -8.830   9.293  64.730  1.00  0.00    -0.185 C  
HETATM   30  O   UNL     1      -9.746   8.491  64.873  1.00  0.00     0.755 OA 
BRANCH  29  31
HETATM   31  C   UNL     1      -7.532   8.918  63.996  1.00  0.00    -0.112 C  
HETATM   32  H   UNL     1      -6.421   9.657  62.542  1.00  0.00     0.000 HD 
HETATM   33  O   UNL     1      -7.223   9.889  62.996  1.00  0.00    -0.117 OA 
BRANCH  31  34
HETATM   34  C   UNL     1      -6.357   8.831  64.970  1.00  0.00    -0.064 C  
BRANCH  34  35
HETATM   35  C   UNL     1      -6.411   7.556  65.813  1.00  0.00    -0.042 C  
HETATM   36  H1  UNL     1      -5.222   6.560  67.154  1.00  0.00     0.000 HD 
HETATM   37  H2  UNL     1      -4.999   8.235  67.162  1.00  0.00     0.000 HD 
HETATM   38  N   UNL     1      -5.187   7.410  66.592  1.00  0.00    -0.023 NA 
ENDBRANCH  34  35
ENDBRANCH  31  34
ENDBRANCH  29  31
ENDBRANCH  18  27
BRANCH  26  39
HETATM   39  O   UNL     1      -9.934  13.531  68.735  1.00  0.00    -0.182 OA 
BRANCH  39  40
HETATM   40  C   UNL     1     -10.205  14.910  68.466  1.00  0.00    -0.235 C  
HETATM   41  H1  UNL     1     -11.689  15.126  71.603  1.00  0.00     0.000 HD 
HETATM   42  O   UNL     1     -11.194  15.063  67.443  1.00  0.00    -0.319 OA 
HETATM   43  H2  UNL     1     -10.956  13.811  70.874  1.00  0.00     0.000 HD 
HETATM   44  N   UNL     1     -11.427  14.702  70.714  1.00  0.00    -0.229 NA 
HETATM   45  C   UNL     1     -10.608  15.562  69.831  1.00  0.00    -0.313 C  
HETATM   46  C   UNL     1     -11.599  16.374  67.251  1.00  0.00     0.536 C  
HETATM   47  C   UNL     1     -11.212  16.961  69.646  1.00  0.00     0.250 C  
HETATM   48  C   UNL     1     -11.610  17.277  68.244  1.00  0.00     0.759 C  
BRANCH  46  49
HETATM   49  C   UNL     1     -12.076  16.707  65.855  1.00  0.00     2.584 C  
BRANCH  49  50
HETATM   50  N   UNL     1     -11.282  16.066  64.803  1.00  0.00    -0.518 NA 
HETATM   51  H   UNL     1     -10.715  15.305  65.175  1.00  0.00     0.000 HD 
BRANCH  50  52
HETATM   52  C   UNL     1     -12.132  15.610  63.689  1.00  0.00     0.819 C  
BRANCH  52  53
HETATM   53  C   UNL     1     -12.755  14.247  64.000  1.00  0.00     0.255 C  
HETATM   54  O   UNL     1     -12.686  13.391  62.863  1.00  0.00    -0.619 OA 
HETATM   55  H   UNL     1     -13.073  12.545  63.056  1.00  0.00     0.000 HD 
ENDBRANCH  52  53
ENDBRANCH  50  52
ENDBRANCH  49  50
ENDBRANCH  46  49
ENDBRANCH  39  40
ENDBRANCH  26  39
ENDBRANCH  15  16
ENDBRANCH   6  15
ENDBRANCH   2   4
TORSDOF 13
ENDMDL
MODEL      248
REMARK 921   NORMALIZED FREE ENERGY PREDICTED BY IDOCK:    7.26 KCAL/MOL
REMARK 922        TOTAL FREE ENERGY PREDICTED BY IDOCK:    9.32 KCAL/MOL
REMARK 923 INTER-LIGAND FREE ENERGY PREDICTED BY IDOCK:   -5.39 KCAL/MOL
REMARK 924 INTRA-LIGAND FREE ENERGY PREDICTED BY IDOCK:   14.71 KCAL/MOL
REMARK 927      BINDING AFFINITY PREDICTED BY RF-SCORE:    0.00 PKD
ROOT
HETATM    1  C   UNL     1      -6.225   8.769  64.049  1.00  0.00    -0.072 C  
HETATM    2  N   UNL     1      -7.328   8.334  64.901  1.00  0.00    -0.084 NA 
HETATM    3  H   UNL     1      -7.423   7.319  64.857  1.00  0.00     0.000 HD 
ENDROOT
BRANCH   2   4
HETATM    4  C   UNL     1      -7.258   8.779  66.325  1.00  0.00    -0.086 C  
HETATM    5  C   UNL     1      -6.699  10.217  66.470  1.00  0.00    -0.090 C  
HETATM    6  C   UNL     1      -6.816  10.674  67.942  1.00  0.00    -0.073 C  
HETATM    7  O   UNL     1      -7.370  11.122  65.590  1.00  0.00    -0.365 OA 
HETATM    8  H   UNL     1      -7.028  12.004  65.679  1.00  0.00     0.000 HD 
HETATM    9  O   UNL     1      -5.192   7.600  66.978  1.00  0.00    -0.028 OA 
HETATM   10  O   UNL     1      -6.044   9.793  68.760  1.00  0.00    -0.042 OA 
HETATM   11  H   UNL     1      -4.769   7.021  67.601  1.00  0.00     0.000 HD 
HETATM   12  C   UNL     1      -6.569   8.455  68.763  1.00  0.00    -0.054 C  
HETATM   13  C   UNL     1      -7.245   6.457  67.423  1.00  0.00    -0.082 C  
HETATM   14  C   UNL     1      -6.560   7.826  67.352  1.00  0.00    -0.063 C  
BRANCH   6  15
HETATM   15  O   UNL     1      -8.183  10.702  68.357  1.00  0.00    -0.114 OA 
BRANCH  15  16
HETATM   16  C   UNL     1      -8.835  11.982  68.309  1.00  0.00    -0.182 C  
HETATM   17  H1  UNL     1     -12.690  12.586  66.148  1.00  0.00     0.000 HD 
HETATM   18  C   UNL     1      -8.709  12.707  66.949  1.00  0.00    -0.175 C  
HETATM   19  C   UNL     1     -10.330  11.734  68.652  1.00  0.00    -0.214 C  
HETATM   20  H2  UNL     1     -11.579  13.188  65.030  1.00  0.00     0.000 HD 
HETATM   21  C   UNL     1     -10.878  11.577  66.141  1.00  0.00    -0.278 C  
HETATM   22  C   UNL     1      -9.394  11.873  65.853  1.00  0.00    -0.193 C  
HETATM   23  O   UNL     1     -10.996  12.992  68.898  1.00  0.00    -0.244 OA 
HETATM   24  H   UNL     1     -11.910  12.841  69.108  1.00  0.00     0.000 HD 
HETATM   25  N   UNL     1     -11.708  12.782  65.957  1.00  0.00    -0.396 NA 
HETATM   26  C   UNL     1     -11.059  10.921  67.543  1.00  0.00    -0.310 C  
BRANCH  18  27
HETATM   27  N   UNL     1      -9.213  14.079  67.021  1.00  0.00    -0.244 N  
HETATM   28  H   UNL     1      -9.153  14.663  66.186  1.00  0.00     0.000 HD 
HETATM   29  C   UNL     1      -9.766  14.619  68.160  1.00  0.00    -0.220 C  
HETATM   30  O   UNL     1      -9.914  14.002  69.209  1.00  0.00    -0.004 OA 
BRANCH  29  31
HETATM   31  C   UNL     1     -10.222  16.079  68.007  1.00  0.00    -0.245 C  
HETATM   32  H   UNL     1      -9.803  17.824  68.829  1.00  0.00     0.000 HD 
HETATM   33  O   UNL     1      -9.521  16.922  68.923  1.00  0.00    -0.259 OA 
BRANCH  31  34
HETATM   34  C   UNL     1      -9.970  16.587  66.588  1.00  0.00    -0.284 C  
BRANCH  34  35
HETATM   35  C   UNL     1     -11.264  16.679  65.779  1.00  0.00     0.338 C  
HETATM   36  H1  UNL     1     -12.155  15.713  64.205  1.00  0.00     0.000 HD 
HETATM   37  H2  UNL     1     -11.153  14.719  65.133  1.00  0.00     0.000 HD 
HETATM   38  N   UNL     1     -11.292  15.651  64.745  1.00  0.00    -0.391 NA 
ENDBRANCH  34  35
ENDBRANCH  31  34
ENDBRANCH  29  31
ENDBRANCH  18  27
BRANCH  26  39
HETATM   39  O   UNL     1     -10.589   9.584  67.390  1.00  0.00    -0.268 OA 
BRANCH  39  40
HETATM   40  C   UNL     1     -10.563   8.735  68.542  1.00  0.00    -0.129 C  
HETATM   41  H1  UNL     1     -12.982  10.778  69.980  1.00  0.00     0.000 HD 
HETATM   42  O   UNL     1      -9.329   8.855  69.257  1.00  0.00    -0.147 OA 
HETATM   43  H2  UNL     1     -12.265  10.895  68.472  1.00  0.00     0.000 HD 
HETATM   44  N   UNL     1     -12.161  10.540  69.423  1.00  0.00    -0.175 NA 
HETATM   45  C   UNL     1     -11.822   9.099  69.397  1.00  0.00     0.851 C  
HETATM   46  C   UNL     1      -9.312   8.168  70.460  1.00  0.00    -0.155 C  
HETATM   47  C   UNL     1     -11.765   8.482  70.801  1.00  0.00    -0.228 C  
HETATM   48  C   UNL     1     -10.420   7.969  71.191  1.00  0.00    -0.230 C  
BRANCH  46  49
HETATM   49  C   UNL     1      -7.950   7.697  70.917  1.00  0.00    -0.094 C  
BRANCH  49  50
HETATM   50  N   UNL     1      -7.985   6.965  72.187  1.00  0.00    -0.095 NA 
HETATM   51  H   UNL     1      -7.625   6.017  72.081  1.00  0.00     0.000 HD 
BRANCH  50  52
HETATM   52  C   UNL     1      -7.273   7.696  73.250  1.00  0.00    -0.089 C  
BRANCH  52  53
HETATM   53  C   UNL     1      -7.257   6.888  74.550  1.00  0.00    -0.098 C  
HETATM   54  O   UNL     1      -7.125   5.496  74.275  1.00  0.00    -0.080 OA 
HETATM   55  H   UNL     1      -7.116   4.995  75.082  1.00  0.00     0.000 HD 
ENDBRANCH  52  53
ENDBRANCH  50  52
ENDBRANCH  49  50
ENDBRANCH  46  49
ENDBRANCH  39  40
ENDBRANCH  26  39
ENDBRANCH  15  16
ENDBRANCH   6  15
ENDBRANCH   2   4
TORSDOF 13
ENDMDL
MODEL      249
REMARK 921   NORMALIZED FREE ENERGY PREDICTED BY IDOCK:    7.42 KCAL/MOL
REMARK 922        TOTAL FREE ENERGY PREDICTED BY IDOCK:    9.59 KCAL/MOL
REMARK 923 INTER-LIGAND FREE ENERGY PREDICTED BY IDOCK:    2.70 KCAL/MOL
REMARK 924 INTRA-LIGAND FREE ENERGY PREDICTED BY IDOCK:    6.89 KCAL/MOL
REMARK 927      BINDING AFFINITY PREDICTED BY RF-SCORE:    0.00 PKD
ROOT
HETATM    1  C   UNL     1      -9.453  14.543  69.937  1.00  0.00     0.693 C  
HETATM    2  N   UNL     1      -8.138  14.802  70.515  1.00  0.00     0.510 NA 
HETATM    3  H   UNL     1      -8.237  15.125  71.477  1.00  0.00     0.000 HD 
ENDROOT
BRANCH   2   4
HETATM    4  C   UNL     1      -7.172  13.664  70.455  1.00  0.00     1.302 C  
HETATM    5  C   UNL     1      -7.880  12.288  70.378  1.00  0.00     3.961 C  
HETATM    6  C   UNL     1      -6.832  11.177  70.145  1.00  0.00     0.142 C  
HETATM    7  O   UNL     1      -8.882  12.280  69.359  1.00  0.00     0.151 OA 
HETATM    8  H   UNL     1      -9.316  11.436  69.312  1.00  0.00     0.000 HD 
HETATM    9  O   UNL     1      -6.584  13.554  72.847  1.00  0.00     1.033 OA 
HETATM   10  O   UNL     1      -5.919  11.166  71.244  1.00  0.00    -0.358 OA 
HETATM   11  H   UNL     1      -5.891  13.528  73.497  1.00  0.00     0.000 HD 
HETATM   12  C   UNL     1      -5.142  12.374  71.317  1.00  0.00    -0.138 C  
HETATM   13  C   UNL     1      -5.140  14.869  71.467  1.00  0.00    -0.151 C  
HETATM   14  C   UNL     1      -6.029  13.621  71.524  1.00  0.00     0.164 C  
BRANCH   6  15
HETATM   15  O   UNL     1      -6.148  11.376  68.906  1.00  0.00    -0.047 OA 
BRANCH  15  16
HETATM   16  C   UNL     1      -6.846  10.956  67.721  1.00  0.00    -0.072 C  
HETATM   17  H1  UNL     1      -9.265   7.210  67.613  1.00  0.00     0.000 HD 
HETATM   18  C   UNL     1      -6.180   9.776  66.977  1.00  0.00    -0.064 C  
HETATM   19  C   UNL     1      -8.285  10.572  68.165  1.00  0.00    -0.114 C  
HETATM   20  H2  UNL     1      -7.838   6.712  66.864  1.00  0.00     0.000 HD 
HETATM   21  C   UNL     1      -7.560   8.110  68.377  1.00  0.00    -0.105 C  
HETATM   22  C   UNL     1      -6.162   8.535  67.887  1.00  0.00    -0.056 C  
HETATM   23  O   UNL     1      -9.132  10.406  67.006  1.00  0.00    -0.139 OA 
HETATM   24  H   UNL     1     -10.011  10.171  67.278  1.00  0.00     0.000 HD 
HETATM   25  N   UNL     1      -8.340   7.491  67.289  1.00  0.00    -0.118 NA 
HETATM   26  C   UNL     1      -8.302   9.298  69.059  1.00  0.00    -0.123 C  
BRANCH  18  27
HETATM   27  N   UNL     1      -6.817   9.525  65.684  1.00  0.00    -0.084 N  
HETATM   28  H   UNL     1      -7.615   8.891  65.650  1.00  0.00     0.000 HD 
HETATM   29  C   UNL     1      -6.391  10.105  64.511  1.00  0.00    -0.129 C  
HETATM   30  O   UNL     1      -5.462  10.903  64.438  1.00  0.00    -0.094 OA 
BRANCH  29  31
HETATM   31  C   UNL     1      -7.203   9.693  63.272  1.00  0.00    -0.111 C  
HETATM   32  H   UNL     1      -7.152   8.264  61.912  1.00  0.00     0.000 HD 
HETATM   33  O   UNL     1      -6.649   8.518  62.677  1.00  0.00    -0.091 OA 
BRANCH  31  34
HETATM   34  C   UNL     1      -8.659   9.411  63.642  1.00  0.00    -0.220 C  
BRANCH  34  35
HETATM   35  C   UNL     1      -9.458  10.701  63.828  1.00  0.00    -0.290 C  
HETATM   36  H1  UNL     1      -9.763  12.467  62.831  1.00  0.00     0.000 HD 
HETATM   37  H2  UNL     1      -9.431  11.161  61.812  1.00  0.00     0.000 HD 
HETATM   38  N   UNL     1      -9.231  11.606  62.708  1.00  0.00    -0.307 NA 
ENDBRANCH  34  35
ENDBRANCH  31  34
ENDBRANCH  29  31
ENDBRANCH  18  27
BRANCH  26  39
HETATM   39  O   UNL     1      -7.661   9.459  70.323  1.00  0.00    -0.102 OA 
BRANCH  39  40
HETATM   40  C   UNL     1      -8.216   8.790  71.459  1.00  0.00    -0.135 C  
HETATM   41  H1  UNL     1      -5.682   6.425  71.179  1.00  0.00     0.000 HD 
HETATM   42  O   UNL     1      -9.480   8.194  71.154  1.00  0.00    -0.149 OA 
HETATM   43  H2  UNL     1      -5.957   7.788  70.249  1.00  0.00     0.000 HD 
HETATM   44  N   UNL     1      -6.383   7.094  70.862  1.00  0.00    -0.036 NA 
HETATM   45  C   UNL     1      -7.139   7.763  71.945  1.00  0.00    -0.067 C  
HETATM   46  C   UNL     1      -9.988   7.408  72.176  1.00  0.00    -0.170 C  
HETATM   47  C   UNL     1      -7.709   6.769  72.967  1.00  0.00    -0.093 C  
HETATM   48  C   UNL     1      -9.198   6.747  73.035  1.00  0.00    -0.145 C  
BRANCH  46  49
HETATM   49  C   UNL     1     -11.496   7.309  72.227  1.00  0.00    -0.278 C  
BRANCH  49  50
HETATM   50  N   UNL     1     -12.156   8.601  72.436  1.00  0.00    -0.370 NA 
HETATM   51  H   UNL     1     -11.515   9.287  72.833  1.00  0.00     0.000 HD 
BRANCH  50  52
HETATM   52  C   UNL     1     -12.776   9.096  71.195  1.00  0.00    -0.213 C  
BRANCH  52  53
HETATM   53  C   UNL     1     -12.361  10.544  70.918  1.00  0.00    -0.390 C  
HETATM   54  O   UNL     1     -11.083  10.588  70.289  1.00  0.00    -0.298 OA 
HETATM   55  H   UNL     1     -10.825  11.487  70.118  1.00  0.00     0.000 HD 
ENDBRANCH  52  53
ENDBRANCH  50  52
ENDBRANCH  49  50
ENDBRANCH  46  49
ENDBRANCH  39  40
ENDBRANCH  26  39
ENDBRANCH  15  16
ENDBRANCH   6  15
ENDBRANCH   2   4
TORSDOF 13
ENDMDL
MODEL      250
REMARK 921   NORMALIZED FREE ENERGY PREDICTED BY IDOCK:    9.85 KCAL/MOL
REMARK 922        TOTAL FREE ENERGY PREDICTED BY IDOCK:   13.87 KCAL/MOL
REMARK 923 INTER-LIGAND FREE ENERGY PREDICTED BY IDOCK:    4.87 KCAL/MOL
REMARK 924 INTRA-LIGAND FREE ENERGY PREDICTED BY IDOCK:    9.01 KCAL/MOL
REMARK 927      BINDING AFFINITY PREDICTED BY RF-SCORE:    0.00 PKD
ROOT
HETATM    1  C   UNL     1      -6.832   8.561  70.314  1.00  0.00    -0.039 C  
HETATM    2  N   UNL     1      -7.294   8.883  68.967  1.00  0.00    -0.072 NA 
HETATM    3  H   UNL     1      -6.824   9.724  68.629  1.00  0.00     0.000 HD 
ENDROOT
BRANCH   2   4
HETATM    4  C   UNL     1      -7.164   7.787  67.961  1.00  0.00    -0.087 C  
HETATM    5  C   UNL     1      -6.303   6.606  68.478  1.00  0.00    -0.038 C  
HETATM    6  C   UNL     1      -6.354   5.443  67.462  1.00  0.00    -0.039 C  
HETATM    7  O   UNL     1      -6.731   6.185  69.775  1.00  0.00    -0.048 OA 
HETATM    8  H   UNL     1      -6.203   5.461  70.091  1.00  0.00     0.000 HD 
HETATM    9  O   UNL     1      -5.433   8.803  66.529  1.00  0.00    -0.034 OA 
HETATM   10  O   UNL     1      -5.821   5.893  66.216  1.00  0.00    -0.016 OA 
HETATM   11  H   UNL     1      -5.166   9.040  65.649  1.00  0.00     0.000 HD 
HETATM   12  C   UNL     1      -6.631   6.920  65.618  1.00  0.00    -0.051 C  
HETATM   13  C   UNL     1      -7.700   9.166  65.861  1.00  0.00    -0.095 C  
HETATM   14  C   UNL     1      -6.725   8.177  66.510  1.00  0.00    -0.063 C  
BRANCH   6  15
HETATM   15  O   UNL     1      -7.692   4.962  67.310  1.00  0.00    -0.090 OA 
BRANCH  15  16
HETATM   16  C   UNL     1      -8.327   4.463  68.500  1.00  0.00    -0.084 C  
HETATM   17  H1  UNL     1     -12.581   5.390  69.467  1.00  0.00     0.000 HD 
HETATM   18  C   UNL     1      -8.524   5.525  69.605  1.00  0.00    -0.101 C  
HETATM   19  C   UNL     1      -9.698   3.880  68.061  1.00  0.00    -0.064 C  
HETATM   20  H2  UNL     1     -11.765   6.492  70.448  1.00  0.00     0.000 HD 
HETATM   21  C   UNL     1     -10.832   6.122  68.628  1.00  0.00    -0.332 C  
HETATM   22  C   UNL     1      -9.457   6.637  69.095  1.00  0.00    -0.136 C  
HETATM   23  O   UNL     1     -10.277   3.113  69.141  1.00  0.00     0.670 OA 
HETATM   24  H   UNL     1     -11.116   2.756  68.873  1.00  0.00     0.000 HD 
HETATM   25  N   UNL     1     -11.671   5.731  69.775  1.00  0.00     0.551 NA 
HETATM   26  C   UNL     1     -10.677   4.986  67.572  1.00  0.00     0.200 C  
BRANCH  18  27
HETATM   27  N   UNL     1      -8.986   4.923  70.856  1.00  0.00    -0.129 N  
HETATM   28  H   UNL     1      -9.615   5.461  71.451  1.00  0.00     0.000 HD 
HETATM   29  C   UNL     1      -8.612   3.664  71.268  1.00  0.00    -0.079 C  
HETATM   30  O   UNL     1      -7.884   2.919  70.621  1.00  0.00    -0.043 OA 
BRANCH  29  31
HETATM   31  C   UNL     1      -9.213   3.237  72.617  1.00  0.00    -0.093 C  
HETATM   32  H   UNL     1      -8.944   3.662  74.525  1.00  0.00     0.000 HD 
HETATM   33  O   UNL     1      -8.572   3.926  73.692  1.00  0.00    -0.090 OA 
BRANCH  31  34
HETATM   34  C   UNL     1     -10.711   3.540  72.669  1.00  0.00    -0.067 C  
BRANCH  34  35
HETATM   35  C   UNL     1     -11.082   4.360  73.904  1.00  0.00    -0.189 C  
HETATM   36  H1  UNL     1     -11.811   6.228  74.335  1.00  0.00     0.000 HD 
HETATM   37  H2  UNL     1     -12.336   5.621  72.849  1.00  0.00     0.000 HD 
HETATM   38  N   UNL     1     -11.563   5.680  73.512  1.00  0.00     0.261 NA 
ENDBRANCH  34  35
ENDBRANCH  31  34
ENDBRANCH  29  31
ENDBRANCH  18  27
BRANCH  26  39
HETATM   39  O   UNL     1     -10.267   5.646  66.376  1.00  0.00    -0.190 OA 
BRANCH  39  40
HETATM   40  C   UNL     1     -10.053   4.858  65.201  1.00  0.00     0.131 C  
HETATM   41  H1  UNL     1     -13.500   4.779  64.748  1.00  0.00     0.000 HD 
HETATM   42  O   UNL     1      -9.570   3.550  65.525  1.00  0.00    -0.170 OA 
HETATM   43  H2  UNL     1     -12.613   5.541  65.945  1.00  0.00     0.000 HD 
HETATM   44  N   UNL     1     -12.618   4.784  65.261  1.00  0.00     3.803 NA 
HETATM   45  C   UNL     1     -11.406   4.849  64.415  1.00  0.00     1.503 C  
HETATM   46  C   UNL     1      -9.490   2.699  64.435  1.00  0.00    -0.145 C  
HETATM   47  C   UNL     1     -11.415   3.802  63.292  1.00  0.00     0.778 C  
HETATM   48  C   UNL     1     -10.319   2.796  63.384  1.00  0.00    -0.187 C  
BRANCH  46  49
HETATM   49  C   UNL     1      -8.433   1.621  64.531  1.00  0.00    -0.084 C  
BRANCH  49  50
HETATM   50  N   UNL     1      -7.580   1.538  63.343  1.00  0.00    -0.052 NA 
HETATM   51  H   UNL     1      -8.116   1.680  62.487  1.00  0.00     0.000 HD 
BRANCH  50  52
HETATM   52  C   UNL     1      -6.444   2.472  63.428  1.00  0.00    -0.022 C  
BRANCH  52  53
HETATM   53  C   UNL     1      -6.895   3.907  63.143  1.00  0.00    -0.039 C  
HETATM   54  O   UNL     1      -8.089   3.913  62.366  1.00  0.00    -0.062 OA 
HETATM   55  H   UNL     1      -8.369   4.804  62.189  1.00  0.00     0.000 HD 
ENDBRANCH  52  53
ENDBRANCH  50  52
ENDBRANCH  49  50
ENDBRANCH  46  49
ENDBRANCH  39  40
ENDBRANCH  26  39
ENDBRANCH  15  16
ENDBRANCH   6  15
ENDBRANCH   2   4
TORSDOF 13
ENDMDL
MODEL      251
REMARK 921   NORMALIZED FREE ENERGY PREDICTED BY IDOCK:   10.49 KCAL/MOL
REMARK 922        TOTAL FREE ENERGY PREDICTED BY IDOCK:   14.99 KCAL/MOL
REMARK 923 INTER-LIGAND FREE ENERGY PREDICTED BY IDOCK:    3.17 KCAL/MOL
REMARK 924 INTRA-LIGAND FREE ENERGY PREDICTED BY IDOCK:   11.82 KCAL/MOL
REMARK 927      BINDING AFFINITY PREDICTED BY RF-SCORE:    0.00 PKD
ROOT
HETATM    1  C   UNL     1      -7.225   8.324  72.157  1.00  0.00    -0.096 C  
HETATM    2  N   UNL     1      -8.567   8.009  71.679  1.00  0.00    -0.119 NA 
HETATM    3  H   UNL     1      -9.245   8.140  72.430  1.00  0.00     0.000 HD 
ENDROOT
BRANCH   2   4
HETATM    4  C   UNL     1      -9.007   8.749  70.459  1.00  0.00    -0.177 C  
HETATM    5  C   UNL     1      -9.706  10.090  70.798  1.00  0.00     0.414 C  
HETATM    6  C   UNL     1      -9.977  10.878  69.496  1.00  0.00     0.025 C  
HETATM    7  O   UNL     1      -8.927  10.858  71.718  1.00  0.00     6.051 OA 
HETATM    8  H   UNL     1      -9.356  11.680  71.926  1.00  0.00     0.000 HD 
HETATM    9  O   UNL     1     -11.059   7.470  69.972  1.00  0.00    -0.297 OA 
HETATM   10  O   UNL     1     -10.840  10.106  68.661  1.00  0.00    -0.217 OA 
HETATM   11  H   UNL     1     -11.565   6.993  69.325  1.00  0.00     0.000 HD 
HETATM   12  C   UNL     1     -10.218   8.889  68.214  1.00  0.00    -0.201 C  
HETATM   13  C   UNL     1      -9.078   6.755  68.840  1.00  0.00    -0.133 C  
HETATM   14  C   UNL     1      -9.842   7.964  69.392  1.00  0.00    -0.180 C  
BRANCH   6  15
HETATM   15  O   UNL     1      -8.752  11.190  68.828  1.00  0.00    -0.161 OA 
BRANCH  15  16
HETATM   16  C   UNL     1      -8.561  12.568  68.465  1.00  0.00    -0.054 C  
HETATM   17  H1  UNL     1      -4.519  14.454  68.418  1.00  0.00     0.000 HD 
HETATM   18  C   UNL     1      -8.268  13.503  69.661  1.00  0.00     1.292 C  
HETATM   19  C   UNL     1      -7.384  12.602  67.452  1.00  0.00    -0.140 C  
HETATM   20  H2  UNL     1      -5.128  15.000  69.893  1.00  0.00     0.000 HD 
HETATM   21  C   UNL     1      -5.742  13.082  69.378  1.00  0.00    -0.090 C  
HETATM   22  C   UNL     1      -6.950  13.085  70.335  1.00  0.00     1.352 C  
HETATM   23  O   UNL     1      -7.307  13.903  66.828  1.00  0.00    -0.246 OA 
HETATM   24  H   UNL     1      -6.586  13.924  66.208  1.00  0.00     0.000 HD 
HETATM   25  N   UNL     1      -5.318  14.456  69.051  1.00  0.00    -0.084 NA 
HETATM   26  C   UNL     1      -6.029  12.216  68.114  1.00  0.00    -0.055 C  
BRANCH  18  27
HETATM   27  N   UNL     1      -8.281  14.911  69.260  1.00  0.00    -0.315 N  
HETATM   28  H   UNL     1      -7.537  15.520  69.601  1.00  0.00     0.000 HD 
HETATM   29  C   UNL     1      -9.250  15.452  68.447  1.00  0.00    -0.192 C  
HETATM   30  O   UNL     1     -10.173  14.809  67.958  1.00  0.00    -0.223 OA 
BRANCH  29  31
HETATM   31  C   UNL     1      -9.069  16.952  68.163  1.00  0.00    -0.231 C  
HETATM   32  H   UNL     1      -7.644  18.304  68.354  1.00  0.00     0.000 HD 
HETATM   33  O   UNL     1      -7.756  17.377  68.530  1.00  0.00    -0.246 OA 
BRANCH  31  34
HETATM   34  C   UNL     1      -9.284  17.259  66.680  1.00  0.00    -0.275 C  
BRANCH  34  35
HETATM   35  C   UNL     1      -9.115  18.748  66.378  1.00  0.00    -0.300 C  
HETATM   36  H1  UNL     1      -8.775  20.487  67.408  1.00  0.00     0.000 HD 
HETATM   37  H2  UNL     1      -8.099  19.123  68.139  1.00  0.00     0.000 HD 
HETATM   38  N   UNL     1      -8.888  19.494  67.609  1.00  0.00    -0.307 NA 
ENDBRANCH  34  35
ENDBRANCH  31  34
ENDBRANCH  29  31
ENDBRANCH  18  27
BRANCH  26  39
HETATM   39  O   UNL     1      -5.960  10.865  68.566  1.00  0.00    -0.044 OA 
BRANCH  39  40
HETATM   40  C   UNL     1      -6.963   9.946  68.123  1.00  0.00    -0.076 C  
HETATM   41  H1  UNL     1      -4.982   7.357  69.334  1.00  0.00     0.000 HD 
HETATM   42  O   UNL     1      -7.029   9.887  66.694  1.00  0.00    -0.083 OA 
HETATM   43  H2  UNL     1      -4.703   9.006  69.380  1.00  0.00     0.000 HD 
HETATM   44  N   UNL     1      -5.195   8.254  68.897  1.00  0.00    -0.031 NA 
HETATM   45  C   UNL     1      -6.637   8.570  68.793  1.00  0.00    -0.054 C  
HETATM   46  C   UNL     1      -7.879   8.903  66.215  1.00  0.00    -0.102 C  
HETATM   47  C   UNL     1      -7.448   7.421  68.177  1.00  0.00    -0.105 C  
HETATM   48  C   UNL     1      -8.102   7.759  66.880  1.00  0.00    -0.116 C  
BRANCH  46  49
HETATM   49  C   UNL     1      -8.501   9.186  64.867  1.00  0.00    -0.175 C  
BRANCH  49  50
HETATM   50  N   UNL     1      -7.514   9.383  63.802  1.00  0.00    -0.108 NA 
HETATM   51  H   UNL     1      -6.946   8.548  63.660  1.00  0.00     0.000 HD 
BRANCH  50  52
HETATM   52  C   UNL     1      -8.154   9.819  62.548  1.00  0.00    -0.129 C  
BRANCH  52  53
HETATM   53  C   UNL     1      -9.564  10.353  62.812  1.00  0.00    -0.275 C  
HETATM   54  O   UNL     1      -9.523  11.451  63.720  1.00  0.00    -0.327 OA 
HETATM   55  H   UNL     1     -10.399  11.782  63.885  1.00  0.00     0.000 HD 
ENDBRANCH  52  53
ENDBRANCH  50  52
ENDBRANCH  49  50
ENDBRANCH  46  49
ENDBRANCH  39  40
ENDBRANCH  26  39
ENDBRANCH  15  16
ENDBRANCH   6  15
ENDBRANCH   2   4
TORSDOF 13
ENDMDL
MODEL      252
REMARK 921   NORMALIZED FREE ENERGY PREDICTED BY IDOCK:   11.03 KCAL/MOL
REMARK 922        TOTAL FREE ENERGY PREDICTED BY IDOCK:   15.96 KCAL/MOL
REMARK 923 INTER-LIGAND FREE ENERGY PREDICTED BY IDOCK:   11.05 KCAL/MOL
REMARK 924 INTRA-LIGAND FREE ENERGY PREDICTED BY IDOCK:    4.90 KCAL/MOL
REMARK 927      BINDING AFFINITY PREDICTED BY RF-SCORE:    0.00 PKD
ROOT
HETATM    1  C   UNL     1     -12.511  12.871  66.378  1.00  0.00     0.136 C  
HETATM    2  N   UNL     1     -11.697  13.141  67.560  1.00  0.00    -0.351 NA 
HETATM    3  H   UNL     1     -11.953  14.044  67.961  1.00  0.00     0.000 HD 
ENDROOT
BRANCH   2   4
HETATM    4  C   UNL     1     -11.726  12.086  68.618  1.00  0.00    -0.326 C  
HETATM    5  C   UNL     1     -12.702  10.932  68.278  1.00  0.00     2.523 C  
HETATM    6  C   UNL     1     -12.554   9.802  69.322  1.00  0.00     1.663 C  
HETATM    7  O   UNL     1     -12.485  10.447  66.951  1.00  0.00     2.794 OA 
HETATM    8  H   UNL     1     -13.084   9.739  66.743  1.00  0.00     0.000 HD 
HETATM    9  O   UNL     1     -13.188  13.233  70.240  1.00  0.00     0.319 OA 
HETATM   10  O   UNL     1     -12.882  10.320  70.612  1.00  0.00    -0.336 OA 
HETATM   11  H   UNL     1     -13.314  13.512  71.139  1.00  0.00     0.000 HD 
HETATM   12  C   UNL     1     -11.951  11.326  71.046  1.00  0.00    -0.112 C  
HETATM   13  C   UNL     1     -10.834  13.509  70.562  1.00  0.00     1.496 C  
HETATM   14  C   UNL     1     -11.934  12.546  70.099  1.00  0.00    -0.301 C  
BRANCH   6  15
HETATM   15  O   UNL     1     -11.230   9.263  69.301  1.00  0.00    -0.078 OA 
BRANCH  15  16
HETATM   16  C   UNL     1     -10.970   8.182  70.213  1.00  0.00    -0.240 C  
HETATM   17  H1  UNL     1      -6.827   7.072  71.434  1.00  0.00     0.000 HD 
HETATM   18  C   UNL     1     -10.418   6.905  69.541  1.00  0.00    -0.223 C  
HETATM   19  C   UNL     1      -9.961   8.720  71.264  1.00  0.00    -0.263 C  
HETATM   20  H2  UNL     1      -7.156   5.908  70.259  1.00  0.00     0.000 HD 
HETATM   21  C   UNL     1      -8.012   7.763  69.879  1.00  0.00    -0.110 C  
HETATM   22  C   UNL     1      -9.057   7.210  68.891  1.00  0.00    -0.131 C  
HETATM   23  O   UNL     1      -9.860   7.796  72.370  1.00  0.00    -0.177 OA 
HETATM   24  H   UNL     1      -9.243   8.125  73.013  1.00  0.00     0.000 HD 
HETATM   25  N   UNL     1      -7.519   6.706  70.780  1.00  0.00    -0.085 NA 
HETATM   26  C   UNL     1      -8.563   9.005  70.642  1.00  0.00    -0.210 C  
BRANCH  18  27
HETATM   27  N   UNL     1     -10.363   5.783  70.479  1.00  0.00    -0.229 N  
HETATM   28  H   UNL     1     -10.845   5.873  71.373  1.00  0.00     0.000 HD 
HETATM   29  C   UNL     1      -9.691   4.612  70.212  1.00  0.00    -0.225 C  
HETATM   30  O   UNL     1      -9.102   4.383  69.162  1.00  0.00    -0.106 OA 
BRANCH  29  31
HETATM   31  C   UNL     1      -9.762   3.573  71.343  1.00  0.00    -0.166 C  
HETATM   32  H   UNL     1     -10.044   1.627  71.512  1.00  0.00     0.000 HD 
HETATM   33  O   UNL     1     -10.000   2.269  70.812  1.00  0.00    -0.004 OA 
BRANCH  31  34
HETATM   34  C   UNL     1      -8.459   3.544  72.142  1.00  0.00    -0.090 C  
BRANCH  34  35
HETATM   35  C   UNL     1      -7.777   4.912  72.169  1.00  0.00    -0.094 C  
HETATM   36  H1  UNL     1      -7.520   6.465  73.482  1.00  0.00     0.000 HD 
HETATM   37  H2  UNL     1      -7.665   4.959  74.233  1.00  0.00     0.000 HD 
HETATM   38  N   UNL     1      -7.975   5.553  73.464  1.00  0.00    -0.112 NA 
ENDBRANCH  34  35
ENDBRANCH  31  34
ENDBRANCH  29  31
ENDBRANCH  18  27
BRANCH  26  39
HETATM   39  O   UNL     1      -8.551  10.063  69.686  1.00  0.00    -0.173 OA 
BRANCH  39  40
HETATM   40  C   UNL     1      -7.427  10.948  69.663  1.00  0.00    -0.022 C  
HETATM   41  H1  UNL     1      -6.801  10.077  72.972  1.00  0.00     0.000 HD 
HETATM   42  O   UNL     1      -7.836  12.318  69.585  1.00  0.00     0.702 OA 
HETATM   43  H2  UNL     1      -8.005   9.527  71.947  1.00  0.00     0.000 HD 
HETATM   44  N   UNL     1      -7.358  10.291  72.144  1.00  0.00     2.517 NA 
HETATM   45  C   UNL     1      -6.573  10.621  70.934  1.00  0.00     0.464 C  
HETATM   46  C   UNL     1      -6.792  13.220  69.711  1.00  0.00     0.227 C  
HETATM   47  C   UNL     1      -5.501  11.687  71.200  1.00  0.00    -0.007 C  
HETATM   48  C   UNL     1      -5.697  12.955  70.439  1.00  0.00    -0.171 C  
BRANCH  46  49
HETATM   49  C   UNL     1      -6.993  14.544  69.009  1.00  0.00    -0.121 C  
BRANCH  49  50
HETATM   50  N   UNL     1      -7.956  15.418  69.684  1.00  0.00    -0.217 NA 
HETATM   51  H   UNL     1      -8.796  14.907  69.956  1.00  0.00     0.000 HD 
BRANCH  50  52
HETATM   52  C   UNL     1      -7.347  16.106  70.836  1.00  0.00     2.893 C  
BRANCH  52  53
HETATM   53  C   UNL     1      -5.834  15.871  70.873  1.00  0.00     0.243 C  
HETATM   54  O   UNL     1      -5.135  17.112  70.929  1.00  0.00    -0.241 OA 
HETATM   55  H   UNL     1      -4.196  16.967  70.952  1.00  0.00     0.000 HD 
ENDBRANCH  52  53
ENDBRANCH  50  52
ENDBRANCH  49  50
ENDBRANCH  46  49
ENDBRANCH  39  40
ENDBRANCH  26  39
ENDBRANCH  15  16
ENDBRANCH   6  15
ENDBRANCH   2   4
TORSDOF 13
ENDMDL
MODEL      253
REMARK 921   NORMALIZED FREE ENERGY PREDICTED BY IDOCK:   14.21 KCAL/MOL
REMARK 922        TOTAL FREE ENERGY PREDICTED BY IDOCK:   21.55 KCAL/MOL
REMARK 923 INTER-LIGAND FREE ENERGY PREDICTED BY IDOCK:    9.28 KCAL/MOL
REMARK 924 INTRA-LIGAND FREE ENERGY PREDICTED BY IDOCK:   12.27 KCAL/MOL
REMARK 927      BINDING AFFINITY PREDICTED BY RF-SCORE:    0.00 PKD
ROOT
HETATM    1  C   UNL     1     -13.389  16.341  67.614  1.00  0.00     5.478 C  
HETATM    2  N   UNL     1     -12.060  16.945  67.606  1.00  0.00     1.287 NA 
HETATM    3  H   UNL     1     -12.080  17.839  68.095  1.00  0.00     0.000 HD 
ENDROOT
BRANCH   2   4
HETATM    4  C   UNL     1     -10.961  16.091  68.148  1.00  0.00    -0.339 C  
HETATM    5  C   UNL     1     -11.277  15.543  69.562  1.00  0.00    -0.299 C  
HETATM    6  C   UNL     1     -10.184  14.537  69.986  1.00  0.00     0.407 C  
HETATM    7  O   UNL     1     -12.577  14.950  69.606  1.00  0.00    -0.565 OA 
HETATM    8  H   UNL     1     -12.771  14.614  70.474  1.00  0.00     0.000 HD 
HETATM    9  O   UNL     1      -9.425  17.881  68.867  1.00  0.00    -0.264 OA 
HETATM   10  O   UNL     1      -8.925  15.210  70.022  1.00  0.00     0.016 OA 
HETATM   11  H   UNL     1      -8.542  18.230  68.843  1.00  0.00     0.000 HD 
HETATM   12  C   UNL     1      -8.510  15.655  68.720  1.00  0.00    -0.192 C  
HETATM   13  C   UNL     1      -9.054  16.991  66.679  1.00  0.00    -0.278 C  
HETATM   14  C   UNL     1      -9.505  16.665  68.108  1.00  0.00    -0.228 C  
BRANCH   6  15
HETATM   15  O   UNL     1     -10.149  13.420  69.093  1.00  0.00     0.036 OA 
BRANCH  15  16
HETATM   16  C   UNL     1      -9.458  12.251  69.566  1.00  0.00     1.400 C  
HETATM   17  H1  UNL     1      -7.616   9.309  66.766  1.00  0.00     0.000 HD 
HETATM   18  C   UNL     1     -10.251  10.935  69.396  1.00  0.00    -0.122 C  
HETATM   19  C   UNL     1      -8.118  12.180  68.784  1.00  0.00     0.033 C  
HETATM   20  H2  UNL     1      -9.058   8.533  67.169  1.00  0.00     0.000 HD 
HETATM   21  C   UNL     1      -9.208  10.603  67.064  1.00  0.00    -0.151 C  
HETATM   22  C   UNL     1     -10.500  10.670  67.901  1.00  0.00    -0.243 C  
HETATM   23  O   UNL     1      -7.245  11.201  69.389  1.00  0.00    -0.161 OA 
HETATM   24  H   UNL     1      -6.425  11.157  68.911  1.00  0.00     0.000 HD 
HETATM   25  N   UNL     1      -8.471   9.353  67.320  1.00  0.00    -0.124 NA 
HETATM   26  C   UNL     1      -8.336  11.878  67.273  1.00  0.00    -0.169 C  
BRANCH  18  27
HETATM   27  N   UNL     1      -9.590   9.817  70.070  1.00  0.00    -0.237 N  
HETATM   28  H   UNL     1      -8.737   9.438  69.660  1.00  0.00     0.000 HD 
HETATM   29  C   UNL     1     -10.066   9.252  71.232  1.00  0.00    -0.291 C  
HETATM   30  O   UNL     1     -11.064   9.644  71.826  1.00  0.00    -0.298 OA 
BRANCH  29  31
HETATM   31  C   UNL     1      -9.215   8.086  71.760  1.00  0.00    -0.161 C  
HETATM   32  H   UNL     1      -9.450   6.555  72.984  1.00  0.00     0.000 HD 
HETATM   33  O   UNL     1      -9.976   7.276  72.658  1.00  0.00    -0.169 OA 
BRANCH  31  34
HETATM   34  C   UNL     1      -8.720   7.206  70.612  1.00  0.00    -0.148 C  
BRANCH  34  35
HETATM   35  C   UNL     1      -9.855   6.812  69.667  1.00  0.00    -0.165 C  
HETATM   36  H1  UNL     1     -11.255   5.324  69.496  1.00  0.00     0.000 HD 
HETATM   37  H2  UNL     1     -10.817   5.665  71.092  1.00  0.00     0.000 HD 
HETATM   38  N   UNL     1     -10.498   5.587  70.127  1.00  0.00    -0.285 NA 
ENDBRANCH  34  35
ENDBRANCH  31  34
ENDBRANCH  29  31
ENDBRANCH  18  27
BRANCH  26  39
HETATM   39  O   UNL     1      -9.013  12.911  66.560  1.00  0.00    -0.183 OA 
BRANCH  39  40
HETATM   40  C   UNL     1     -10.428  12.801  66.379  1.00  0.00    -0.250 C  
HETATM   41  H1  UNL     1      -9.821  10.593  63.761  1.00  0.00     0.000 HD 
HETATM   42  O   UNL     1     -10.991  14.017  65.876  1.00  0.00    -0.283 OA 
HETATM   43  H2  UNL     1      -8.725  11.367  64.762  1.00  0.00     0.000 HD 
HETATM   44  N   UNL     1      -9.666  11.398  64.369  1.00  0.00    -0.241 NA 
HETATM   45  C   UNL     1     -10.666  11.566  65.447  1.00  0.00    -0.278 C  
HETATM   46  C   UNL     1     -12.332  13.914  65.543  1.00  0.00    -0.480 C  
HETATM   47  C   UNL     1     -12.109  11.506  64.926  1.00  0.00     0.373 C  
HETATM   48  C   UNL     1     -12.881  12.768  65.112  1.00  0.00    -0.237 C  
BRANCH  46  49
HETATM   49  C   UNL     1     -13.126  15.196  65.653  1.00  0.00     1.148 C  
BRANCH  49  50
HETATM   50  N   UNL     1     -12.544  16.306  64.893  1.00  0.00     1.339 NA 
HETATM   51  H   UNL     1     -11.842  16.804  65.439  1.00  0.00     0.000 HD 
BRANCH  50  52
HETATM   52  C   UNL     1     -11.999  15.849  63.602  1.00  0.00     1.091 C  
BRANCH  52  53
HETATM   53  C   UNL     1     -12.383  14.392  63.334  1.00  0.00     0.649 C  
HETATM   54  O   UNL     1     -13.612  14.320  62.616  1.00  0.00     2.865 OA 
HETATM   55  H   UNL     1     -13.851  13.415  62.450  1.00  0.00     0.000 HD 
ENDBRANCH  52  53
ENDBRANCH  50  52
ENDBRANCH  49  50
ENDBRANCH  46  49
ENDBRANCH  39  40
ENDBRANCH  26  39
ENDBRANCH  15  16
ENDBRANCH   6  15
ENDBRANCH   2   4
TORSDOF 13
ENDMDL
MODEL      254
REMARK 921   NORMALIZED FREE ENERGY PREDICTED BY IDOCK:   14.32 KCAL/MOL
REMARK 922        TOTAL FREE ENERGY PREDICTED BY IDOCK:   21.75 KCAL/MOL
REMARK 923 INTER-LIGAND FREE ENERGY PREDICTED BY IDOCK:    7.75 KCAL/MOL
REMARK 924 INTRA-LIGAND FREE ENERGY PREDICTED BY IDOCK:   14.00 KCAL/MOL
REMARK 927      BINDING AFFINITY PREDICTED BY RF-SCORE:    0.00 PKD
ROOT
HETATM    1  C   UNL     1      -6.873  10.850  65.940  1.00  0.00    -0.032 C  
HETATM    2  N   UNL     1      -7.826  10.081  66.733  1.00  0.00    -0.109 NA 
HETATM    3  H   UNL     1      -7.554  10.096  67.716  1.00  0.00     0.000 HD 
ENDROOT
BRANCH   2   4
HETATM    4  C   UNL     1      -9.257  10.488  66.593  1.00  0.00    -0.156 C  
HETATM    5  C   UNL     1     -10.084   9.473  65.764  1.00  0.00    -0.153 C  
HETATM    6  C   UNL     1     -11.578   9.863  65.805  1.00  0.00     3.234 C  
HETATM    7  O   UNL     1      -9.881   8.138  66.233  1.00  0.00    -0.393 OA 
HETATM    8  H   UNL     1     -10.388   7.516  65.724  1.00  0.00     0.000 HD 
HETATM    9  O   UNL     1      -8.990  12.169  64.809  1.00  0.00    -0.119 OA 
HETATM   10  O   UNL     1     -11.732  11.162  65.233  1.00  0.00     0.190 OA 
HETATM   11  H   UNL     1      -9.171  13.054  64.516  1.00  0.00     0.000 HD 
HETATM   12  C   UNL     1     -11.080  12.180  66.011  1.00  0.00    -0.313 C  
HETATM   13  C   UNL     1      -8.960  12.998  67.052  1.00  0.00    -0.225 C  
HETATM   14  C   UNL     1      -9.556  11.946  66.110  1.00  0.00    -0.234 C  
BRANCH   6  15
HETATM   15  O   UNL     1     -12.075   9.826  67.146  1.00  0.00     2.308 OA 
BRANCH  15  16
HETATM   16  C   UNL     1     -11.425   8.904  68.038  1.00  0.00     1.162 C  
HETATM   17  H1  UNL     1     -10.431   9.998  72.245  1.00  0.00     0.000 HD 
HETATM   18  C   UNL     1      -9.932   9.212  68.291  1.00  0.00    -0.175 C  
HETATM   19  C   UNL     1     -12.219   8.942  69.373  1.00  0.00     1.848 C  
HETATM   20  H2  UNL     1      -8.940  10.201  71.483  1.00  0.00     0.000 HD 
HETATM   21  C   UNL     1     -10.575  10.695  70.298  1.00  0.00     0.103 C  
HETATM   22  C   UNL     1      -9.796  10.585  68.973  1.00  0.00    -0.224 C  
HETATM   23  O   UNL     1     -11.808   7.849  70.223  1.00  0.00    -0.482 OA 
HETATM   24  H   UNL     1     -12.293   7.873  71.040  1.00  0.00     0.000 HD 
HETATM   25  N   UNL     1      -9.915   9.925  71.369  1.00  0.00     0.387 NA 
HETATM   26  C   UNL     1     -12.072  10.308  70.103  1.00  0.00    -0.202 C  
BRANCH  18  27
HETATM   27  N   UNL     1      -9.279   8.137  69.038  1.00  0.00    -0.148 N  
HETATM   28  H   UNL     1      -9.720   7.218  69.053  1.00  0.00     0.000 HD 
HETATM   29  C   UNL     1      -8.097   8.307  69.723  1.00  0.00    -0.118 C  
HETATM   30  O   UNL     1      -7.465   9.358  69.750  1.00  0.00    -0.069 OA 
BRANCH  29  31
HETATM   31  C   UNL     1      -7.597   7.044  70.442  1.00  0.00    -0.090 C  
HETATM   32  H   UNL     1      -7.081   6.525  72.275  1.00  0.00     0.000 HD 
HETATM   33  O   UNL     1      -7.390   7.306  71.830  1.00  0.00    -0.078 OA 
BRANCH  31  34
HETATM   34  C   UNL     1      -8.604   5.902  70.306  1.00  0.00    -0.134 C  
BRANCH  34  35
HETATM   35  C   UNL     1      -8.272   4.737  71.239  1.00  0.00    -0.102 C  
HETATM   36  H1  UNL     1      -8.318   4.327  73.247  1.00  0.00     0.000 HD 
HETATM   37  H2  UNL     1      -9.496   5.432  72.753  1.00  0.00     0.000 HD 
HETATM   38  N   UNL     1      -8.539   5.103  72.625  1.00  0.00    -0.117 NA 
ENDBRANCH  34  35
ENDBRANCH  31  34
ENDBRANCH  29  31
ENDBRANCH  18  27
BRANCH  26  39
HETATM   39  O   UNL     1     -12.653  11.411  69.409  1.00  0.00    -0.180 OA 
BRANCH  39  40
HETATM   40  C   UNL     1     -11.856  12.581  69.202  1.00  0.00    -0.296 C  
HETATM   41  H1  UNL     1     -11.780  13.018  72.651  1.00  0.00     0.000 HD 
HETATM   42  O   UNL     1     -12.612  13.631  68.590  1.00  0.00     0.096 OA 
HETATM   43  H2  UNL     1     -12.507  11.803  71.760  1.00  0.00     0.000 HD 
HETATM   44  N   UNL     1     -12.170  12.766  71.743  1.00  0.00     0.418 NA 
HETATM   45  C   UNL     1     -11.258  12.969  70.596  1.00  0.00     1.357 C  
HETATM   46  C   UNL     1     -11.930  14.834  68.505  1.00  0.00    -0.248 C  
HETATM   47  C   UNL     1     -10.628  14.369  70.584  1.00  0.00     0.818 C  
HETATM   48  C   UNL     1     -11.001  15.199  69.402  1.00  0.00    -0.268 C  
BRANCH  46  49
HETATM   49  C   UNL     1     -12.337  15.729  67.357  1.00  0.00     1.348 C  
BRANCH  49  50
HETATM   50  N   UNL     1     -12.732  14.989  66.155  1.00  0.00     0.276 NA 
HETATM   51  H   UNL     1     -13.572  15.384  65.733  1.00  0.00     0.000 HD 
BRANCH  50  52
HETATM   52  C   UNL     1     -11.627  14.908  65.184  1.00  0.00    -0.330 C  
BRANCH  52  53
HETATM   53  C   UNL     1     -12.072  14.183  63.911  1.00  0.00    -0.264 C  
HETATM   54  O   UNL     1     -11.083  13.244  63.496  1.00  0.00    -0.542 OA 
HETATM   55  H   UNL     1     -11.359  12.795  62.706  1.00  0.00     0.000 HD 
ENDBRANCH  52  53
ENDBRANCH  50  52
ENDBRANCH  49  50
ENDBRANCH  46  49
ENDBRANCH  39  40
ENDBRANCH  26  39
ENDBRANCH  15  16
ENDBRANCH   6  15
ENDBRANCH   2   4
TORSDOF 13
ENDMDL
MODEL      255
REMARK 921   NORMALIZED FREE ENERGY PREDICTED BY IDOCK:   14.65 KCAL/MOL
REMARK 922        TOTAL FREE ENERGY PREDICTED BY IDOCK:   22.32 KCAL/MOL
REMARK 923 INTER-LIGAND FREE ENERGY PREDICTED BY IDOCK:   -1.13 KCAL/MOL
REMARK 924 INTRA-LIGAND FREE ENERGY PREDICTED BY IDOCK:   23.44 KCAL/MOL
REMARK 927      BINDING AFFINITY PREDICTED BY RF-SCORE:    0.00 PKD
ROOT
HETATM    1  C   UNL     1      -8.723   7.052  72.585  1.00  0.00    -0.119 C  
HETATM    2  N   UNL     1      -9.043   7.469  71.223  1.00  0.00    -0.141 NA 
HETATM    3  H   UNL     1      -9.871   8.065  71.226  1.00  0.00     0.000 HD 
ENDROOT
BRANCH   2   4
HETATM    4  C   UNL     1      -7.936   8.137  70.476  1.00  0.00    -0.095 C  
HETATM    5  C   UNL     1      -6.542   7.821  71.074  1.00  0.00    -0.038 C  
HETATM    6  C   UNL     1      -5.440   8.398  70.156  1.00  0.00    -0.022 C  
HETATM    7  O   UNL     1      -6.371   6.416  71.272  1.00  0.00    -0.046 OA 
HETATM    8  H   UNL     1      -5.517   6.223  71.639  1.00  0.00     0.000 HD 
HETATM    9  O   UNL     1      -8.157  10.398  71.433  1.00  0.00     1.276 OA 
HETATM   10  O   UNL     1      -5.600   9.815  70.078  1.00  0.00    -0.038 OA 
HETATM   11  H   UNL     1      -8.236  11.330  71.265  1.00  0.00     0.000 HD 
HETATM   12  C   UNL     1      -6.829  10.188  69.432  1.00  0.00    -0.070 C  
HETATM   13  C   UNL     1      -9.320  10.004  69.382  1.00  0.00    -0.237 C  
HETATM   14  C   UNL     1      -8.066   9.672  70.198  1.00  0.00    -0.189 C  
BRANCH   6  15
HETATM   15  O   UNL     1      -5.495   7.798  68.860  1.00  0.00    -0.025 OA 
BRANCH  15  16
HETATM   16  C   UNL     1      -6.462   8.345  67.948  1.00  0.00    -0.057 C  
HETATM   17  H1  UNL     1      -9.809   5.895  66.309  1.00  0.00     0.000 HD 
HETATM   18  C   UNL     1      -6.277   7.893  66.481  1.00  0.00    -0.046 C  
HETATM   19  C   UNL     1      -7.860   7.918  68.472  1.00  0.00    -0.119 C  
HETATM   20  H2  UNL     1      -8.715   5.872  65.026  1.00  0.00     0.000 HD 
HETATM   21  C   UNL     1      -7.822   5.876  66.903  1.00  0.00    -0.101 C  
HETATM   22  C   UNL     1      -6.458   6.369  66.382  1.00  0.00    -0.047 C  
HETATM   23  O   UNL     1      -8.893   8.652  67.779  1.00  0.00    -0.135 OA 
HETATM   24  H   UNL     1      -9.749   8.390  68.100  1.00  0.00     0.000 HD 
HETATM   25  N   UNL     1      -8.906   6.221  65.965  1.00  0.00    -0.154 NA 
HETATM   26  C   UNL     1      -8.087   6.383  68.353  1.00  0.00    -0.113 C  
BRANCH  18  27
HETATM   27  N   UNL     1      -7.156   8.632  65.574  1.00  0.00    -0.082 N  
HETATM   28  H   UNL     1      -8.139   8.363  65.524  1.00  0.00     0.000 HD 
HETATM   29  C   UNL     1      -6.720   9.672  64.785  1.00  0.00    -0.103 C  
HETATM   30  O   UNL     1      -5.570  10.098  64.785  1.00  0.00    -0.090 OA 
BRANCH  29  31
HETATM   31  C   UNL     1      -7.815  10.298  63.906  1.00  0.00    -0.115 C  
HETATM   32  H   UNL     1      -8.903   9.768  62.346  1.00  0.00     0.000 HD 
HETATM   33  O   UNL     1      -8.226   9.382  62.890  1.00  0.00    -0.144 OA 
BRANCH  31  34
HETATM   34  C   UNL     1      -9.036  10.681  64.741  1.00  0.00    -0.236 C  
BRANCH  34  35
HETATM   35  C   UNL     1      -8.640  11.204  66.121  1.00  0.00    -0.172 C  
HETATM   36  H1  UNL     1      -9.522  12.170  67.700  1.00  0.00     0.000 HD 
HETATM   37  H2  UNL     1     -10.583  11.186  66.828  1.00  0.00     0.000 HD 
HETATM   38  N   UNL     1      -9.786  11.820  66.780  1.00  0.00    -0.194 NA 
ENDBRANCH  34  35
ENDBRANCH  31  34
ENDBRANCH  29  31
ENDBRANCH  18  27
BRANCH  26  39
HETATM   39  O   UNL     1      -7.233   5.597  69.182  1.00  0.00    -0.066 OA 
BRANCH  39  40
HETATM   40  C   UNL     1      -6.986   4.237  68.811  1.00  0.00    -0.051 C  
HETATM   41  H1  UNL     1      -4.552   5.386  66.608  1.00  0.00     0.000 HD 
HETATM   42  O   UNL     1      -8.085   3.682  68.082  1.00  0.00    -0.081 OA 
HETATM   43  H2  UNL     1      -5.523   6.260  67.654  1.00  0.00     0.000 HD 
HETATM   44  N   UNL     1      -5.431   5.392  67.126  1.00  0.00    -0.012 NA 
HETATM   45  C   UNL     1      -5.637   4.228  68.016  1.00  0.00    -0.017 C  
HETATM   46  C   UNL     1      -7.834   2.418  67.571  1.00  0.00    -0.064 C  
HETATM   47  C   UNL     1      -5.398   2.890  67.301  1.00  0.00    -0.016 C  
HETATM   48  C   UNL     1      -6.605   2.019  67.212  1.00  0.00    -0.035 C  
BRANCH  46  49
HETATM   49  C   UNL     1      -9.050   1.536  67.402  1.00  0.00    -0.117 C  
BRANCH  49  50
HETATM   50  N   UNL     1     -10.230   2.029  68.118  1.00  0.00     0.600 NA 
HETATM   51  H   UNL     1     -10.932   1.298  68.229  1.00  0.00     0.000 HD 
BRANCH  50  52
HETATM   52  C   UNL     1      -9.864   2.626  69.414  1.00  0.00     0.379 C  
BRANCH  52  53
HETATM   53  C   UNL     1      -9.821   1.561  70.513  1.00  0.00     0.053 C  
HETATM   54  O   UNL     1      -8.556   1.567  71.170  1.00  0.00    -0.049 OA 
HETATM   55  H   UNL     1      -8.529   0.905  71.851  1.00  0.00     0.000 HD 
ENDBRANCH  52  53
ENDBRANCH  50  52
ENDBRANCH  49  50
ENDBRANCH  46  49
ENDBRANCH  39  40
ENDBRANCH  26  39
ENDBRANCH  15  16
ENDBRANCH   6  15
ENDBRANCH   2   4
TORSDOF 13
ENDMDL
MODEL      256
REMARK 921   NORMALIZED FREE ENERGY PREDICTED BY IDOCK:   17.60 KCAL/MOL
REMARK 922        TOTAL FREE ENERGY PREDICTED BY IDOCK:   27.51 KCAL/MOL
REMARK 923 INTER-LIGAND FREE ENERGY PREDICTED BY IDOCK:   15.22 KCAL/MOL
REMARK 924 INTRA-LIGAND FREE ENERGY PREDICTED BY IDOCK:   12.29 KCAL/MOL
REMARK 927      BINDING AFFINITY PREDICTED BY RF-SCORE:    0.00 PKD
ROOT
HETATM    1  C   UNL     1      -6.612  17.910  72.580  1.00  0.00     5.314 C  
HETATM    2  N   UNL     1      -6.305  16.651  71.910  1.00  0.00     2.882 NA 
HETATM    3  H   UNL     1      -6.549  15.865  72.513  1.00  0.00     0.000 HD 
ENDROOT
BRANCH   2   4
HETATM    4  C   UNL     1      -6.922  16.470  70.562  1.00  0.00     1.619 C  
HETATM    5  C   UNL     1      -6.768  15.024  70.028  1.00  0.00    -0.147 C  
HETATM    6  C   UNL     1      -7.573  14.865  68.719  1.00  0.00    -0.135 C  
HETATM    7  O   UNL     1      -7.174  14.066  71.008  1.00  0.00     0.510 OA 
HETATM    8  H   UNL     1      -7.079  13.179  70.680  1.00  0.00     0.000 HD 
HETATM    9  O   UNL     1      -5.129  17.475  69.198  1.00  0.00    -0.165 OA 
HETATM   10  O   UNL     1      -7.057  15.774  67.746  1.00  0.00    -0.125 OA 
HETATM   11  H   UNL     1      -4.900  18.099  68.520  1.00  0.00     0.000 HD 
HETATM   12  C   UNL     1      -7.262  17.147  68.123  1.00  0.00    -0.193 C  
HETATM   13  C   UNL     1      -6.914  18.934  69.834  1.00  0.00     0.196 C  
HETATM   14  C   UNL     1      -6.544  17.498  69.444  1.00  0.00    -0.207 C  
BRANCH   6  15
HETATM   15  O   UNL     1      -8.966  15.089  68.950  1.00  0.00    -0.187 OA 
BRANCH  15  16
HETATM   16  C   UNL     1      -9.722  15.590  67.834  1.00  0.00    -0.211 C  
HETATM   17  H1  UNL     1     -13.691  13.888  66.721  1.00  0.00     0.000 HD 
HETATM   18  C   UNL     1      -9.707  14.668  66.593  1.00  0.00    -0.270 C  
HETATM   19  C   UNL     1     -11.178  15.794  68.338  1.00  0.00    -0.362 C  
HETATM   20  H2  UNL     1     -12.676  13.134  65.604  1.00  0.00     0.000 HD 
HETATM   21  C   UNL     1     -11.805  13.453  67.464  1.00  0.00    -0.366 C  
HETATM   22  C   UNL     1     -10.362  13.320  66.942  1.00  0.00    -0.255 C  
HETATM   23  O   UNL     1     -11.934  16.551  67.368  1.00  0.00     0.721 OA 
HETATM   24  H   UNL     1     -12.825  16.675  67.676  1.00  0.00     0.000 HD 
HETATM   25  N   UNL     1     -12.736  13.800  66.375  1.00  0.00    -0.252 NA 
HETATM   26  C   UNL     1     -11.878  14.443  68.666  1.00  0.00    -0.331 C  
BRANCH  18  27
HETATM   27  N   UNL     1     -10.319  15.316  65.433  1.00  0.00    -0.371 N  
HETATM   28  H   UNL     1     -10.339  14.809  64.547  1.00  0.00     0.000 HD 
HETATM   29  C   UNL     1     -10.868  16.577  65.478  1.00  0.00    -0.188 C  
HETATM   30  O   UNL     1     -10.925  17.265  66.491  1.00  0.00    -0.020 OA 
BRANCH  29  31
HETATM   31  C   UNL     1     -11.449  17.060  64.139  1.00  0.00     1.547 C  
HETATM   32  H   UNL     1     -13.007  16.649  62.999  1.00  0.00     0.000 HD 
HETATM   33  O   UNL     1     -12.648  16.350  63.827  1.00  0.00    -0.275 OA 
BRANCH  31  34
HETATM   34  C   UNL     1     -11.766  18.555  64.186  1.00  0.00     7.258 C  
BRANCH  34  35
HETATM   35  C   UNL     1     -10.870  19.295  65.180  1.00  0.00     0.705 C  
HETATM   36  H1  UNL     1     -10.451  19.250  67.186  1.00  0.00     0.000 HD 
HETATM   37  H2  UNL     1     -10.896  17.749  66.552  1.00  0.00     0.000 HD 
HETATM   38  N   UNL     1     -11.048  18.757  66.523  1.00  0.00     0.127 NA 
ENDBRANCH  34  35
ENDBRANCH  31  34
ENDBRANCH  29  31
ENDBRANCH  18  27
BRANCH  26  39
HETATM   39  O   UNL     1     -11.306  13.736  69.764  1.00  0.00    -0.223 OA 
BRANCH  39  40
HETATM   40  C   UNL     1     -11.823  12.441  70.085  1.00  0.00    -0.262 C  
HETATM   41  H1  UNL     1     -12.598  13.645  73.254  1.00  0.00     0.000 HD 
HETATM   42  O   UNL     1     -10.780  11.465  70.172  1.00  0.00     0.226 OA 
HETATM   43  H2  UNL     1     -11.907  14.452  71.961  1.00  0.00     0.000 HD 
HETATM   44  N   UNL     1     -12.062  13.541  72.392  1.00  0.00     0.750 NA 
HETATM   45  C   UNL     1     -12.644  12.601  71.408  1.00  0.00    -0.202 C  
HETATM   46  C   UNL     1     -11.210  10.228  70.626  1.00  0.00    -0.325 C  
HETATM   47  C   UNL     1     -13.006  11.245  72.030  1.00  0.00    -0.379 C  
HETATM   48  C   UNL     1     -12.240  10.092  71.475  1.00  0.00    -0.473 C  
BRANCH  46  49
HETATM   49  C   UNL     1     -10.408   9.044  70.135  1.00  0.00    -0.210 C  
BRANCH  49  50
HETATM   50  N   UNL     1     -10.108   8.070  71.189  1.00  0.00    -0.187 NA 
HETATM   51  H   UNL     1     -10.833   7.356  71.253  1.00  0.00     0.000 HD 
BRANCH  50  52
HETATM   52  C   UNL     1      -8.775   7.471  71.006  1.00  0.00    -0.134 C  
BRANCH  52  53
HETATM   53  C   UNL     1      -7.783   8.023  72.032  1.00  0.00    -0.103 C  
HETATM   54  O   UNL     1      -7.358   6.996  72.924  1.00  0.00    -0.074 OA 
HETATM   55  H   UNL     1      -6.742   7.339  73.561  1.00  0.00     0.000 HD 
ENDBRANCH  52  53
ENDBRANCH  50  52
ENDBRANCH  49  50
ENDBRANCH  46  49
ENDBRANCH  39  40
ENDBRANCH  26  39
ENDBRANCH  15  16
ENDBRANCH   6  15
ENDBRANCH   2   4
TORSDOF 13
ENDMDL
MODEL      257
REMARK 921   NORMALIZED FREE ENERGY PREDICTED BY IDOCK:   17.76 KCAL/MOL
REMARK 922        TOTAL FREE ENERGY PREDICTED BY IDOCK:   27.79 KCAL/MOL
REMARK 923 INTER-LIGAND FREE ENERGY PREDICTED BY IDOCK:    1.42 KCAL/MOL
REMARK 924 INTRA-LIGAND FREE ENERGY PREDICTED BY IDOCK:   26.37 KCAL/MOL
REMARK 927      BINDING AFFINITY PREDICTED BY RF-SCORE:    0.00 PKD
ROOT
HETATM    1  C   UNL     1     -11.461  10.826  70.467  1.00  0.00    -0.275 C  
HETATM    2  N   UNL     1     -10.446  11.847  70.232  1.00  0.00     1.014 NA 
HETATM    3  H   UNL     1      -9.893  11.992  71.077  1.00  0.00     0.000 HD 
ENDROOT
BRANCH   2   4
HETATM    4  C   UNL     1      -9.543  11.602  69.067  1.00  0.00     0.115 C  
HETATM    5  C   UNL     1      -8.046  11.778  69.429  1.00  0.00     0.579 C  
HETATM    6  C   UNL     1      -7.168  11.343  68.235  1.00  0.00    -0.082 C  
HETATM    7  O   UNL     1      -7.713  11.048  70.613  1.00  0.00     0.429 OA 
HETATM    8  H   UNL     1      -6.796  11.156  70.835  1.00  0.00     0.000 HD 
HETATM    9  O   UNL     1      -9.820  13.769  67.923  1.00  0.00    -0.220 OA 
HETATM   10  O   UNL     1      -7.472  12.173  67.112  1.00  0.00    -0.149 OA 
HETATM   11  H   UNL     1     -10.014  14.221  67.111  1.00  0.00     0.000 HD 
HETATM   12  C   UNL     1      -8.820  11.984  66.647  1.00  0.00    -0.191 C  
HETATM   13  C   UNL     1     -11.258  12.002  67.197  1.00  0.00    -0.374 C  
HETATM   14  C   UNL     1      -9.862  12.347  67.728  1.00  0.00    -0.203 C  
BRANCH   6  15
HETATM   15  O   UNL     1      -7.375   9.962  67.929  1.00  0.00    -0.087 OA 
BRANCH  15  16
HETATM   16  C   UNL     1      -6.884   9.018  68.896  1.00  0.00    -0.057 C  
HETATM   17  H1  UNL     1      -6.886   4.627  68.115  1.00  0.00     0.000 HD 
HETATM   18  C   UNL     1      -7.992   8.230  69.631  1.00  0.00    -0.111 C  
HETATM   19  C   UNL     1      -5.945   8.044  68.131  1.00  0.00    -0.041 C  
HETATM   20  H2  UNL     1      -8.257   4.798  69.083  1.00  0.00     0.000 HD 
HETATM   21  C   UNL     1      -7.907   6.406  67.814  1.00  0.00    -0.104 C  
HETATM   22  C   UNL     1      -8.784   7.384  68.619  1.00  0.00    -0.128 C  
HETATM   23  O   UNL     1      -5.196   7.241  69.069  1.00  0.00    -0.014 OA 
HETATM   24  H   UNL     1      -4.622   6.645  68.601  1.00  0.00     0.000 HD 
HETATM   25  N   UNL     1      -7.466   5.274  68.649  1.00  0.00    -0.070 NA 
HETATM   26  C   UNL     1      -6.724   7.150  67.123  1.00  0.00    -0.067 C  
BRANCH  18  27
HETATM   27  N   UNL     1      -7.448   7.437  70.735  1.00  0.00    -0.077 N  
HETATM   28  H   UNL     1      -8.089   7.101  71.453  1.00  0.00     0.000 HD 
HETATM   29  C   UNL     1      -6.113   7.124  70.849  1.00  0.00    -0.036 C  
HETATM   30  O   UNL     1      -5.259   7.450  70.032  1.00  0.00    -0.022 OA 
BRANCH  29  31
HETATM   31  C   UNL     1      -5.766   6.287  72.092  1.00  0.00    -0.036 C  
HETATM   32  H   UNL     1      -6.691   5.642  73.712  1.00  0.00     0.000 HD 
HETATM   33  O   UNL     1      -6.905   6.159  72.943  1.00  0.00    -0.072 OA 
BRANCH  31  34
HETATM   34  C   UNL     1      -5.293   4.889  71.696  1.00  0.00    -0.004 C  
BRANCH  34  35
HETATM   35  C   UNL     1      -6.135   3.796  72.355  1.00  0.00    -0.009 C  
HETATM   36  H1  UNL     1      -6.112   2.677  74.073  1.00  0.00     0.000 HD 
HETATM   37  H2  UNL     1      -5.417   4.207  74.250  1.00  0.00     0.000 HD 
HETATM   38  N   UNL     1      -5.551   3.406  73.633  1.00  0.00     0.000 NA 
ENDBRANCH  34  35
ENDBRANCH  31  34
ENDBRANCH  29  31
ENDBRANCH  18  27
BRANCH  26  39
HETATM   39  O   UNL     1      -7.317   7.864  66.040  1.00  0.00    -0.071 OA 
BRANCH  39  40
HETATM   40  C   UNL     1      -8.473   8.665  66.304  1.00  0.00    -0.125 C  
HETATM   41  H1  UNL     1     -10.413   5.801  65.946  1.00  0.00     0.000 HD 
HETATM   42  O   UNL     1      -8.739   9.575  65.232  1.00  0.00    -0.145 OA 
HETATM   43  H2  UNL     1      -8.751   5.966  65.843  1.00  0.00     0.000 HD 
HETATM   44  N   UNL     1      -9.647   6.447  65.760  1.00  0.00     0.180 NA 
HETATM   45  C   UNL     1      -9.650   7.672  66.590  1.00  0.00    -0.206 C  
HETATM   46  C   UNL     1      -9.932  10.266  65.370  1.00  0.00    -0.302 C  
HETATM   47  C   UNL     1     -11.013   8.378  66.594  1.00  0.00     0.632 C  
HETATM   48  C   UNL     1     -10.996   9.747  66.001  1.00  0.00     0.667 C  
BRANCH  46  49
HETATM   49  C   UNL     1      -9.969  11.630  64.717  1.00  0.00    -0.254 C  
BRANCH  49  50
HETATM   50  N   UNL     1     -11.259  11.940  64.093  1.00  0.00    -0.353 NA 
HETATM   51  H   UNL     1     -12.008  11.368  64.482  1.00  0.00     0.000 HD 
BRANCH  50  52
HETATM   52  C   UNL     1     -11.572  13.376  64.189  1.00  0.00    -0.398 C  
BRANCH  52  53
HETATM   53  C   UNL     1     -10.366  14.165  64.705  1.00  0.00    -0.359 C  
HETATM   54  O   UNL     1      -9.255  14.017  63.825  1.00  0.00     2.445 OA 
HETATM   55  H   UNL     1      -8.506  14.506  64.146  1.00  0.00     0.000 HD 
ENDBRANCH  52  53
ENDBRANCH  50  52
ENDBRANCH  49  50
ENDBRANCH  46  49
ENDBRANCH  39  40
ENDBRANCH  26  39
ENDBRANCH  15  16
ENDBRANCH   6  15
ENDBRANCH   2   4
TORSDOF 13
ENDMDL
MODEL      258
REMARK 921   NORMALIZED FREE ENERGY PREDICTED BY IDOCK:   18.59 KCAL/MOL
REMARK 922        TOTAL FREE ENERGY PREDICTED BY IDOCK:   29.25 KCAL/MOL
REMARK 923 INTER-LIGAND FREE ENERGY PREDICTED BY IDOCK:   13.50 KCAL/MOL
REMARK 924 INTRA-LIGAND FREE ENERGY PREDICTED BY IDOCK:   15.76 KCAL/MOL
REMARK 927      BINDING AFFINITY PREDICTED BY RF-SCORE:    0.00 PKD
ROOT
HETATM    1  C   UNL     1     -12.553  12.840  66.423  1.00  0.00     0.525 C  
HETATM    2  N   UNL     1     -11.488  13.218  67.347  1.00  0.00    -0.313 NA 
HETATM    3  H   UNL     1     -11.621  14.180  67.659  1.00  0.00     0.000 HD 
ENDROOT
BRANCH   2   4
HETATM    4  C   UNL     1     -11.308  12.319  68.526  1.00  0.00    -0.286 C  
HETATM    5  C   UNL     1     -12.552  11.435  68.793  1.00  0.00     0.815 C  
HETATM    6  C   UNL     1     -12.235  10.416  69.910  1.00  0.00    -0.146 C  
HETATM    7  O   UNL     1     -12.984  10.780  67.598  1.00  0.00     3.069 OA 
HETATM    8  H   UNL     1     -13.747  10.237  67.762  1.00  0.00     0.000 HD 
HETATM    9  O   UNL     1     -11.736  13.966  70.312  1.00  0.00    -0.392 OA 
HETATM   10  O   UNL     1     -11.910  11.127  71.105  1.00  0.00    -0.184 OA 
HETATM   11  H   UNL     1     -11.434  14.356  71.123  1.00  0.00     0.000 HD 
HETATM   12  C   UNL     1     -10.699  11.891  70.969  1.00  0.00     4.073 C  
HETATM   13  C   UNL     1      -9.446  13.643  69.702  1.00  0.00     1.296 C  
HETATM   14  C   UNL     1     -10.811  12.963  69.864  1.00  0.00     0.669 C  
BRANCH   6  15
HETATM   15  O   UNL     1     -11.170   9.548  69.517  1.00  0.00    -0.189 OA 
BRANCH  15  16
HETATM   16  C   UNL     1     -10.544   8.794  70.570  1.00  0.00    -0.215 C  
HETATM   17  H1  UNL     1      -6.161   9.031  71.357  1.00  0.00     0.000 HD 
HETATM   18  C   UNL     1      -9.731   7.574  70.079  1.00  0.00    -0.172 C  
HETATM   19  C   UNL     1      -9.625   9.782  71.340  1.00  0.00     0.893 C  
HETATM   20  H2  UNL     1      -6.269   7.592  70.486  1.00  0.00     0.000 HD 
HETATM   21  C   UNL     1      -7.626   9.049  69.891  1.00  0.00    -0.067 C  
HETATM   22  C   UNL     1      -8.569   8.051  69.190  1.00  0.00    -0.137 C  
HETATM   23  O   UNL     1      -9.177   9.179  72.574  1.00  0.00    -0.113 OA 
HETATM   24  H   UNL     1      -8.615   9.784  73.045  1.00  0.00     0.000 HD 
HETATM   25  N   UNL     1      -6.784   8.371  70.894  1.00  0.00    -0.039 NA 
HETATM   26  C   UNL     1      -8.420  10.255  70.477  1.00  0.00     0.937 C  
BRANCH  18  27
HETATM   27  N   UNL     1      -9.288   6.737  71.194  1.00  0.00    -0.159 N  
HETATM   28  H   UNL     1      -9.729   6.868  72.105  1.00  0.00     0.000 HD 
HETATM   29  C   UNL     1      -8.306   5.781  71.074  1.00  0.00    -0.123 C  
HETATM   30  O   UNL     1      -7.729   5.519  70.024  1.00  0.00    -0.075 OA 
BRANCH  29  31
HETATM   31  C   UNL     1      -7.998   5.025  72.377  1.00  0.00    -0.101 C  
HETATM   32  H   UNL     1      -7.672   3.159  72.930  1.00  0.00     0.000 HD 
HETATM   33  O   UNL     1      -7.862   3.626  72.124  1.00  0.00    -0.061 OA 
BRANCH  31  34
HETATM   34  C   UNL     1      -6.705   5.534  73.013  1.00  0.00    -0.073 C  
BRANCH  34  35
HETATM   35  C   UNL     1      -6.394   6.972  72.597  1.00  0.00    -0.053 C  
HETATM   36  H1  UNL     1      -6.510   8.854  73.401  1.00  0.00     0.000 HD 
HETATM   37  H2  UNL     1      -6.249   7.641  74.547  1.00  0.00     0.000 HD 
HETATM   38  N   UNL     1      -6.718   7.895  73.678  1.00  0.00    -0.091 NA 
ENDBRANCH  34  35
ENDBRANCH  31  34
ENDBRANCH  29  31
ENDBRANCH  18  27
BRANCH  26  39
HETATM   39  O   UNL     1      -8.782  11.045  69.346  1.00  0.00     0.016 OA 
BRANCH  39  40
HETATM   40  C   UNL     1      -7.770  11.832  68.711  1.00  0.00    -0.091 C  
HETATM   41  H1  UNL     1      -5.892  11.586  71.628  1.00  0.00     0.000 HD 
HETATM   42  O   UNL     1      -8.198  13.183  68.516  1.00  0.00    -0.145 OA 
HETATM   43  H2  UNL     1      -7.391  10.926  71.282  1.00  0.00     0.000 HD 
HETATM   44  N   UNL     1      -6.730  11.669  71.053  1.00  0.00     1.197 NA 
HETATM   45  C   UNL     1      -6.484  11.703  69.594  1.00  0.00    -0.124 C  
HETATM   46  C   UNL     1      -7.202  14.022  68.042  1.00  0.00    -0.144 C  
HETATM   47  C   UNL     1      -5.410  12.728  69.202  1.00  0.00    -0.069 C  
HETATM   48  C   UNL     1      -5.906  13.833  68.332  1.00  0.00    -0.100 C  
BRANCH  46  49
HETATM   49  C   UNL     1      -7.681  15.193  67.215  1.00  0.00    -0.210 C  
BRANCH  49  50
HETATM   50  N   UNL     1      -9.093  15.519  67.434  1.00  0.00    -0.195 NA 
HETATM   51  H   UNL     1      -9.210  16.163  68.216  1.00  0.00     0.000 HD 
BRANCH  50  52
HETATM   52  C   UNL     1      -9.722  16.041  66.207  1.00  0.00    -0.306 C  
BRANCH  52  53
HETATM   53  C   UNL     1      -8.818  15.814  64.992  1.00  0.00     2.773 C  
HETATM   54  O   UNL     1      -9.506  15.077  63.985  1.00  0.00     1.610 OA 
HETATM   55  H   UNL     1      -8.945  14.936  63.231  1.00  0.00     0.000 HD 
ENDBRANCH  52  53
ENDBRANCH  50  52
ENDBRANCH  49  50
ENDBRANCH  46  49
ENDBRANCH  39  40
ENDBRANCH  26  39
ENDBRANCH  15  16
ENDBRANCH   6  15
ENDBRANCH   2   4
TORSDOF 13
ENDMDL
MODEL      259
REMARK 921   NORMALIZED FREE ENERGY PREDICTED BY IDOCK:   18.60 KCAL/MOL
REMARK 922        TOTAL FREE ENERGY PREDICTED BY IDOCK:   29.28 KCAL/MOL
REMARK 923 INTER-LIGAND FREE ENERGY PREDICTED BY IDOCK:   -4.51 KCAL/MOL
REMARK 924 INTRA-LIGAND FREE ENERGY PREDICTED BY IDOCK:   33.79 KCAL/MOL
REMARK 927      BINDING AFFINITY PREDICTED BY RF-SCORE:    0.00 PKD
ROOT
HETATM    1  C   UNL     1      -7.385   5.058  65.128  1.00  0.00    -0.071 C  
HETATM    2  N   UNL     1      -7.486   6.444  64.682  1.00  0.00    -0.084 NA 
HETATM    3  H   UNL     1      -8.335   6.572  64.131  1.00  0.00     0.000 HD 
ENDROOT
BRANCH   2   4
HETATM    4  C   UNL     1      -7.417   7.475  65.760  1.00  0.00    -0.079 C  
HETATM    5  C   UNL     1      -6.479   8.653  65.394  1.00  0.00    -0.063 C  
HETATM    6  C   UNL     1      -6.589   9.758  66.470  1.00  0.00    -0.072 C  
HETATM    7  O   UNL     1      -6.776   9.163  64.092  1.00  0.00    -0.086 OA 
HETATM    8  H   UNL     1      -6.200   9.886  63.868  1.00  0.00     0.000 HD 
HETATM    9  O   UNL     1      -5.853   6.319  67.276  1.00  0.00    -0.015 OA 
HETATM   10  O   UNL     1      -6.184   9.218  67.729  1.00  0.00    -0.053 OA 
HETATM   11  H   UNL     1      -5.674   6.023  68.160  1.00  0.00     0.000 HD 
HETATM   12  C   UNL     1      -7.074   8.187  68.189  1.00  0.00    -0.082 C  
HETATM   13  C   UNL     1      -8.181   5.996  67.717  1.00  0.00    -0.112 C  
HETATM   14  C   UNL     1      -7.123   6.987  67.218  1.00  0.00    -0.084 C  
BRANCH   6  15
HETATM   15  O   UNL     1      -7.921  10.274  66.531  1.00  0.00    -0.113 OA 
BRANCH  15  16
HETATM   16  C   UNL     1      -8.663   9.974  67.726  1.00  0.00    -0.125 C  
HETATM   17  H1  UNL     1     -11.538  12.881  69.508  1.00  0.00     0.000 HD 
HETATM   18  C   UNL     1      -8.150  10.700  68.990  1.00  0.00    -0.148 C  
HETATM   19  C   UNL     1     -10.140  10.363  67.441  1.00  0.00    -0.196 C  
HETATM   20  H2  UNL     1     -10.185  13.101  70.489  1.00  0.00     0.000 HD 
HETATM   21  C   UNL     1      -9.735  12.673  68.505  1.00  0.00    -0.128 C  
HETATM   22  C   UNL     1      -8.293  12.221  68.807  1.00  0.00     0.097 C  
HETATM   23  O   UNL     1     -10.997   9.839  68.479  1.00  0.00    -0.358 OA 
HETATM   24  H   UNL     1     -11.901  10.077  68.306  1.00  0.00     0.000 HD 
HETATM   25  N   UNL     1     -10.584  12.582  69.707  1.00  0.00     0.605 NA 
HETATM   26  C   UNL     1     -10.322  11.900  67.285  1.00  0.00    -0.205 C  
BRANCH  18  27
HETATM   27  N   UNL     1      -8.809  10.207  70.200  1.00  0.00    -0.341 N  
HETATM   28  H   UNL     1      -8.377  10.404  71.103  1.00  0.00     0.000 HD 
HETATM   29  C   UNL     1      -9.984   9.491  70.178  1.00  0.00    -0.241 C  
HETATM   30  O   UNL     1     -10.604   9.222  69.155  1.00  0.00    -0.218 OA 
BRANCH  29  31
HETATM   31  C   UNL     1     -10.492   9.069  71.566  1.00  0.00    -0.339 C  
HETATM   32  H   UNL     1     -12.229   8.900  72.487  1.00  0.00     0.000 HD 
HETATM   33  O   UNL     1     -11.916   9.161  71.629  1.00  0.00    -0.319 OA 
BRANCH  31  34
HETATM   34  C   UNL     1     -10.081   7.632  71.886  1.00  0.00    -0.218 C  
BRANCH  34  35
HETATM   35  C   UNL     1     -10.420   6.676  70.742  1.00  0.00    -0.216 C  
HETATM   36  H1  UNL     1     -10.696   4.664  70.464  1.00  0.00     0.000 HD 
HETATM   37  H2  UNL     1     -11.114   5.199  72.011  1.00  0.00     0.000 HD 
HETATM   38  N   UNL     1     -10.470   5.302  71.227  1.00  0.00    -0.223 NA 
ENDBRANCH  34  35
ENDBRANCH  31  34
ENDBRANCH  29  31
ENDBRANCH  18  27
BRANCH  26  39
HETATM   39  O   UNL     1      -9.670  12.457  66.146  1.00  0.00    -0.242 OA 
BRANCH  39  40
HETATM   40  C   UNL     1      -9.091  13.760  66.260  1.00  0.00     0.015 C  
HETATM   41  H1  UNL     1      -7.115  12.547  68.852  1.00  0.00     0.000 HD 
HETATM   42  O   UNL     1     -10.033  14.712  66.765  1.00  0.00    -0.250 OA 
HETATM   43  H2  UNL     1      -8.243  11.735  67.919  1.00  0.00     0.000 HD 
HETATM   44  N   UNL     1      -7.947  12.646  68.270  1.00  0.00    -0.148 NA 
HETATM   45  C   UNL     1      -7.814  13.607  67.153  1.00  0.00    -0.008 C  
HETATM   46  C   UNL     1      -9.481  15.954  67.035  1.00  0.00    -0.222 C  
HETATM   47  C   UNL     1      -7.261  14.966  67.607  1.00  0.00    -0.207 C  
HETATM   48  C   UNL     1      -8.203  16.106  67.415  1.00  0.00    -0.185 C  
BRANCH  46  49
HETATM   49  C   UNL     1     -10.432  17.124  66.918  1.00  0.00    -0.274 C  
BRANCH  49  50
HETATM   50  N   UNL     1      -9.857  18.388  67.389  1.00  0.00    -0.303 NA 
HETATM   51  H   UNL     1     -10.524  19.155  67.305  1.00  0.00     0.000 HD 
BRANCH  50  52
HETATM   52  C   UNL     1      -9.344  18.267  68.765  1.00  0.00    -0.255 C  
BRANCH  52  53
HETATM   53  C   UNL     1     -10.203  17.302  69.585  1.00  0.00     0.070 C  
HETATM   54  O   UNL     1     -11.586  17.610  69.436  1.00  0.00     0.986 OA 
HETATM   55  H   UNL     1     -12.120  17.011  69.946  1.00  0.00     0.000 HD 
ENDBRANCH  52  53
ENDBRANCH  50  52
ENDBRANCH  49  50
ENDBRANCH  46  49
ENDBRANCH  39  40
ENDBRANCH  26  39
ENDBRANCH  15  16
ENDBRANCH   6  15
ENDBRANCH   2   4
TORSDOF 13
ENDMDL
MODEL      260
REMARK 921   NORMALIZED FREE ENERGY PREDICTED BY IDOCK:   18.84 KCAL/MOL
REMARK 922        TOTAL FREE ENERGY PREDICTED BY IDOCK:   29.69 KCAL/MOL
REMARK 923 INTER-LIGAND FREE ENERGY PREDICTED BY IDOCK:   13.87 KCAL/MOL
REMARK 924 INTRA-LIGAND FREE ENERGY PREDICTED BY IDOCK:   15.82 KCAL/MOL
REMARK 927      BINDING AFFINITY PREDICTED BY RF-SCORE:    0.00 PKD
ROOT
HETATM    1  C   UNL     1      -7.161  13.472  72.250  1.00  0.00     6.258 C  
HETATM    2  N   UNL     1      -8.223  13.261  71.271  1.00  0.00     7.206 NA 
HETATM    3  H   UNL     1      -8.458  14.143  70.814  1.00  0.00     0.000 HD 
ENDROOT
BRANCH   2   4
HETATM    4  C   UNL     1      -7.954  12.211  70.244  1.00  0.00     3.557 C  
HETATM    5  C   UNL     1      -6.480  11.735  70.254  1.00  0.00     0.193 C  
HETATM    6  C   UNL     1      -6.314  10.536  69.294  1.00  0.00    -0.051 C  
HETATM    7  O   UNL     1      -6.054  11.404  71.578  1.00  0.00    -0.072 OA 
HETATM    8  H   UNL     1      -5.150  11.112  71.584  1.00  0.00     0.000 HD 
HETATM    9  O   UNL     1      -7.773  13.670  68.263  1.00  0.00    -0.120 OA 
HETATM   10  O   UNL     1      -6.656  10.953  67.971  1.00  0.00    -0.061 OA 
HETATM   11  H   UNL     1      -8.054  13.841  67.372  1.00  0.00     0.000 HD 
HETATM   12  C   UNL     1      -8.044  11.309  67.856  1.00  0.00    -0.121 C  
HETATM   13  C   UNL     1      -9.929  12.725  68.683  1.00  0.00    -0.099 C  
HETATM   14  C   UNL     1      -8.417  12.492  68.775  1.00  0.00     0.155 C  
BRANCH   6  15
HETATM   15  O   UNL     1      -7.122   9.434  69.715  1.00  0.00    -0.057 OA 
BRANCH  15  16
HETATM   16  C   UNL     1      -6.656   8.126  69.343  1.00  0.00    -0.035 C  
HETATM   17  H1  UNL     1      -7.320   6.456  65.261  1.00  0.00     0.000 HD 
HETATM   18  C   UNL     1      -7.769   7.057  69.254  1.00  0.00    -0.109 C  
HETATM   19  C   UNL     1      -5.944   8.280  67.971  1.00  0.00    -0.043 C  
HETATM   20  H2  UNL     1      -8.541   5.693  66.140  1.00  0.00     0.000 HD 
HETATM   21  C   UNL     1      -8.126   7.631  66.768  1.00  0.00    -0.115 C  
HETATM   22  C   UNL     1      -8.772   7.446  68.154  1.00  0.00    -0.122 C  
HETATM   23  O   UNL     1      -5.207   7.077  67.659  1.00  0.00    -0.011 OA 
HETATM   24  H   UNL     1      -4.772   7.172  66.819  1.00  0.00     0.000 HD 
HETATM   25  N   UNL     1      -7.748   6.333  66.179  1.00  0.00    -0.093 NA 
HETATM   26  C   UNL     1      -6.940   8.640  66.831  1.00  0.00    -0.077 C  
BRANCH  18  27
HETATM   27  N   UNL     1      -7.215   5.715  69.071  1.00  0.00    -0.071 N  
HETATM   28  H   UNL     1      -6.559   5.560  68.305  1.00  0.00     0.000 HD 
HETATM   29  C   UNL     1      -7.536   4.651  69.883  1.00  0.00    -0.054 C  
HETATM   30  O   UNL     1      -8.289   4.728  70.848  1.00  0.00    -0.094 OA 
BRANCH  29  31
HETATM   31  C   UNL     1      -6.841   3.334  69.502  1.00  0.00    -0.037 C  
HETATM   32  H   UNL     1      -6.724   1.496  70.211  1.00  0.00     0.000 HD 
HETATM   33  O   UNL     1      -7.154   2.310  70.447  1.00  0.00    -0.033 OA 
BRANCH  31  34
HETATM   34  C   UNL     1      -7.277   2.866  68.113  1.00  0.00    -0.049 C  
BRANCH  34  35
HETATM   35  C   UNL     1      -8.043   1.545  68.174  1.00  0.00    -0.057 C  
HETATM   36  H1  UNL     1      -9.984   0.910  68.353  1.00  0.00     0.000 HD 
HETATM   37  H2  UNL     1      -9.827   2.402  67.576  1.00  0.00     0.000 HD 
HETATM   38  N   UNL     1      -9.473   1.792  68.313  1.00  0.00    -0.196 NA 
ENDBRANCH  34  35
ENDBRANCH  31  34
ENDBRANCH  29  31
ENDBRANCH  18  27
BRANCH  26  39
HETATM   39  O   UNL     1      -7.550   9.922  66.967  1.00  0.00    -0.092 OA 
BRANCH  39  40
HETATM   40  C   UNL     1      -8.022  10.581  65.788  1.00  0.00    -0.158 C  
HETATM   41  H1  UNL     1     -10.930   8.688  66.014  1.00  0.00     0.000 HD 
HETATM   42  O   UNL     1      -7.272  10.193  64.632  1.00  0.00    -0.138 OA 
HETATM   43  H2  UNL     1      -9.600   8.700  67.029  1.00  0.00     0.000 HD 
HETATM   44  N   UNL     1      -9.934   8.894  66.085  1.00  0.00    -0.278 NA 
HETATM   45  C   UNL     1      -9.551  10.265  65.679  1.00  0.00    -0.232 C  
HETATM   46  C   UNL     1      -7.784  10.688  63.444  1.00  0.00     0.091 C  
HETATM   47  C   UNL     1     -10.125  10.655  64.309  1.00  0.00    -0.411 C  
HETATM   48  C   UNL     1      -9.093  10.922  63.266  1.00  0.00    -0.252 C  
BRANCH  46  49
HETATM   49  C   UNL     1      -6.771  10.901  62.342  1.00  0.00    -0.002 C  
BRANCH  49  50
HETATM   50  N   UNL     1      -5.649   9.959  62.394  1.00  0.00    -0.089 NA 
HETATM   51  H   UNL     1      -4.897  10.239  61.765  1.00  0.00     0.000 HD 
BRANCH  50  52
HETATM   52  C   UNL     1      -5.160   9.779  63.772  1.00  0.00    -0.069 C  
BRANCH  52  53
HETATM   53  C   UNL     1      -5.362   8.334  64.238  1.00  0.00    -0.040 C  
HETATM   54  O   UNL     1      -5.964   7.554  63.208  1.00  0.00    -0.052 OA 
HETATM   55  H   UNL     1      -6.090   6.658  63.497  1.00  0.00     0.000 HD 
ENDBRANCH  52  53
ENDBRANCH  50  52
ENDBRANCH  49  50
ENDBRANCH  46  49
ENDBRANCH  39  40
ENDBRANCH  26  39
ENDBRANCH  15  16
ENDBRANCH   6  15
ENDBRANCH   2   4
TORSDOF 13
ENDMDL
MODEL      261
REMARK 921   NORMALIZED FREE ENERGY PREDICTED BY IDOCK:   19.76 KCAL/MOL
REMARK 922        TOTAL FREE ENERGY PREDICTED BY IDOCK:   31.31 KCAL/MOL
REMARK 923 INTER-LIGAND FREE ENERGY PREDICTED BY IDOCK:    6.98 KCAL/MOL
REMARK 924 INTRA-LIGAND FREE ENERGY PREDICTED BY IDOCK:   24.33 KCAL/MOL
REMARK 927      BINDING AFFINITY PREDICTED BY RF-SCORE:    0.00 PKD
ROOT
HETATM    1  C   UNL     1      -6.945  10.880  65.950  1.00  0.00    -0.029 C  
HETATM    2  N   UNL     1      -7.927  10.278  66.847  1.00  0.00    -0.111 NA 
HETATM    3  H   UNL     1      -7.626  10.386  67.816  1.00  0.00     0.000 HD 
ENDROOT
BRANCH   2   4
HETATM    4  C   UNL     1      -9.329  10.768  66.690  1.00  0.00    -0.166 C  
HETATM    5  C   UNL     1     -10.333   9.618  66.425  1.00  0.00    -0.176 C  
HETATM    6  C   UNL     1     -11.776  10.173  66.446  1.00  0.00     2.401 C  
HETATM    7  O   UNL     1     -10.168   8.561  67.373  1.00  0.00    -0.218 OA 
HETATM    8  H   UNL     1     -10.784   7.856  67.210  1.00  0.00     0.000 HD 
HETATM    9  O   UNL     1      -9.182  11.567  64.362  1.00  0.00    -0.405 OA 
HETATM   10  O   UNL     1     -11.909  11.150  65.413  1.00  0.00     0.234 OA 
HETATM   11  H   UNL     1      -9.336  12.280  63.754  1.00  0.00     0.000 HD 
HETATM   12  C   UNL     1     -11.084  12.304  65.648  1.00  0.00    -0.317 C  
HETATM   13  C   UNL     1      -8.789  13.200  66.064  1.00  0.00     0.469 C  
HETATM   14  C   UNL     1      -9.583  11.944  65.688  1.00  0.00    -0.204 C  
BRANCH   6  15
HETATM   15  O   UNL     1     -12.088  10.726  67.727  1.00  0.00    -0.295 OA 
BRANCH  15  16
HETATM   16  C   UNL     1     -11.261  10.297  68.822  1.00  0.00    -0.206 C  
HETATM   17  H1  UNL     1      -9.139  13.204  71.456  1.00  0.00     0.000 HD 
HETATM   18  C   UNL     1      -9.743  10.422  68.558  1.00  0.00    -0.168 C  
HETATM   19  C   UNL     1     -11.668  11.156  70.051  1.00  0.00    -0.356 C  
HETATM   20  H2  UNL     1      -7.899  12.719  70.421  1.00  0.00     0.000 HD 
HETATM   21  C   UNL     1      -9.769  12.812  69.519  1.00  0.00     1.327 C  
HETATM   22  C   UNL     1      -9.376  11.901  68.341  1.00  0.00    -0.184 C  
HETATM   23  O   UNL     1     -11.088  10.604  71.253  1.00  0.00     0.003 OA 
HETATM   24  H   UNL     1     -11.337  11.130  72.005  1.00  0.00     0.000 HD 
HETATM   25  N   UNL     1      -8.879  12.601  70.676  1.00  0.00     6.478 NA 
HETATM   26  C   UNL     1     -11.278  12.652  69.875  1.00  0.00     0.173 C  
BRANCH  18  27
HETATM   27  N   UNL     1      -8.957   9.789  69.617  1.00  0.00    -0.200 N  
HETATM   28  H   UNL     1      -9.405   9.079  70.197  1.00  0.00     0.000 HD 
HETATM   29  C   UNL     1      -7.642  10.106  69.870  1.00  0.00    -0.166 C  
HETATM   30  O   UNL     1      -6.996  10.921  69.221  1.00  0.00    -0.088 OA 
BRANCH  29  31
HETATM   31  C   UNL     1      -7.017   9.321  71.035  1.00  0.00    -0.084 C  
HETATM   32  H   UNL     1      -6.091   9.729  72.729  1.00  0.00     0.000 HD 
HETATM   33  O   UNL     1      -6.477  10.215  72.009  1.00  0.00     0.149 OA 
BRANCH  31  34
HETATM   34  C   UNL     1      -8.056   8.429  71.714  1.00  0.00    -0.192 C  
BRANCH  34  35
HETATM   35  C   UNL     1      -7.541   7.864  73.038  1.00  0.00    -0.120 C  
HETATM   36  H1  UNL     1      -7.100   8.543  74.921  1.00  0.00     0.000 HD 
HETATM   37  H2  UNL     1      -8.327   9.416  74.155  1.00  0.00     0.000 HD 
HETATM   38  N   UNL     1      -7.443   8.920  74.038  1.00  0.00    -0.393 NA 
ENDBRANCH  34  35
ENDBRANCH  31  34
ENDBRANCH  29  31
ENDBRANCH  18  27
BRANCH  26  39
HETATM   39  O   UNL     1     -11.978  13.323  68.829  1.00  0.00    -0.325 OA 
BRANCH  39  40
HETATM   40  C   UNL     1     -11.217  13.988  67.817  1.00  0.00    -0.281 C  
HETATM   41  H1  UNL     1      -9.770  15.923  70.317  1.00  0.00     0.000 HD 
HETATM   42  O   UNL     1     -12.048  14.803  66.984  1.00  0.00    -0.306 OA 
HETATM   43  H2  UNL     1     -10.897  14.694  70.456  1.00  0.00     0.000 HD 
HETATM   44  N   UNL     1     -10.503  15.402  69.836  1.00  0.00    -0.293 NA 
HETATM   45  C   UNL     1     -10.092  14.788  68.554  1.00  0.00    -0.230 C  
HETATM   46  C   UNL     1     -11.341  15.584  66.084  1.00  0.00    -0.010 C  
HETATM   47  C   UNL     1      -9.386  15.784  67.623  1.00  0.00    -0.216 C  
HETATM   48  C   UNL     1     -10.107  16.043  66.344  1.00  0.00    -0.314 C  
BRANCH  46  49
HETATM   49  C   UNL     1     -12.074  15.923  64.806  1.00  0.00     0.324 C  
BRANCH  49  50
HETATM   50  N   UNL     1     -12.934  14.839  64.324  1.00  0.00    -0.356 NA 
HETATM   51  H   UNL     1     -13.832  15.193  63.996  1.00  0.00     0.000 HD 
BRANCH  50  52
HETATM   52  C   UNL     1     -12.260  14.035  63.289  1.00  0.00     0.387 C  
BRANCH  52  53
HETATM   53  C   UNL     1     -13.189  12.940  62.758  1.00  0.00     2.030 C  
HETATM   54  O   UNL     1     -12.498  11.698  62.662  1.00  0.00    -0.584 OA 
HETATM   55  H   UNL     1     -13.075  11.018  62.331  1.00  0.00     0.000 HD 
ENDBRANCH  52  53
ENDBRANCH  50  52
ENDBRANCH  49  50
ENDBRANCH  46  49
ENDBRANCH  39  40
ENDBRANCH  26  39
ENDBRANCH  15  16
ENDBRANCH   6  15
ENDBRANCH   2   4
TORSDOF 13
ENDMDL
MODEL      262
REMARK 921   NORMALIZED FREE ENERGY PREDICTED BY IDOCK:   19.76 KCAL/MOL
REMARK 922        TOTAL FREE ENERGY PREDICTED BY IDOCK:   31.31 KCAL/MOL
REMARK 923 INTER-LIGAND FREE ENERGY PREDICTED BY IDOCK:   15.93 KCAL/MOL
REMARK 924 INTRA-LIGAND FREE ENERGY PREDICTED BY IDOCK:   15.38 KCAL/MOL
REMARK 927      BINDING AFFINITY PREDICTED BY RF-SCORE:    0.00 PKD
ROOT
HETATM    1  C   UNL     1     -13.638   5.448  70.028  1.00  0.00    11.739 C  
HETATM    2  N   UNL     1     -12.512   5.594  70.945  1.00  0.00     1.841 NA 
HETATM    3  H   UNL     1     -12.392   4.739  71.490  1.00  0.00     0.000 HD 
ENDROOT
BRANCH   2   4
HETATM    4  C   UNL     1     -11.214   5.984  70.316  1.00  0.00    -0.322 C  
HETATM    5  C   UNL     1     -11.362   6.324  68.812  1.00  0.00    -0.134 C  
HETATM    6  C   UNL     1     -10.027   6.881  68.271  1.00  0.00    -0.153 C  
HETATM    7  O   UNL     1     -12.436   7.242  68.595  1.00  0.00     2.109 OA 
HETATM    8  H   UNL     1     -12.527   7.450  67.672  1.00  0.00     0.000 HD 
HETATM    9  O   UNL     1     -10.261   3.730  70.011  1.00  0.00     0.194 OA 
HETATM   10  O   UNL     1      -9.015   5.884  68.422  1.00  0.00    -0.114 OA 
HETATM   11  H   UNL     1      -9.516   3.156  70.143  1.00  0.00     0.000 HD 
HETATM   12  C   UNL     1      -8.743   5.591  69.803  1.00  0.00    -0.116 C  
HETATM   13  C   UNL     1      -9.645   4.871  72.019  1.00  0.00    -0.202 C  
HETATM   14  C   UNL     1      -9.985   5.038  70.534  1.00  0.00    -0.242 C  
BRANCH   6  15
HETATM   15  O   UNL     1      -9.670   8.088  68.949  1.00  0.00    -0.155 OA 
BRANCH  15  16
HETATM   16  C   UNL     1      -9.261   9.187  68.117  1.00  0.00    -0.131 C  
HETATM   17  H1  UNL     1      -5.062  10.688  68.086  1.00  0.00     0.000 HD 
HETATM   18  C   UNL     1      -9.042  10.513  68.880  1.00  0.00    -0.177 C  
HETATM   19  C   UNL     1      -7.949   8.747  67.410  1.00  0.00    -0.098 C  
HETATM   20  H2  UNL     1      -5.816  11.818  69.085  1.00  0.00     0.000 HD 
HETATM   21  C   UNL     1      -6.571   9.890  69.261  1.00  0.00    -0.049 C  
HETATM   22  C   UNL     1      -7.900  10.342  69.897  1.00  0.00    -0.119 C  
HETATM   23  O   UNL     1      -7.624   9.674  66.351  1.00  0.00    -0.099 OA 
HETATM   24  H   UNL     1      -6.821   9.405  65.919  1.00  0.00     0.000 HD 
HETATM   25  N   UNL     1      -5.941  10.988  68.506  1.00  0.00    -0.043 NA 
HETATM   26  C   UNL     1      -6.766   8.599  68.410  1.00  0.00    -0.064 C  
BRANCH  18  27
HETATM   27  N   UNL     1      -8.826  11.633  67.964  1.00  0.00    -0.155 N  
HETATM   28  H   UNL     1      -8.195  11.500  67.173  1.00  0.00     0.000 HD 
HETATM   29  C   UNL     1      -9.432  12.859  68.117  1.00  0.00    -0.218 C  
HETATM   30  O   UNL     1     -10.228  13.122  69.012  1.00  0.00    -0.066 OA 
BRANCH  29  31
HETATM   31  C   UNL     1      -9.054  13.889  67.041  1.00  0.00    -0.250 C  
HETATM   32  H   UNL     1      -9.145  14.034  65.074  1.00  0.00     0.000 HD 
HETATM   33  O   UNL     1      -9.379  13.397  65.740  1.00  0.00    -0.025 OA 
BRANCH  31  34
HETATM   34  C   UNL     1      -9.794  15.209  67.261  1.00  0.00    -0.228 C  
BRANCH  34  35
HETATM   35  C   UNL     1      -9.066  16.108  68.261  1.00  0.00    -0.190 C  
HETATM   36  H1  UNL     1      -9.247  18.001  69.026  1.00  0.00     0.000 HD 
HETATM   37  H2  UNL     1     -10.721  17.302  68.587  1.00  0.00     0.000 HD 
HETATM   38  N   UNL     1      -9.732  17.401  68.360  1.00  0.00    -0.290 NA 
ENDBRANCH  34  35
ENDBRANCH  31  34
ENDBRANCH  29  31
ENDBRANCH  18  27
BRANCH  26  39
HETATM   39  O   UNL     1      -6.929   7.548  69.361  1.00  0.00    -0.054 OA 
BRANCH  39  40
HETATM   40  C   UNL     1      -7.329   6.258  68.890  1.00  0.00    -0.086 C  
HETATM   41  H1  UNL     1      -4.689   4.892  70.694  1.00  0.00     0.000 HD 
HETATM   42  O   UNL     1      -7.092   6.113  67.486  1.00  0.00    -0.070 OA 
HETATM   43  H2  UNL     1      -5.168   6.491  70.577  1.00  0.00     0.000 HD 
HETATM   44  N   UNL     1      -5.183   5.577  70.123  1.00  0.00    -0.004 NA 
HETATM   45  C   UNL     1      -6.571   5.206  69.767  1.00  0.00    -0.039 C  
HETATM   46  C   UNL     1      -7.323   4.832  67.011  1.00  0.00    -0.081 C  
HETATM   47  C   UNL     1      -6.670   3.789  69.183  1.00  0.00    -0.045 C  
HETATM   48  C   UNL     1      -7.148   3.740  67.771  1.00  0.00    -0.055 C  
BRANCH  46  49
HETATM   49  C   UNL     1      -7.740   4.745  65.561  1.00  0.00    -0.086 C  
BRANCH  49  50
HETATM   50  N   UNL     1      -9.134   4.328  65.381  1.00  0.00    -0.133 NA 
HETATM   51  H   UNL     1      -9.366   4.217  64.395  1.00  0.00     0.000 HD 
BRANCH  50  52
HETATM   52  C   UNL     1      -9.433   3.104  66.146  1.00  0.00    -0.034 C  
BRANCH  52  53
HETATM   53  C   UNL     1     -10.089   2.049  65.252  1.00  0.00     0.829 C  
HETATM   54  O   UNL     1     -11.509   2.118  65.353  1.00  0.00     3.549 OA 
HETATM   55  H   UNL     1     -11.917   1.463  64.798  1.00  0.00     0.000 HD 
ENDBRANCH  52  53
ENDBRANCH  50  52
ENDBRANCH  49  50
ENDBRANCH  46  49
ENDBRANCH  39  40
ENDBRANCH  26  39
ENDBRANCH  15  16
ENDBRANCH   6  15
ENDBRANCH   2   4
TORSDOF 13
ENDMDL
MODEL      263
REMARK 921   NORMALIZED FREE ENERGY PREDICTED BY IDOCK:   21.52 KCAL/MOL
REMARK 922        TOTAL FREE ENERGY PREDICTED BY IDOCK:   34.41 KCAL/MOL
REMARK 923 INTER-LIGAND FREE ENERGY PREDICTED BY IDOCK:   22.61 KCAL/MOL
REMARK 924 INTRA-LIGAND FREE ENERGY PREDICTED BY IDOCK:   11.80 KCAL/MOL
REMARK 927      BINDING AFFINITY PREDICTED BY RF-SCORE:    0.00 PKD
ROOT
HETATM    1  C   UNL     1      -9.383  14.734  72.923  1.00  0.00     7.818 C  
HETATM    2  N   UNL     1      -9.832  15.448  71.732  1.00  0.00     1.724 NA 
HETATM    3  H   UNL     1      -9.600  16.439  71.811  1.00  0.00     0.000 HD 
ENDROOT
BRANCH   2   4
HETATM    4  C   UNL     1      -9.335  14.909  70.431  1.00  0.00     1.035 C  
HETATM    5  C   UNL     1      -9.678  13.410  70.239  1.00  0.00     3.472 C  
HETATM    6  C   UNL     1      -9.291  12.967  68.811  1.00  0.00     0.139 C  
HETATM    7  O   UNL     1     -11.061  13.160  70.505  1.00  0.00     0.084 OA 
HETATM    8  H   UNL     1     -11.271  12.241  70.388  1.00  0.00     0.000 HD 
HETATM    9  O   UNL     1      -6.969  14.588  71.046  1.00  0.00    -0.089 OA 
HETATM   10  O   UNL     1      -7.884  13.144  68.638  1.00  0.00    -0.126 OA 
HETATM   11  H   UNL     1      -6.059  14.745  70.821  1.00  0.00     0.000 HD 
HETATM   12  C   UNL     1      -7.500  14.529  68.695  1.00  0.00    -0.128 C  
HETATM   13  C   UNL     1      -7.511  16.665  69.992  1.00  0.00     1.061 C  
HETATM   14  C   UNL     1      -7.836  15.168  70.060  1.00  0.00     0.229 C  
BRANCH   6  15
HETATM   15  O   UNL     1     -10.029  13.703  67.833  1.00  0.00    -0.231 OA 
BRANCH  15  16
HETATM   16  C   UNL     1     -10.808  12.925  66.907  1.00  0.00    -0.257 C  
HETATM   17  H1  UNL     1      -9.844   8.663  66.015  1.00  0.00     0.000 HD 
HETATM   18  C   UNL     1     -10.120  12.689  65.544  1.00  0.00    -0.265 C  
HETATM   19  C   UNL     1     -11.105  11.570  67.605  1.00  0.00    -0.266 C  
HETATM   20  H2  UNL     1      -9.171   9.447  64.682  1.00  0.00     0.000 HD 
HETATM   21  C   UNL     1      -9.051  10.528  66.453  1.00  0.00    -0.162 C  
HETATM   22  C   UNL     1      -8.827  11.881  65.750  1.00  0.00     0.125 C  
HETATM   23  O   UNL     1     -12.109  10.843  66.863  1.00  0.00     0.428 OA 
HETATM   24  H   UNL     1     -12.291  10.013  67.290  1.00  0.00     0.000 HD 
HETATM   25  N   UNL     1      -9.696   9.558  65.549  1.00  0.00    -0.293 NA 
HETATM   26  C   UNL     1      -9.820  10.714  67.796  1.00  0.00    -0.165 C  
BRANCH  18  27
HETATM   27  N   UNL     1     -11.031  12.070  64.580  1.00  0.00    -0.305 N  
HETATM   28  H   UNL     1     -10.633  11.611  63.761  1.00  0.00     0.000 HD 
HETATM   29  C   UNL     1     -12.400  12.078  64.727  1.00  0.00    -0.092 C  
HETATM   30  O   UNL     1     -12.984  12.575  65.684  1.00  0.00    -0.223 OA 
BRANCH  29  31
HETATM   31  C   UNL     1     -13.159  11.375  63.590  1.00  0.00     0.779 C  
HETATM   32  H   UNL     1     -14.796  10.289  63.392  1.00  0.00     0.000 HD 
HETATM   33  O   UNL     1     -14.326  10.724  64.095  1.00  0.00     3.667 OA 
BRANCH  31  34
HETATM   34  C   UNL     1     -13.585  12.374  62.515  1.00  0.00     3.234 C  
BRANCH  34  35
HETATM   35  C   UNL     1     -12.651  13.583  62.460  1.00  0.00     2.258 C  
HETATM   36  H1  UNL     1     -12.466  15.414  63.364  1.00  0.00     0.000 HD 
HETATM   37  H2  UNL     1     -13.180  14.241  64.347  1.00  0.00     0.000 HD 
HETATM   38  N   UNL     1     -13.089  14.608  63.400  1.00  0.00     0.655 NA 
ENDBRANCH  34  35
ENDBRANCH  31  34
ENDBRANCH  29  31
ENDBRANCH  18  27
BRANCH  26  39
HETATM   39  O   UNL     1      -8.866  11.279  68.694  1.00  0.00    -0.161 OA 
BRANCH  39  40
HETATM   40  C   UNL     1      -8.481  10.521  69.845  1.00  0.00     0.261 C  
HETATM   41  H1  UNL     1      -5.943   9.102  67.937  1.00  0.00     0.000 HD 
HETATM   42  O   UNL     1      -9.460   9.530  70.175  1.00  0.00    -0.214 OA 
HETATM   43  H2  UNL     1      -7.073  10.255  67.496  1.00  0.00     0.000 HD 
HETATM   44  N   UNL     1      -6.865   9.490  68.138  1.00  0.00    -0.069 NA 
HETATM   45  C   UNL     1      -7.066   9.927  69.537  1.00  0.00    -0.082 C  
HETATM   46  C   UNL     1      -9.065   8.673  71.189  1.00  0.00    -0.209 C  
HETATM   47  C   UNL     1      -6.658   8.852  70.554  1.00  0.00    -0.049 C  
HETATM   48  C   UNL     1      -7.780   8.348  71.397  1.00  0.00    -0.116 C  
BRANCH  46  49
HETATM   49  C   UNL     1     -10.188   8.089  72.016  1.00  0.00    -0.226 C  
BRANCH  49  50
HETATM   50  N   UNL     1     -10.759   6.868  71.440  1.00  0.00    -0.220 NA 
HETATM   51  H   UNL     1     -11.771   6.943  71.335  1.00  0.00     0.000 HD 
BRANCH  50  52
HETATM   52  C   UNL     1     -10.109   6.518  70.165  1.00  0.00    -0.174 C  
BRANCH  52  53
HETATM   53  C   UNL     1      -8.944   5.552  70.393  1.00  0.00    -0.139 C  
HETATM   54  O   UNL     1      -7.960   5.702  69.374  1.00  0.00    -0.096 OA 
HETATM   55  H   UNL     1      -7.236   5.102  69.515  1.00  0.00     0.000 HD 
ENDBRANCH  52  53
ENDBRANCH  50  52
ENDBRANCH  49  50
ENDBRANCH  46  49
ENDBRANCH  39  40
ENDBRANCH  26  39
ENDBRANCH  15  16
ENDBRANCH   6  15
ENDBRANCH   2   4
TORSDOF 13
ENDMDL
MODEL      264
REMARK 921   NORMALIZED FREE ENERGY PREDICTED BY IDOCK:   22.40 KCAL/MOL
REMARK 922        TOTAL FREE ENERGY PREDICTED BY IDOCK:   35.97 KCAL/MOL
REMARK 923 INTER-LIGAND FREE ENERGY PREDICTED BY IDOCK:   11.46 KCAL/MOL
REMARK 924 INTRA-LIGAND FREE ENERGY PREDICTED BY IDOCK:   24.51 KCAL/MOL
REMARK 927      BINDING AFFINITY PREDICTED BY RF-SCORE:    0.00 PKD
ROOT
HETATM    1  C   UNL     1     -12.518  14.369  68.279  1.00  0.00     0.235 C  
HETATM    2  N   UNL     1     -12.911  13.834  69.579  1.00  0.00    -0.028 NA 
HETATM    3  H   UNL     1     -13.910  13.627  69.584  1.00  0.00     0.000 HD 
ENDROOT
BRANCH   2   4
HETATM    4  C   UNL     1     -12.140  12.642  70.045  1.00  0.00    -0.269 C  
HETATM    5  C   UNL     1     -12.541  11.347  69.295  1.00  0.00     0.310 C  
HETATM    6  C   UNL     1     -11.592  10.197  69.701  1.00  0.00    -0.153 C  
HETATM    7  O   UNL     1     -12.538  11.549  67.879  1.00  0.00     0.307 OA 
HETATM    8  H   UNL     1     -12.784  10.754  67.420  1.00  0.00     0.000 HD 
HETATM    9  O   UNL     1     -13.397  12.178  72.115  1.00  0.00    -0.522 OA 
HETATM   10  O   UNL     1     -11.713   9.973  71.106  1.00  0.00    -0.345 OA 
HETATM   11  H   UNL     1     -13.359  12.014  73.050  1.00  0.00     0.000 HD 
HETATM   12  C   UNL     1     -11.255  11.098  71.876  1.00  0.00     3.925 C  
HETATM   13  C   UNL     1     -11.449  13.544  72.349  1.00  0.00     3.311 C  
HETATM   14  C   UNL     1     -12.077  12.372  71.585  1.00  0.00     0.915 C  
BRANCH   6  15
HETATM   15  O   UNL     1     -10.243  10.501  69.339  1.00  0.00    -0.220 OA 
BRANCH  15  16
HETATM   16  C   UNL     1      -9.724  11.754  69.817  1.00  0.00     1.506 C  
HETATM   17  H1  UNL     1      -8.865  15.156  67.065  1.00  0.00     0.000 HD 
HETATM   18  C   UNL     1      -8.226  11.978  69.512  1.00  0.00     1.088 C  
HETATM   19  C   UNL     1     -10.582  12.871  69.161  1.00  0.00     0.049 C  
HETATM   20  H2  UNL     1      -7.324  14.511  67.294  1.00  0.00     0.000 HD 
HETATM   21  C   UNL     1      -8.843  13.094  67.274  1.00  0.00    -0.208 C  
HETATM   22  C   UNL     1      -8.007  12.015  67.990  1.00  0.00    -0.149 C  
HETATM   23  O   UNL     1     -10.313  14.139  69.797  1.00  0.00    -0.419 OA 
HETATM   24  H   UNL     1     -10.837  14.822  69.396  1.00  0.00     0.000 HD 
HETATM   25  N   UNL     1      -8.312  14.443  67.538  1.00  0.00    -0.174 NA 
HETATM   26  C   UNL     1     -10.356  12.956  67.623  1.00  0.00    -0.218 C  
BRANCH  18  27
HETATM   27  N   UNL     1      -7.709  13.167  70.192  1.00  0.00     1.348 N  
HETATM   28  H   UNL     1      -7.900  13.279  71.187  1.00  0.00     0.000 HD 
HETATM   29  C   UNL     1      -6.977  14.141  69.552  1.00  0.00    -0.042 C  
HETATM   30  O   UNL     1      -6.664  14.096  68.367  1.00  0.00    -0.088 OA 
BRANCH  29  31
HETATM   31  C   UNL     1      -6.543  15.302  70.460  1.00  0.00     0.188 C  
HETATM   32  H   UNL     1      -5.195  15.621  71.866  1.00  0.00     0.000 HD 
HETATM   33  O   UNL     1      -5.463  14.902  71.304  1.00  0.00    -0.130 OA 
BRANCH  31  34
HETATM   34  C   UNL     1      -6.094  16.507  69.632  1.00  0.00    -0.213 C  
BRANCH  34  35
HETATM   35  C   UNL     1      -6.880  17.768  69.991  1.00  0.00     0.625 C  
HETATM   36  H1  UNL     1      -8.836  18.331  70.237  1.00  0.00     0.000 HD 
HETATM   37  H2  UNL     1      -8.544  16.710  70.612  1.00  0.00     0.000 HD 
HETATM   38  N   UNL     1      -8.312  17.490  69.998  1.00  0.00     1.756 NA 
ENDBRANCH  34  35
ENDBRANCH  31  34
ENDBRANCH  29  31
ENDBRANCH  18  27
BRANCH  26  39
HETATM   39  O   UNL     1     -10.801  11.810  66.900  1.00  0.00    -0.244 OA 
BRANCH  39  40
HETATM   40  C   UNL     1     -11.210  11.978  65.540  1.00  0.00    -0.321 C  
HETATM   41  H1  UNL     1      -7.984  11.115  64.567  1.00  0.00     0.000 HD 
HETATM   42  O   UNL     1     -11.464  13.353  65.233  1.00  0.00    -0.294 OA 
HETATM   43  H2  UNL     1      -8.630  11.208  66.108  1.00  0.00     0.000 HD 
HETATM   44  N   UNL     1      -8.712  11.535  65.146  1.00  0.00     0.177 NA 
HETATM   45  C   UNL     1     -10.093  11.334  64.652  1.00  0.00    -0.290 C  
HETATM   46  C   UNL     1     -11.718  13.587  63.891  1.00  0.00    -0.368 C  
HETATM   47  C   UNL     1     -10.248  11.703  63.170  1.00  0.00    -0.396 C  
HETATM   48  C   UNL     1     -11.181  12.838  62.916  1.00  0.00     0.843 C  
BRANCH  46  49
HETATM   49  C   UNL     1     -12.604  14.777  63.598  1.00  0.00     0.768 C  
BRANCH  49  50
HETATM   50  N   UNL     1     -11.884  16.054  63.613  1.00  0.00    -1.128 NA 
HETATM   51  H   UNL     1     -12.462  16.812  63.249  1.00  0.00     0.000 HD 
BRANCH  50  52
HETATM   52  C   UNL     1     -11.370  16.367  64.958  1.00  0.00    -0.025 C  
BRANCH  52  53
HETATM   53  C   UNL     1     -11.068  17.862  65.092  1.00  0.00     0.813 C  
HETATM   54  O   UNL     1      -9.750  18.065  65.595  1.00  0.00    -0.467 OA 
HETATM   55  H   UNL     1      -9.563  18.993  65.679  1.00  0.00     0.000 HD 
ENDBRANCH  52  53
ENDBRANCH  50  52
ENDBRANCH  49  50
ENDBRANCH  46  49
ENDBRANCH  39  40
ENDBRANCH  26  39
ENDBRANCH  15  16
ENDBRANCH   6  15
ENDBRANCH   2   4
TORSDOF 13
ENDMDL
MODEL      265
REMARK 921   NORMALIZED FREE ENERGY PREDICTED BY IDOCK:   27.16 KCAL/MOL
REMARK 922        TOTAL FREE ENERGY PREDICTED BY IDOCK:   44.33 KCAL/MOL
REMARK 923 INTER-LIGAND FREE ENERGY PREDICTED BY IDOCK:   33.37 KCAL/MOL
REMARK 924 INTRA-LIGAND FREE ENERGY PREDICTED BY IDOCK:   10.97 KCAL/MOL
REMARK 927      BINDING AFFINITY PREDICTED BY RF-SCORE:    0.00 PKD
ROOT
HETATM    1  C   UNL     1      -8.486  20.106  67.991  1.00  0.00    -0.147 C  
HETATM    2  N   UNL     1      -9.275  19.078  67.320  1.00  0.00    -0.284 NA 
HETATM    3  H   UNL     1      -8.754  18.698  66.530  1.00  0.00     0.000 HD 
ENDROOT
BRANCH   2   4
HETATM    4  C   UNL     1      -9.761  17.966  68.192  1.00  0.00    -0.320 C  
HETATM    5  C   UNL     1     -11.021  17.271  67.619  1.00  0.00    -0.133 C  
HETATM    6  C   UNL     1     -11.365  16.031  68.475  1.00  0.00    -0.382 C  
HETATM    7  O   UNL     1     -10.838  16.921  66.245  1.00  0.00    -0.146 OA 
HETATM    8  H   UNL     1     -11.611  16.494  65.894  1.00  0.00     0.000 HD 
HETATM    9  O   UNL     1     -10.925  19.317  69.896  1.00  0.00     0.996 OA 
HETATM   10  O   UNL     1     -11.637  16.453  69.811  1.00  0.00    -0.202 OA 
HETATM   11  H   UNL     1     -11.046  19.501  70.820  1.00  0.00     0.000 HD 
HETATM   12  C   UNL     1     -10.478  17.014  70.451  1.00  0.00     0.713 C  
HETATM   13  C   UNL     1      -8.660  18.727  70.385  1.00  0.00     2.708 C  
HETATM   14  C   UNL     1      -9.960  18.269  69.715  1.00  0.00     0.620 C  
BRANCH   6  15
HETATM   15  O   UNL     1     -10.298  15.079  68.439  1.00  0.00    -0.223 OA 
BRANCH  15  16
HETATM   16  C   UNL     1     -10.302  14.162  67.332  1.00  0.00    -0.256 C  
HETATM   17  H1  UNL     1     -13.017  10.626  67.209  1.00  0.00     0.000 HD 
HETATM   18  C   UNL     1      -9.617  12.808  67.628  1.00  0.00    -0.192 C  
HETATM   19  C   UNL     1     -11.790  13.941  66.943  1.00  0.00    -0.423 C  
HETATM   20  H2  UNL     1     -11.566   9.920  67.699  1.00  0.00     0.000 HD 
HETATM   21  C   UNL     1     -11.865  11.841  68.432  1.00  0.00    -0.282 C  
HETATM   22  C   UNL     1     -10.376  12.078  68.750  1.00  0.00    -0.181 C  
HETATM   23  O   UNL     1     -11.871  13.257  65.673  1.00  0.00    -0.344 OA 
HETATM   24  H   UNL     1     -12.781  13.122  65.434  1.00  0.00     0.000 HD 
HETATM   25  N   UNL     1     -12.032  10.783  67.419  1.00  0.00     0.114 NA 
HETATM   26  C   UNL     1     -12.576  13.173  68.044  1.00  0.00     0.793 C  
BRANCH  18  27
HETATM   27  N   UNL     1      -9.474  12.000  66.417  1.00  0.00    -0.227 N  
HETATM   28  H   UNL     1      -9.650  12.442  65.514  1.00  0.00     0.000 HD 
HETATM   29  C   UNL     1      -9.112  10.672  66.437  1.00  0.00    -0.164 C  
HETATM   30  O   UNL     1      -8.850  10.048  67.459  1.00  0.00    -0.128 OA 
BRANCH  29  31
HETATM   31  C   UNL     1      -9.030  10.021  65.047  1.00  0.00    -0.199 C  
HETATM   32  H   UNL     1     -10.268   9.169  63.767  1.00  0.00     0.000 HD 
HETATM   33  O   UNL     1     -10.319   9.571  64.626  1.00  0.00     0.707 OA 
BRANCH  31  34
HETATM   34  C   UNL     1      -8.496  11.008  64.009  1.00  0.00     0.216 C  
BRANCH  34  35
HETATM   35  C   UNL     1      -9.484  11.217  62.861  1.00  0.00    -0.359 C  
HETATM   36  H1  UNL     1     -11.469  11.667  62.617  1.00  0.00     0.000 HD 
HETATM   37  H2  UNL     1     -10.791  12.327  64.016  1.00  0.00     0.000 HD 
HETATM   38  N   UNL     1     -10.810  11.529  63.382  1.00  0.00    -0.384 NA 
ENDBRANCH  34  35
ENDBRANCH  31  34
ENDBRANCH  29  31
ENDBRANCH  18  27
BRANCH  26  39
HETATM   39  O   UNL     1     -12.719  13.888  69.270  1.00  0.00     0.028 OA 
BRANCH  39  40
HETATM   40  C   UNL     1     -12.478  13.192  70.497  1.00  0.00    -0.248 C  
HETATM   41  H1  UNL     1     -12.560  16.258  72.136  1.00  0.00     0.000 HD 
HETATM   42  O   UNL     1     -11.156  12.646  70.543  1.00  0.00     0.824 OA 
HETATM   43  H2  UNL     1     -12.778  15.927  70.510  1.00  0.00     0.000 HD 
HETATM   44  N   UNL     1     -12.364  15.598  71.383  1.00  0.00    -0.393 NA 
HETATM   45  C   UNL     1     -12.779  14.204  71.653  1.00  0.00    -0.349 C  
HETATM   46  C   UNL     1     -10.823  12.092  71.768  1.00  0.00     7.437 C  
HETATM   47  C   UNL     1     -12.279  13.693  73.012  1.00  0.00     1.003 C  
HETATM   48  C   UNL     1     -11.331  12.545  72.924  1.00  0.00     9.120 C  
BRANCH  46  49
HETATM   49  C   UNL     1      -9.809  10.972  71.718  1.00  0.00     8.721 C  
BRANCH  49  50
HETATM   50  N   UNL     1      -8.987  10.986  70.504  1.00  0.00     1.561 NA 
HETATM   51  H   UNL     1      -9.441  11.506  69.753  1.00  0.00     0.000 HD 
BRANCH  50  52
HETATM   52  C   UNL     1      -7.634  11.502  70.775  1.00  0.00     3.954 C  
BRANCH  52  53
HETATM   53  C   UNL     1      -6.609  10.364  70.784  1.00  0.00     0.109 C  
HETATM   54  O   UNL     1      -6.830   9.498  71.894  1.00  0.00    -0.292 OA 
HETATM   55  H   UNL     1      -6.194   8.792  71.900  1.00  0.00     0.000 HD 
ENDBRANCH  52  53
ENDBRANCH  50  52
ENDBRANCH  49  50
ENDBRANCH  46  49
ENDBRANCH  39  40
ENDBRANCH  26  39
ENDBRANCH  15  16
ENDBRANCH   6  15
ENDBRANCH   2   4
TORSDOF 13
ENDMDL
MODEL      266
REMARK 921   NORMALIZED FREE ENERGY PREDICTED BY IDOCK:   27.24 KCAL/MOL
REMARK 922        TOTAL FREE ENERGY PREDICTED BY IDOCK:   44.48 KCAL/MOL
REMARK 923 INTER-LIGAND FREE ENERGY PREDICTED BY IDOCK:   32.34 KCAL/MOL
REMARK 924 INTRA-LIGAND FREE ENERGY PREDICTED BY IDOCK:   12.14 KCAL/MOL
REMARK 927      BINDING AFFINITY PREDICTED BY RF-SCORE:    0.00 PKD
ROOT
HETATM    1  C   UNL     1     -10.732  11.084  64.476  1.00  0.00    -0.264 C  
HETATM    2  N   UNL     1     -10.497  12.524  64.497  1.00  0.00    -0.322 NA 
HETATM    3  H   UNL     1     -11.255  13.009  64.015  1.00  0.00     0.000 HD 
ENDROOT
BRANCH   2   4
HETATM    4  C   UNL     1     -10.285  13.124  65.848  1.00  0.00    -0.291 C  
HETATM    5  C   UNL     1     -11.159  12.454  66.938  1.00  0.00    -0.287 C  
HETATM    6  C   UNL     1     -10.766  13.001  68.329  1.00  0.00    -0.245 C  
HETATM    7  O   UNL     1     -11.045  11.030  66.888  1.00  0.00    -0.280 OA 
HETATM    8  H   UNL     1     -11.581  10.620  67.556  1.00  0.00     0.000 HD 
HETATM    9  O   UNL     1     -11.666  15.149  65.573  1.00  0.00    -0.220 OA 
HETATM   10  O   UNL     1     -10.996  14.411  68.352  1.00  0.00    -0.235 OA 
HETATM   11  H   UNL     1     -11.717  16.094  65.650  1.00  0.00     0.000 HD 
HETATM   12  C   UNL     1     -10.139  15.117  67.439  1.00  0.00    -0.229 C  
HETATM   13  C   UNL     1      -9.337  15.388  65.088  1.00  0.00     0.651 C  
HETATM   14  C   UNL     1     -10.369  14.682  65.975  1.00  0.00    -0.305 C  
BRANCH   6  15
HETATM   15  O   UNL     1      -9.401  12.695  68.626  1.00  0.00    -0.115 OA 
BRANCH  15  16
HETATM   16  C   UNL     1      -9.075  11.299  68.743  1.00  0.00    -0.116 C  
HETATM   17  H1  UNL     1      -4.866   9.838  68.559  1.00  0.00     0.000 HD 
HETATM   18  C   UNL     1      -8.681  10.627  67.409  1.00  0.00    -0.125 C  
HETATM   19  C   UNL     1      -7.909  11.199  69.764  1.00  0.00     0.503 C  
HETATM   20  H2  UNL     1      -5.405   9.509  66.995  1.00  0.00     0.000 HD 
HETATM   21  C   UNL     1      -6.213  11.234  67.827  1.00  0.00    -0.052 C  
HETATM   22  C   UNL     1      -7.406  11.286  66.854  1.00  0.00    -0.145 C  
HETATM   23  O   UNL     1      -7.706   9.821  70.149  1.00  0.00    -0.150 OA 
HETATM   24  H   UNL     1      -6.993   9.760  70.773  1.00  0.00     0.000 HD 
HETATM   25  N   UNL     1      -5.655   9.872  67.915  1.00  0.00    -0.039 NA 
HETATM   26  C   UNL     1      -6.595  11.827  69.217  1.00  0.00    -0.112 C  
BRANCH  18  27
HETATM   27  N   UNL     1      -8.556   9.176  67.552  1.00  0.00    -0.116 N  
HETATM   28  H   UNL     1      -9.360   8.651  67.899  1.00  0.00     0.000 HD 
HETATM   29  C   UNL     1      -7.407   8.485  67.243  1.00  0.00    -0.088 C  
HETATM   30  O   UNL     1      -6.393   9.008  66.793  1.00  0.00    -0.061 OA 
BRANCH  29  31
HETATM   31  C   UNL     1      -7.500   6.969  67.478  1.00  0.00    -0.097 C  
HETATM   32  H   UNL     1      -7.713   5.340  66.383  1.00  0.00     0.000 HD 
HETATM   33  O   UNL     1      -7.655   6.278  66.237  1.00  0.00    -0.087 OA 
BRANCH  31  34
HETATM   34  C   UNL     1      -6.245   6.444  68.174  1.00  0.00    -0.032 C  
BRANCH  34  35
HETATM   35  C   UNL     1      -6.394   4.979  68.587  1.00  0.00    -0.035 C  
HETATM   36  H1  UNL     1      -7.735   3.805  69.599  1.00  0.00     0.000 HD 
HETATM   37  H2  UNL     1      -8.446   5.113  68.799  1.00  0.00     0.000 HD 
HETATM   38  N   UNL     1      -7.636   4.782  69.324  1.00  0.00    -0.056 NA 
ENDBRANCH  34  35
ENDBRANCH  31  34
ENDBRANCH  29  31
ENDBRANCH  18  27
BRANCH  26  39
HETATM   39  O   UNL     1      -6.658  13.237  69.013  1.00  0.00    -0.096 OA 
BRANCH  39  40
HETATM   40  C   UNL     1      -7.014  14.070  70.120  1.00  0.00     0.290 C  
HETATM   41  H1  UNL     1      -5.796  11.600  72.243  1.00  0.00     0.000 HD 
HETATM   42  O   UNL     1      -8.434  14.182  70.260  1.00  0.00     1.464 OA 
HETATM   43  H2  UNL     1      -5.831  11.627  70.570  1.00  0.00     0.000 HD 
HETATM   44  N   UNL     1      -6.258  11.991  71.422  1.00  0.00     0.721 NA 
HETATM   45  C   UNL     1      -6.305  13.470  71.380  1.00  0.00     0.994 C  
HETATM   46  C   UNL     1      -8.831  14.854  71.405  1.00  0.00     3.993 C  
HETATM   47  C   UNL     1      -6.834  14.080  72.686  1.00  0.00     3.147 C  
HETATM   48  C   UNL     1      -8.111  14.836  72.536  1.00  0.00     6.832 C  
BRANCH  46  49
HETATM   49  C   UNL     1     -10.158  15.572  71.306  1.00  0.00     1.355 C  
BRANCH  49  50
HETATM   50  N   UNL     1     -11.189  15.010  72.184  1.00  0.00    -0.454 NA 
HETATM   51  H   UNL     1     -11.910  15.697  72.400  1.00  0.00     0.000 HD 
BRANCH  50  52
HETATM   52  C   UNL     1     -11.769  13.780  71.615  1.00  0.00     0.959 C  
BRANCH  52  53
HETATM   53  C   UNL     1     -11.713  12.633  72.627  1.00  0.00     5.144 C  
HETATM   54  O   UNL     1     -10.454  11.969  72.566  1.00  0.00    10.942 OA 
HETATM   55  H   UNL     1     -10.419  11.257  73.193  1.00  0.00     0.000 HD 
ENDBRANCH  52  53
ENDBRANCH  50  52
ENDBRANCH  49  50
ENDBRANCH  46  49
ENDBRANCH  39  40
ENDBRANCH  26  39
ENDBRANCH  15  16
ENDBRANCH   6  15
ENDBRANCH   2   4
TORSDOF 13
ENDMDL
MODEL      267
REMARK 921   NORMALIZED FREE ENERGY PREDICTED BY IDOCK:   28.56 KCAL/MOL
REMARK 922        TOTAL FREE ENERGY PREDICTED BY IDOCK:   46.81 KCAL/MOL
REMARK 923 INTER-LIGAND FREE ENERGY PREDICTED BY IDOCK:   32.20 KCAL/MOL
REMARK 924 INTRA-LIGAND FREE ENERGY PREDICTED BY IDOCK:   14.61 KCAL/MOL
REMARK 927      BINDING AFFINITY PREDICTED BY RF-SCORE:    0.00 PKD
ROOT
HETATM    1  C   UNL     1      -9.139  15.447  70.581  1.00  0.00     1.581 C  
HETATM    2  N   UNL     1      -8.013  15.767  71.453  1.00  0.00     3.887 NA 
HETATM    3  H   UNL     1      -8.354  16.079  72.363  1.00  0.00     0.000 HD 
ENDROOT
BRANCH   2   4
HETATM    4  C   UNL     1      -7.006  14.679  71.631  1.00  0.00     1.898 C  
HETATM    5  C   UNL     1      -7.621  13.267  71.464  1.00  0.00     7.292 C  
HETATM    6  C   UNL     1      -6.499  12.205  71.489  1.00  0.00     2.973 C  
HETATM    7  O   UNL     1      -8.394  13.180  70.265  1.00  0.00     2.414 OA 
HETATM    8  H   UNL     1      -8.771  12.314  70.163  1.00  0.00     0.000 HD 
HETATM    9  O   UNL     1      -6.912  14.664  74.096  1.00  0.00     2.152 OA 
HETATM   10  O   UNL     1      -5.829  12.271  72.749  1.00  0.00     0.842 OA 
HETATM   11  H   UNL     1      -6.365  14.691  74.872  1.00  0.00     0.000 HD 
HETATM   12  C   UNL     1      -5.139  13.518  72.932  1.00  0.00    -0.099 C  
HETATM   13  C   UNL     1      -5.278  16.013  72.987  1.00  0.00     1.861 C  
HETATM   14  C   UNL     1      -6.104  14.724  72.910  1.00  0.00     0.788 C  
BRANCH   6  15
HETATM   15  O   UNL     1      -5.588  12.405  70.406  1.00  0.00    -0.133 OA 
BRANCH  15  16
HETATM   16  C   UNL     1      -6.121  12.216  69.084  1.00  0.00    -0.082 C  
HETATM   17  H1  UNL     1      -8.917   8.876  68.125  1.00  0.00     0.000 HD 
HETATM   18  C   UNL     1      -5.485  11.041  68.306  1.00  0.00    -0.039 C  
HETATM   19  C   UNL     1      -7.649  11.990  69.249  1.00  0.00     0.256 C  
HETATM   20  H2  UNL     1      -7.454   8.268  67.546  1.00  0.00     0.000 HD 
HETATM   21  C   UNL     1      -7.270   9.442  69.251  1.00  0.00    -0.066 C  
HETATM   22  C   UNL     1      -5.769   9.719  69.041  1.00  0.00    -0.035 C  
HETATM   23  O   UNL     1      -8.301  12.069  67.962  1.00  0.00    -0.145 OA 
HETATM   24  H   UNL     1      -9.236  11.930  68.063  1.00  0.00     0.000 HD 
HETATM   25  N   UNL     1      -7.923   9.059  67.986  1.00  0.00    -0.101 NA 
HETATM   26  C   UNL     1      -7.969  10.642  69.958  1.00  0.00     0.411 C  
BRANCH  18  27
HETATM   27  N   UNL     1      -5.919  11.022  66.909  1.00  0.00    -0.076 N  
HETATM   28  H   UNL     1      -6.027  11.912  66.421  1.00  0.00     0.000 HD 
HETATM   29  C   UNL     1      -6.188   9.861  66.221  1.00  0.00    -0.067 C  
HETATM   30  O   UNL     1      -6.065   8.738  66.696  1.00  0.00    -0.055 OA 
BRANCH  29  31
HETATM   31  C   UNL     1      -6.636  10.080  64.766  1.00  0.00    -0.127 C  
HETATM   32  H   UNL     1      -5.889   9.802  62.960  1.00  0.00     0.000 HD 
HETATM   33  O   UNL     1      -5.613   9.667  63.859  1.00  0.00    -0.070 OA 
BRANCH  31  34
HETATM   34  C   UNL     1      -7.907   9.289  64.460  1.00  0.00    -0.118 C  
BRANCH  34  35
HETATM   35  C   UNL     1      -9.111  10.208  64.250  1.00  0.00    -0.250 C  
HETATM   36  H1  UNL     1     -10.949  10.135  63.344  1.00  0.00     0.000 HD 
HETATM   37  H2  UNL     1     -10.414   8.638  63.915  1.00  0.00     0.000 HD 
HETATM   38  N   UNL     1     -10.146   9.522  63.485  1.00  0.00     1.548 NA 
ENDBRANCH  34  35
ENDBRANCH  31  34
ENDBRANCH  29  31
ENDBRANCH  18  27
BRANCH  26  39
HETATM   39  O   UNL     1      -7.536  10.576  71.316  1.00  0.00     1.321 OA 
BRANCH  39  40
HETATM   40  C   UNL     1      -8.192   9.658  72.196  1.00  0.00     2.138 C  
HETATM   41  H1  UNL     1      -5.097   8.977  73.628  1.00  0.00     0.000 HD 
HETATM   42  O   UNL     1      -8.672   8.507  71.494  1.00  0.00    -0.154 OA 
HETATM   43  H2  UNL     1      -5.475  10.043  72.395  1.00  0.00     0.000 HD 
HETATM   44  N   UNL     1      -5.763   9.198  72.888  1.00  0.00    -0.223 NA 
HETATM   45  C   UNL     1      -7.169   9.319  73.332  1.00  0.00     0.982 C  
HETATM   46  C   UNL     1      -9.181   7.520  72.324  1.00  0.00    -0.138 C  
HETATM   47  C   UNL     1      -7.624   8.122  74.179  1.00  0.00    -0.256 C  
HETATM   48  C   UNL     1      -8.727   7.324  73.571  1.00  0.00    -0.197 C  
BRANCH  46  49
HETATM   49  C   UNL     1     -10.252   6.647  71.709  1.00  0.00    -0.187 C  
BRANCH  49  50
HETATM   50  N   UNL     1     -11.611   7.150  71.935  1.00  0.00    -0.268 NA 
HETATM   51  H   UNL     1     -11.673   8.151  71.752  1.00  0.00     0.000 HD 
BRANCH  50  52
HETATM   52  C   UNL     1     -12.602   6.395  71.148  1.00  0.00     0.205 C  
BRANCH  52  53
HETATM   53  C   UNL     1     -13.165   5.225  71.959  1.00  0.00     2.336 C  
HETATM   54  O   UNL     1     -12.169   4.689  72.826  1.00  0.00     0.197 OA 
HETATM   55  H   UNL     1     -12.518   3.962  73.329  1.00  0.00     0.000 HD 
ENDBRANCH  52  53
ENDBRANCH  50  52
ENDBRANCH  49  50
ENDBRANCH  46  49
ENDBRANCH  39  40
ENDBRANCH  26  39
ENDBRANCH  15  16
ENDBRANCH   6  15
ENDBRANCH   2   4
TORSDOF 13
ENDMDL
MODEL      268
REMARK 921   NORMALIZED FREE ENERGY PREDICTED BY IDOCK:   29.73 KCAL/MOL
REMARK 922        TOTAL FREE ENERGY PREDICTED BY IDOCK:   48.86 KCAL/MOL
REMARK 923 INTER-LIGAND FREE ENERGY PREDICTED BY IDOCK:    8.02 KCAL/MOL
REMARK 924 INTRA-LIGAND FREE ENERGY PREDICTED BY IDOCK:   40.84 KCAL/MOL
REMARK 927      BINDING AFFINITY PREDICTED BY RF-SCORE:    0.00 PKD
ROOT
HETATM    1  C   UNL     1      -9.690   8.455  72.019  1.00  0.00    -0.283 C  
HETATM    2  N   UNL     1      -9.386   8.470  70.592  1.00  0.00    -0.166 NA 
HETATM    3  H   UNL     1      -9.049   7.553  70.297  1.00  0.00     0.000 HD 
ENDROOT
BRANCH   2   4
HETATM    4  C   UNL     1     -10.498   8.915  69.700  1.00  0.00    -0.216 C  
HETATM    5  C   UNL     1     -10.618  10.459  69.627  1.00  0.00    -0.253 C  
HETATM    6  C   UNL     1     -11.667  10.848  68.562  1.00  0.00    -0.237 C  
HETATM    7  O   UNL     1      -9.351  11.062  69.355  1.00  0.00    -0.405 OA 
HETATM    8  H   UNL     1      -9.425  12.008  69.310  1.00  0.00     0.000 HD 
HETATM    9  O   UNL     1     -12.381   8.552  71.251  1.00  0.00    -0.307 OA 
HETATM   10  O   UNL     1     -12.933  10.304  68.939  1.00  0.00     0.987 OA 
HETATM   11  H   UNL     1     -13.238   8.165  71.386  1.00  0.00     0.000 HD 
HETATM   12  C   UNL     1     -12.932   8.866  68.924  1.00  0.00     6.424 C  
HETATM   13  C   UNL     1     -11.886   6.754  69.755  1.00  0.00    -0.128 C  
HETATM   14  C   UNL     1     -11.910   8.277  69.922  1.00  0.00     0.577 C  
BRANCH   6  15
HETATM   15  O   UNL     1     -11.271  10.388  67.267  1.00  0.00    -0.284 OA 
BRANCH  15  16
HETATM   16  C   UNL     1      -9.861  10.182  67.071  1.00  0.00    -0.191 C  
HETATM   17  H1  UNL     1      -6.804  12.787  69.011  1.00  0.00     0.000 HD 
HETATM   18  C   UNL     1      -9.195  11.210  66.129  1.00  0.00    -0.198 C  
HETATM   19  C   UNL     1      -9.204  10.233  68.478  1.00  0.00    -0.144 C  
HETATM   20  H2  UNL     1      -6.856  13.430  67.452  1.00  0.00     0.000 HD 
HETATM   21  C   UNL     1      -8.688  12.733  68.144  1.00  0.00    -0.193 C  
HETATM   22  C   UNL     1      -9.308  12.619  66.738  1.00  0.00    -0.232 C  
HETATM   23  O   UNL     1      -7.841   9.761  68.404  1.00  0.00    -0.081 OA 
HETATM   24  H   UNL     1      -7.439   9.792  69.264  1.00  0.00     0.000 HD 
HETATM   25  N   UNL     1      -7.215  12.711  68.080  1.00  0.00    -0.097 NA 
HETATM   26  C   UNL     1      -9.272  11.655  69.106  1.00  0.00     0.325 C  
BRANCH  18  27
HETATM   27  N   UNL     1      -7.817  10.836  65.810  1.00  0.00    -0.263 N  
HETATM   28  H   UNL     1      -7.059  11.288  66.322  1.00  0.00     0.000 HD 
HETATM   29  C   UNL     1      -7.494   9.902  64.852  1.00  0.00    -0.135 C  
HETATM   30  O   UNL     1      -8.321   9.277  64.197  1.00  0.00    -0.156 OA 
BRANCH  29  31
HETATM   31  C   UNL     1      -5.983   9.672  64.681  1.00  0.00    -0.084 C  
HETATM   32  H   UNL     1      -4.470  10.570  63.787  1.00  0.00     0.000 HD 
HETATM   33  O   UNL     1      -5.404  10.713  63.893  1.00  0.00    -0.157 OA 
BRANCH  31  34
HETATM   34  C   UNL     1      -5.277   9.636  66.036  1.00  0.00    -0.035 C  
BRANCH  34  35
HETATM   35  C   UNL     1      -6.130   8.950  67.103  1.00  0.00    -0.058 C  
HETATM   36  H1  UNL     1      -5.936   8.327  69.047  1.00  0.00     0.000 HD 
HETATM   37  H2  UNL     1      -4.984   9.669  68.666  1.00  0.00     0.000 HD 
HETATM   38  N   UNL     1      -5.367   8.784  68.335  1.00  0.00    -0.037 NA 
ENDBRANCH  34  35
ENDBRANCH  31  34
ENDBRANCH  29  31
ENDBRANCH  18  27
BRANCH  26  39
HETATM   39  O   UNL     1     -10.593  12.102  69.406  1.00  0.00    -0.006 OA 
BRANCH  39  40
HETATM   40  C   UNL     1     -10.846  13.510  69.431  1.00  0.00     0.015 C  
HETATM   41  H1  UNL     1     -14.148  12.799  70.258  1.00  0.00     0.000 HD 
HETATM   42  O   UNL     1     -10.780  14.081  68.121  1.00  0.00    -0.237 OA 
HETATM   43  H2  UNL     1     -12.877  11.742  70.000  1.00  0.00     0.000 HD 
HETATM   44  N   UNL     1     -13.244  12.673  69.803  1.00  0.00     1.384 NA 
HETATM   45  C   UNL     1     -12.233  13.703  70.130  1.00  0.00    -0.342 C  
HETATM   46  C   UNL     1     -11.165  15.411  68.072  1.00  0.00    -0.325 C  
HETATM   47  C   UNL     1     -12.771  15.131  69.962  1.00  0.00    -0.200 C  
HETATM   48  C   UNL     1     -12.072  15.929  68.913  1.00  0.00    -0.065 C  
BRANCH  46  49
HETATM   49  C   UNL     1     -10.526  16.230  66.973  1.00  0.00    -0.306 C  
BRANCH  49  50
HETATM   50  N   UNL     1      -9.385  17.028  67.431  1.00  0.00    -0.237 NA 
HETATM   51  H   UNL     1      -8.816  16.514  68.103  1.00  0.00     0.000 HD 
BRANCH  50  52
HETATM   52  C   UNL     1      -8.576  17.512  66.299  1.00  0.00    -0.199 C  
BRANCH  52  53
HETATM   53  C   UNL     1      -7.523  16.476  65.899  1.00  0.00     0.688 C  
HETATM   54  O   UNL     1      -8.008  15.648  64.845  1.00  0.00     3.876 OA 
HETATM   55  H   UNL     1      -7.354  15.004  64.597  1.00  0.00     0.000 HD 
ENDBRANCH  52  53
ENDBRANCH  50  52
ENDBRANCH  49  50
ENDBRANCH  46  49
ENDBRANCH  39  40
ENDBRANCH  26  39
ENDBRANCH  15  16
ENDBRANCH   6  15
ENDBRANCH   2   4
TORSDOF 13
ENDMDL
MODEL      269
REMARK 921   NORMALIZED FREE ENERGY PREDICTED BY IDOCK:   34.38 KCAL/MOL
REMARK 922        TOTAL FREE ENERGY PREDICTED BY IDOCK:   57.04 KCAL/MOL
REMARK 923 INTER-LIGAND FREE ENERGY PREDICTED BY IDOCK:   27.30 KCAL/MOL
REMARK 924 INTRA-LIGAND FREE ENERGY PREDICTED BY IDOCK:   29.75 KCAL/MOL
REMARK 927      BINDING AFFINITY PREDICTED BY RF-SCORE:    0.00 PKD
ROOT
HETATM    1  C   UNL     1      -9.139  15.447  70.581  1.00  0.00     1.581 C  
HETATM    2  N   UNL     1      -8.013  15.767  71.453  1.00  0.00     3.887 NA 
HETATM    3  H   UNL     1      -8.354  16.079  72.363  1.00  0.00     0.000 HD 
ENDROOT
BRANCH   2   4
HETATM    4  C   UNL     1      -7.006  14.679  71.631  1.00  0.00     1.898 C  
HETATM    5  C   UNL     1      -7.621  13.267  71.464  1.00  0.00     7.292 C  
HETATM    6  C   UNL     1      -6.499  12.205  71.489  1.00  0.00     2.973 C  
HETATM    7  O   UNL     1      -8.394  13.180  70.265  1.00  0.00     2.414 OA 
HETATM    8  H   UNL     1      -8.771  12.314  70.163  1.00  0.00     0.000 HD 
HETATM    9  O   UNL     1      -6.912  14.664  74.096  1.00  0.00     2.152 OA 
HETATM   10  O   UNL     1      -5.829  12.271  72.749  1.00  0.00     0.842 OA 
HETATM   11  H   UNL     1      -6.365  14.691  74.872  1.00  0.00     0.000 HD 
HETATM   12  C   UNL     1      -5.139  13.518  72.932  1.00  0.00    -0.099 C  
HETATM   13  C   UNL     1      -5.278  16.013  72.987  1.00  0.00     1.861 C  
HETATM   14  C   UNL     1      -6.104  14.724  72.910  1.00  0.00     0.788 C  
BRANCH   6  15
HETATM   15  O   UNL     1      -5.588  12.405  70.406  1.00  0.00    -0.133 OA 
BRANCH  15  16
HETATM   16  C   UNL     1      -6.121  12.216  69.084  1.00  0.00    -0.082 C  
HETATM   17  H1  UNL     1      -8.917   8.876  68.125  1.00  0.00     0.000 HD 
HETATM   18  C   UNL     1      -5.485  11.041  68.306  1.00  0.00    -0.039 C  
HETATM   19  C   UNL     1      -7.649  11.990  69.249  1.00  0.00     0.256 C  
HETATM   20  H2  UNL     1      -7.454   8.268  67.546  1.00  0.00     0.000 HD 
HETATM   21  C   UNL     1      -7.270   9.442  69.251  1.00  0.00    -0.066 C  
HETATM   22  C   UNL     1      -5.769   9.719  69.041  1.00  0.00    -0.035 C  
HETATM   23  O   UNL     1      -8.301  12.069  67.962  1.00  0.00    -0.145 OA 
HETATM   24  H   UNL     1      -9.236  11.930  68.063  1.00  0.00     0.000 HD 
HETATM   25  N   UNL     1      -7.923   9.059  67.986  1.00  0.00    -0.101 NA 
HETATM   26  C   UNL     1      -7.969  10.642  69.958  1.00  0.00     0.411 C  
BRANCH  18  27
HETATM   27  N   UNL     1      -5.919  11.022  66.909  1.00  0.00    -0.076 N  
HETATM   28  H   UNL     1      -5.562  11.741  66.279  1.00  0.00     0.000 HD 
HETATM   29  C   UNL     1      -6.786  10.081  66.403  1.00  0.00    -0.093 C  
HETATM   30  O   UNL     1      -7.254   9.157  67.060  1.00  0.00    -0.088 OA 
BRANCH  29  31
HETATM   31  C   UNL     1      -7.108  10.258  64.911  1.00  0.00    -0.099 C  
HETATM   32  H   UNL     1      -6.246  11.054  63.324  1.00  0.00     0.000 HD 
HETATM   33  O   UNL     1      -6.047  10.945  64.247  1.00  0.00     0.109 OA 
BRANCH  31  34
HETATM   34  C   UNL     1      -7.314   8.905  64.230  1.00  0.00    -0.100 C  
BRANCH  34  35
HETATM   35  C   UNL     1      -8.771   8.690  63.820  1.00  0.00     0.117 C  
HETATM   36  H1  UNL     1      -9.831   7.545  62.490  1.00  0.00     0.000 HD 
HETATM   37  H2  UNL     1      -8.408   6.814  63.032  1.00  0.00     0.000 HD 
HETATM   38  N   UNL     1      -8.859   7.688  62.765  1.00  0.00     0.453 NA 
ENDBRANCH  34  35
ENDBRANCH  31  34
ENDBRANCH  29  31
ENDBRANCH  18  27
BRANCH  26  39
HETATM   39  O   UNL     1      -7.536  10.576  71.316  1.00  0.00     1.321 OA 
BRANCH  39  40
HETATM   40  C   UNL     1      -7.160   9.303  71.850  1.00  0.00     0.350 C  
HETATM   41  H1  UNL     1      -4.582  10.893  73.558  1.00  0.00     0.000 HD 
HETATM   42  O   UNL     1      -6.623   8.445  70.838  1.00  0.00    -0.037 OA 
HETATM   43  H2  UNL     1      -5.747  11.555  72.556  1.00  0.00     0.000 HD 
HETATM   44  N   UNL     1      -5.230  10.708  72.792  1.00  0.00    -0.305 NA 
HETATM   45  C   UNL     1      -6.166   9.585  73.025  1.00  0.00     0.571 C  
HETATM   46  C   UNL     1      -6.107   7.257  71.330  1.00  0.00    -0.036 C  
HETATM   47  C   UNL     1      -5.451   8.311  73.495  1.00  0.00    -0.056 C  
HETATM   48  C   UNL     1      -5.569   7.159  72.555  1.00  0.00    -0.038 C  
BRANCH  46  49
HETATM   49  C   UNL     1      -6.148   6.087  70.372  1.00  0.00    -0.030 C  
BRANCH  49  50
HETATM   50  N   UNL     1      -7.367   5.283  70.490  1.00  0.00    -0.068 NA 
HETATM   51  H   UNL     1      -8.199   5.872  70.532  1.00  0.00     0.000 HD 
BRANCH  50  52
HETATM   52  C   UNL     1      -7.464   4.289  69.406  1.00  0.00    -0.054 C  
BRANCH  52  53
HETATM   53  C   UNL     1      -8.026   4.925  68.132  1.00  0.00    -0.086 C  
HETATM   54  O   UNL     1      -8.972   5.941  68.452  1.00  0.00    -0.114 OA 
HETATM   55  H   UNL     1      -9.322   6.335  67.661  1.00  0.00     0.000 HD 
ENDBRANCH  52  53
ENDBRANCH  50  52
ENDBRANCH  49  50
ENDBRANCH  46  49
ENDBRANCH  39  40
ENDBRANCH  26  39
ENDBRANCH  15  16
ENDBRANCH   6  15
ENDBRANCH   2   4
TORSDOF 13
ENDMDL
MODEL      270
REMARK 921   NORMALIZED FREE ENERGY PREDICTED BY IDOCK:   38.23 KCAL/MOL
REMARK 922        TOTAL FREE ENERGY PREDICTED BY IDOCK:   63.82 KCAL/MOL
REMARK 923 INTER-LIGAND FREE ENERGY PREDICTED BY IDOCK:   18.97 KCAL/MOL
REMARK 924 INTRA-LIGAND FREE ENERGY PREDICTED BY IDOCK:   44.85 KCAL/MOL
REMARK 927      BINDING AFFINITY PREDICTED BY RF-SCORE:    0.00 PKD
ROOT
HETATM    1  C   UNL     1      -8.641  20.194  67.966  1.00  0.00    -0.146 C  
HETATM    2  N   UNL     1      -8.680  19.307  66.807  1.00  0.00    -0.298 NA 
HETATM    3  H   UNL     1      -7.811  18.776  66.745  1.00  0.00     0.000 HD 
ENDROOT
BRANCH   2   4
HETATM    4  C   UNL     1      -9.850  18.381  66.743  1.00  0.00    -0.342 C  
HETATM    5  C   UNL     1      -9.583  17.149  65.842  1.00  0.00    -0.080 C  
HETATM    6  C   UNL     1     -10.761  16.156  65.958  1.00  0.00    -0.241 C  
HETATM    7  O   UNL     1      -8.341  16.526  66.176  1.00  0.00    -0.316 OA 
HETATM    8  H   UNL     1      -8.177  15.771  65.623  1.00  0.00     0.000 HD 
HETATM    9  O   UNL     1     -11.222  19.634  65.120  1.00  0.00    -0.294 OA 
HETATM   10  O   UNL     1     -11.955  16.801  65.515  1.00  0.00     1.399 OA 
HETATM   11  H   UNL     1     -12.071  20.008  64.917  1.00  0.00     0.000 HD 
HETATM   12  C   UNL     1     -12.330  17.895  66.370  1.00  0.00     5.667 C  
HETATM   13  C   UNL     1     -11.670  20.059  67.430  1.00  0.00     1.510 C  
HETATM   14  C   UNL     1     -11.250  18.998  66.408  1.00  0.00     0.466 C  
BRANCH   6  15
HETATM   15  O   UNL     1     -10.894  15.683  67.300  1.00  0.00    -0.305 OA 
BRANCH  15  16
HETATM   16  C   UNL     1      -9.766  15.900  68.165  1.00  0.00    -0.212 C  
HETATM   17  H1  UNL     1      -5.587  15.075  66.844  1.00  0.00     0.000 HD 
HETATM   18  C   UNL     1      -9.149  14.605  68.740  1.00  0.00    -0.178 C  
HETATM   19  C   UNL     1      -8.711  16.679  67.333  1.00  0.00    -0.190 C  
HETATM   20  H2  UNL     1      -5.931  13.698  67.755  1.00  0.00     0.000 HD 
HETATM   21  C   UNL     1      -7.563  14.458  66.716  1.00  0.00     0.680 C  
HETATM   22  C   UNL     1      -8.605  13.737  67.592  1.00  0.00    -0.187 C  
HETATM   23  O   UNL     1      -7.669  17.179  68.200  1.00  0.00    -0.190 OA 
HETATM   24  H   UNL     1      -7.023  17.655  67.691  1.00  0.00     0.000 HD 
HETATM   25  N   UNL     1      -6.277  14.598  67.424  1.00  0.00    -0.316 NA 
HETATM   26  C   UNL     1      -8.117  15.814  66.184  1.00  0.00     0.326 C  
BRANCH  18  27
HETATM   27  N   UNL     1      -8.142  14.895  69.762  1.00  0.00    -0.422 N  
HETATM   28  H   UNL     1      -8.105  15.836  70.154  1.00  0.00     0.000 HD 
HETATM   29  C   UNL     1      -7.243  13.959  70.219  1.00  0.00     0.811 C  
HETATM   30  O   UNL     1      -7.215  12.793  69.839  1.00  0.00     0.489 OA 
BRANCH  29  31
HETATM   31  C   UNL     1      -6.273  14.486  71.288  1.00  0.00     0.151 C  
HETATM   32  H   UNL     1      -4.688  15.660  71.358  1.00  0.00     0.000 HD 
HETATM   33  O   UNL     1      -5.288  15.334  70.697  1.00  0.00    -0.132 OA 
BRANCH  31  34
HETATM   34  C   UNL     1      -7.018  15.279  72.361  1.00  0.00     3.650 C  
BRANCH  34  35
HETATM   35  C   UNL     1      -6.563  16.738  72.409  1.00  0.00     5.631 C  
HETATM   36  H1  UNL     1      -4.832  17.807  72.158  1.00  0.00     0.000 HD 
HETATM   37  H2  UNL     1      -4.893  16.390  71.242  1.00  0.00     0.000 HD 
HETATM   38  N   UNL     1      -5.136  16.835  72.126  1.00  0.00     0.127 NA 
ENDBRANCH  34  35
ENDBRANCH  31  34
ENDBRANCH  29  31
ENDBRANCH  18  27
BRANCH  26  39
HETATM   39  O   UNL     1      -9.055  15.459  65.170  1.00  0.00     0.432 OA 
BRANCH  39  40
HETATM   40  C   UNL     1      -9.202  14.077  64.831  1.00  0.00     1.659 C  
HETATM   41  H1  UNL     1     -12.298  14.849  63.448  1.00  0.00     0.000 HD 
HETATM   42  O   UNL     1      -9.374  13.264  65.996  1.00  0.00    -0.146 OA 
HETATM   43  H2  UNL     1     -11.183  15.868  64.168  1.00  0.00     0.000 HD 
HETATM   44  N   UNL     1     -11.520  14.907  64.105  1.00  0.00    -0.090 NA 
HETATM   45  C   UNL     1     -10.396  13.988  63.822  1.00  0.00     1.903 C  
HETATM   46  C   UNL     1      -9.669  11.940  65.714  1.00  0.00    -0.237 C  
HETATM   47  C   UNL     1     -10.860  12.541  63.604  1.00  0.00    -0.486 C  
HETATM   48  C   UNL     1     -10.344  11.572  64.614  1.00  0.00    -0.349 C  
BRANCH  46  49
HETATM   49  C   UNL     1      -9.221  10.941  66.756  1.00  0.00    -0.158 C  
BRANCH  49  50
HETATM   50  N   UNL     1      -9.863   9.630  66.617  1.00  0.00    -0.209 NA 
HETATM   51  H   UNL     1     -10.745   9.699  66.109  1.00  0.00     0.000 HD 
BRANCH  50  52
HETATM   52  C   UNL     1      -8.957   8.649  65.995  1.00  0.00    -0.184 C  
BRANCH  52  53
HETATM   53  C   UNL     1      -8.460   7.634  67.028  1.00  0.00    -0.125 C  
HETATM   54  O   UNL     1      -7.615   8.266  67.986  1.00  0.00    -0.098 OA 
HETATM   55  H   UNL     1      -7.306   7.635  68.627  1.00  0.00     0.000 HD 
ENDBRANCH  52  53
ENDBRANCH  50  52
ENDBRANCH  49  50
ENDBRANCH  46  49
ENDBRANCH  39  40
ENDBRANCH  26  39
ENDBRANCH  15  16
ENDBRANCH   6  15
ENDBRANCH   2   4
TORSDOF 13
ENDMDL
MODEL      271
REMARK 921   NORMALIZED FREE ENERGY PREDICTED BY IDOCK:   39.28 KCAL/MOL
REMARK 922        TOTAL FREE ENERGY PREDICTED BY IDOCK:   65.68 KCAL/MOL
REMARK 923 INTER-LIGAND FREE ENERGY PREDICTED BY IDOCK:   21.29 KCAL/MOL
REMARK 924 INTRA-LIGAND FREE ENERGY PREDICTED BY IDOCK:   44.38 KCAL/MOL
REMARK 927      BINDING AFFINITY PREDICTED BY RF-SCORE:    0.00 PKD
ROOT
HETATM    1  C   UNL     1     -10.446  12.241  69.656  1.00  0.00     0.705 C  
HETATM    2  N   UNL     1      -9.361  11.431  69.110  1.00  0.00    -0.409 NA 
HETATM    3  H   UNL     1      -9.672  10.467  68.989  1.00  0.00     0.000 HD 
ENDROOT
BRANCH   2   4
HETATM    4  C   UNL     1      -8.757  11.935  67.840  1.00  0.00    -0.167 C  
HETATM    5  C   UNL     1      -9.547  13.126  67.239  1.00  0.00    -0.233 C  
HETATM    6  C   UNL     1      -8.776  13.704  66.031  1.00  0.00     0.780 C  
HETATM    7  O   UNL     1      -9.796  14.129  68.226  1.00  0.00    -0.221 OA 
HETATM    8  H   UNL     1     -10.280  14.859  67.858  1.00  0.00     0.000 HD 
HETATM    9  O   UNL     1      -9.627  10.210  66.308  1.00  0.00    -0.174 OA 
HETATM   10  O   UNL     1      -8.646  12.687  65.037  1.00  0.00     1.474 OA 
HETATM   11  H   UNL     1      -9.430   9.575  65.630  1.00  0.00     0.000 HD 
HETATM   12  C   UNL     1      -7.830  11.591  65.485  1.00  0.00     0.644 C  
HETATM   13  C   UNL     1      -7.446   9.820  67.205  1.00  0.00    -0.088 C  
HETATM   14  C   UNL     1      -8.432  10.889  66.722  1.00  0.00    -0.139 C  
BRANCH   6  15
HETATM   15  O   UNL     1      -7.497  14.199  66.436  1.00  0.00     1.007 OA 
BRANCH  15  16
HETATM   16  C   UNL     1      -7.482  15.508  67.031  1.00  0.00    -0.170 C  
HETATM   17  H1  UNL     1     -11.150  18.034  67.264  1.00  0.00     0.000 HD 
HETATM   18  C   UNL     1      -7.535  16.668  66.012  1.00  0.00     0.224 C  
HETATM   19  C   UNL     1      -8.703  15.575  67.990  1.00  0.00    -0.163 C  
HETATM   20  H2  UNL     1     -10.362  18.707  65.934  1.00  0.00     0.000 HD 
HETATM   21  C   UNL     1     -10.109  16.652  66.121  1.00  0.00    -0.345 C  
HETATM   22  C   UNL     1      -8.856  16.606  65.225  1.00  0.00     1.597 C  
HETATM   23  O   UNL     1      -8.605  16.744  68.833  1.00  0.00    -0.249 OA 
HETATM   24  H   UNL     1      -9.352  16.785  69.419  1.00  0.00     0.000 HD 
HETATM   25  N   UNL     1     -10.321  18.004  66.672  1.00  0.00    -0.371 NA 
HETATM   26  C   UNL     1     -10.055  15.549  67.221  1.00  0.00    -0.250 C  
BRANCH  18  27
HETATM   27  N   UNL     1      -7.316  17.963  66.657  1.00  0.00    -0.209 N  
HETATM   28  H   UNL     1      -7.416  18.809  66.095  1.00  0.00     0.000 HD 
HETATM   29  C   UNL     1      -6.982  18.095  67.985  1.00  0.00    -0.217 C  
HETATM   30  O   UNL     1      -6.863  17.152  68.759  1.00  0.00    -0.187 OA 
BRANCH  29  31
HETATM   31  C   UNL     1      -6.794  19.549  68.447  1.00  0.00    -0.290 C  
HETATM   32  H   UNL     1      -6.323  20.494  70.115  1.00  0.00     0.000 HD 
HETATM   33  O   UNL     1      -6.439  19.595  69.830  1.00  0.00    -0.318 OA 
BRANCH  31  34
HETATM   34  C   UNL     1      -5.696  20.243  67.639  1.00  0.00    -0.217 C  
BRANCH  34  35
HETATM   35  C   UNL     1      -5.238  19.391  66.455  1.00  0.00    -0.162 C  
HETATM   36  H1  UNL     1      -5.815  17.676  65.492  1.00  0.00     0.000 HD 
HETATM   37  H2  UNL     1      -7.097  18.527  66.190  1.00  0.00     0.000 HD 
HETATM   38  N   UNL     1      -6.121  18.245  66.281  1.00  0.00    -0.169 NA 
ENDBRANCH  34  35
ENDBRANCH  31  34
ENDBRANCH  29  31
ENDBRANCH  18  27
BRANCH  26  39
HETATM   39  O   UNL     1     -10.316  14.327  66.532  1.00  0.00    -0.270 OA 
BRANCH  39  40
HETATM   40  C   UNL     1     -11.435  13.538  66.945  1.00  0.00    -0.344 C  
HETATM   41  H1  UNL     1     -13.414  15.387  64.763  1.00  0.00     0.000 HD 
HETATM   42  O   UNL     1     -11.806  13.816  68.299  1.00  0.00    -0.344 OA 
HETATM   43  H2  UNL     1     -11.771  15.508  65.054  1.00  0.00     0.000 HD 
HETATM   44  N   UNL     1     -12.668  15.209  65.435  1.00  0.00     0.413 NA 
HETATM   45  C   UNL     1     -12.580  13.811  65.913  1.00  0.00    -0.447 C  
HETATM   46  C   UNL     1     -12.975  13.188  68.697  1.00  0.00     2.001 C  
HETATM   47  C   UNL     1     -13.933  13.267  66.394  1.00  0.00     6.763 C  
HETATM   48  C   UNL     1     -13.971  12.912  67.842  1.00  0.00    11.544 C  
BRANCH  46  49
HETATM   49  C   UNL     1     -13.073  12.880  70.174  1.00  0.00     0.815 C  
BRANCH  49  50
HETATM   50  N   UNL     1     -13.247  14.074  71.007  1.00  0.00    -0.274 NA 
HETATM   51  H   UNL     1     -13.507  13.828  71.962  1.00  0.00     0.000 HD 
BRANCH  50  52
HETATM   52  C   UNL     1     -12.049  14.931  70.977  1.00  0.00    -0.321 C  
BRANCH  52  53
HETATM   53  C   UNL     1     -12.381  16.348  71.452  1.00  0.00     0.324 C  
HETATM   54  O   UNL     1     -11.431  16.790  72.418  1.00  0.00    -0.250 OA 
HETATM   55  H   UNL     1     -11.638  17.670  72.713  1.00  0.00     0.000 HD 
ENDBRANCH  52  53
ENDBRANCH  50  52
ENDBRANCH  49  50
ENDBRANCH  46  49
ENDBRANCH  39  40
ENDBRANCH  26  39
ENDBRANCH  15  16
ENDBRANCH   6  15
ENDBRANCH   2   4
TORSDOF 13
ENDMDL
MODEL      272
REMARK 921   NORMALIZED FREE ENERGY PREDICTED BY IDOCK:   41.19 KCAL/MOL
REMARK 922        TOTAL FREE ENERGY PREDICTED BY IDOCK:   69.04 KCAL/MOL
REMARK 923 INTER-LIGAND FREE ENERGY PREDICTED BY IDOCK:   32.26 KCAL/MOL
REMARK 924 INTRA-LIGAND FREE ENERGY PREDICTED BY IDOCK:   36.78 KCAL/MOL
REMARK 927      BINDING AFFINITY PREDICTED BY RF-SCORE:    0.00 PKD
ROOT
HETATM    1  C   UNL     1      -8.314  19.820  69.362  1.00  0.00     0.252 C  
HETATM    2  N   UNL     1      -9.647  19.444  69.824  1.00  0.00     0.132 NA 
HETATM    3  H   UNL     1     -10.339  19.658  69.106  1.00  0.00     0.000 HD 
ENDROOT
BRANCH   2   4
HETATM    4  C   UNL     1      -9.798  18.027  70.271  1.00  0.00     1.790 C  
HETATM    5  C   UNL     1     -10.854  17.252  69.442  1.00  0.00     0.143 C  
HETATM    6  C   UNL     1     -10.834  15.759  69.841  1.00  0.00    -0.327 C  
HETATM    7  O   UNL     1     -10.632  17.420  68.040  1.00  0.00    -0.371 OA 
HETATM    8  H   UNL     1     -11.279  16.945  67.532  1.00  0.00     0.000 HD 
HETATM    9  O   UNL     1     -11.214  18.415  72.253  1.00  0.00     1.220 OA 
HETATM   10  O   UNL     1     -11.162  15.647  71.226  1.00  0.00    -0.350 OA 
HETATM   11  H   UNL     1     -11.348  18.256  73.179  1.00  0.00     0.000 HD 
HETATM   12  C   UNL     1     -10.167  16.251  72.070  1.00  0.00     3.856 C  
HETATM   13  C   UNL     1      -8.859  18.301  72.647  1.00  0.00    13.698 C  
HETATM   14  C   UNL     1     -10.017  17.764  71.799  1.00  0.00     6.332 C  
BRANCH   6  15
HETATM   15  O   UNL     1      -9.559  15.177  69.561  1.00  0.00    -0.212 OA 
BRANCH  15  16
HETATM   16  C   UNL     1      -9.572  13.951  68.809  1.00  0.00    -0.070 C  
HETATM   17  H1  UNL     1     -13.120  11.249  68.767  1.00  0.00     0.000 HD 
HETATM   18  C   UNL     1      -9.427  12.677  69.672  1.00  0.00     1.896 C  
HETATM   19  C   UNL     1     -10.914  13.923  68.027  1.00  0.00    -0.251 C  
HETATM   20  H2  UNL     1     -12.120  10.474  69.881  1.00  0.00     0.000 HD 
HETATM   21  C   UNL     1     -11.988  12.548  69.921  1.00  0.00    -0.301 C  
HETATM   22  C   UNL     1     -10.623  12.564  70.634  1.00  0.00     3.468 C  
HETATM   23  O   UNL     1     -10.887  12.870  67.038  1.00  0.00    -0.255 OA 
HETATM   24  H   UNL     1     -11.708  12.853  66.560  1.00  0.00     0.000 HD 
HETATM   25  N   UNL     1     -12.217  11.260  69.239  1.00  0.00    -0.361 NA 
HETATM   26  C   UNL     1     -12.141  13.775  68.972  1.00  0.00    -0.322 C  
BRANCH  18  27
HETATM   27  N   UNL     1      -9.246  11.483  68.846  1.00  0.00    -0.395 N  
HETATM   28  H   UNL     1     -10.074  11.032  68.456  1.00  0.00     0.000 HD 
HETATM   29  C   UNL     1      -8.012  10.940  68.569  1.00  0.00    -0.134 C  
HETATM   30  O   UNL     1      -6.951  11.413  68.960  1.00  0.00    -0.090 OA 
BRANCH  29  31
HETATM   31  C   UNL     1      -8.061   9.682  67.685  1.00  0.00    -0.113 C  
HETATM   32  H   UNL     1      -9.416   8.686  66.652  1.00  0.00     0.000 HD 
HETATM   33  O   UNL     1      -9.386   9.463  67.198  1.00  0.00    -0.135 OA 
BRANCH  31  34
HETATM   34  C   UNL     1      -7.118   9.816  66.490  1.00  0.00    -0.090 C  
BRANCH  34  35
HETATM   35  C   UNL     1      -5.897   8.906  66.625  1.00  0.00    -0.052 C  
HETATM   36  H1  UNL     1      -4.857   7.564  65.477  1.00  0.00     0.000 HD 
HETATM   37  H2  UNL     1      -5.593   8.794  64.584  1.00  0.00     0.000 HD 
HETATM   38  N   UNL     1      -5.671   8.170  65.387  1.00  0.00    -0.040 NA 
ENDBRANCH  34  35
ENDBRANCH  31  34
ENDBRANCH  29  31
ENDBRANCH  18  27
BRANCH  26  39
HETATM   39  O   UNL     1     -12.354  14.888  69.837  1.00  0.00    -0.314 OA 
BRANCH  39  40
HETATM   40  C   UNL     1     -12.961  14.655  71.112  1.00  0.00    -0.350 C  
HETATM   41  H1  UNL     1     -10.060  15.863  72.603  1.00  0.00     0.000 HD 
HETATM   42  O   UNL     1     -13.104  13.256  71.379  1.00  0.00    -0.337 OA 
HETATM   43  H2  UNL     1     -10.427  15.719  70.976  1.00  0.00     0.000 HD 
HETATM   44  N   UNL     1     -10.630  15.371  71.914  1.00  0.00     0.485 NA 
HETATM   45  C   UNL     1     -12.087  15.409  72.169  1.00  0.00    -0.407 C  
HETATM   46  C   UNL     1     -13.548  12.975  72.661  1.00  0.00    -0.234 C  
HETATM   47  C   UNL     1     -12.443  15.003  73.607  1.00  0.00    -0.660 C  
HETATM   48  C   UNL     1     -13.270  13.766  73.708  1.00  0.00     2.613 C  
BRANCH  46  49
HETATM   49  C   UNL     1     -14.330  11.689  72.808  1.00  0.00     1.854 C  
BRANCH  49  50
HETATM   50  N   UNL     1     -13.512  10.562  73.265  1.00  0.00     1.676 NA 
HETATM   51  H   UNL     1     -13.492  10.504  74.283  1.00  0.00     0.000 HD 
BRANCH  50  52
HETATM   52  C   UNL     1     -13.956   9.294  72.661  1.00  0.00    -0.250 C  
BRANCH  52  53
HETATM   53  C   UNL     1     -12.921   8.775  71.659  1.00  0.00    -0.349 C  
HETATM   54  O   UNL     1     -12.399   7.518  72.081  1.00  0.00    -0.385 OA 
HETATM   55  H   UNL     1     -11.756   7.196  71.459  1.00  0.00     0.000 HD 
ENDBRANCH  52  53
ENDBRANCH  50  52
ENDBRANCH  49  50
ENDBRANCH  46  49
ENDBRANCH  39  40
ENDBRANCH  26  39
ENDBRANCH  15  16
ENDBRANCH   6  15
ENDBRANCH   2   4
TORSDOF 13
ENDMDL
MODEL      273
REMARK 921   NORMALIZED FREE ENERGY PREDICTED BY IDOCK:   51.68 KCAL/MOL
REMARK 922        TOTAL FREE ENERGY PREDICTED BY IDOCK:   87.49 KCAL/MOL
REMARK 923 INTER-LIGAND FREE ENERGY PREDICTED BY IDOCK:   42.66 KCAL/MOL
REMARK 924 INTRA-LIGAND FREE ENERGY PREDICTED BY IDOCK:   44.83 KCAL/MOL
REMARK 927      BINDING AFFINITY PREDICTED BY RF-SCORE:    0.00 PKD
ROOT
HETATM    1  C   UNL     1     -13.703   5.406  70.011  1.00  0.00    12.171 C  
HETATM    2  N   UNL     1     -12.525   5.459  70.871  1.00  0.00     2.833 NA 
HETATM    3  H   UNL     1     -12.309   4.528  71.226  1.00  0.00     0.000 HD 
ENDROOT
BRANCH   2   4
HETATM    4  C   UNL     1     -11.305   6.067  70.258  1.00  0.00    -0.266 C  
HETATM    5  C   UNL     1     -11.624   6.864  68.968  1.00  0.00     0.224 C  
HETATM    6  C   UNL     1     -10.356   7.603  68.487  1.00  0.00    -0.198 C  
HETATM    7  O   UNL     1     -12.708   7.772  69.178  1.00  0.00     2.613 OA 
HETATM    8  H   UNL     1     -12.903   8.260  68.386  1.00  0.00     0.000 HD 
HETATM    9  O   UNL     1     -10.413   4.056  69.143  1.00  0.00     0.627 OA 
HETATM   10  O   UNL     1      -9.342   6.639  68.196  1.00  0.00    -0.118 OA 
HETATM   11  H   UNL     1      -9.663   3.492  69.001  1.00  0.00     0.000 HD 
HETATM   12  C   UNL     1      -8.914   5.930  69.372  1.00  0.00    -0.121 C  
HETATM   13  C   UNL     1      -9.559   4.516  71.329  1.00  0.00    -0.240 C  
HETATM   14  C   UNL     1     -10.068   5.137  70.023  1.00  0.00    -0.275 C  
BRANCH   6  15
HETATM   15  O   UNL     1      -9.912   8.541  69.470  1.00  0.00    -0.185 OA 
BRANCH  15  16
HETATM   16  C   UNL     1      -9.561   9.849  68.987  1.00  0.00    -0.186 C  
HETATM   17  H1  UNL     1      -5.316  11.132  68.521  1.00  0.00     0.000 HD 
HETATM   18  C   UNL     1      -9.052  10.814  70.082  1.00  0.00     1.158 C  
HETATM   19  C   UNL     1      -8.472   9.645  67.898  1.00  0.00    -0.122 C  
HETATM   20  H2  UNL     1      -5.729  11.860  69.985  1.00  0.00     0.000 HD 
HETATM   21  C   UNL     1      -6.638  10.018  69.666  1.00  0.00    -0.062 C  
HETATM   22  C   UNL     1      -7.756  10.259  70.698  1.00  0.00     0.728 C  
HETATM   23  O   UNL     1      -8.266  10.874  67.169  1.00  0.00    -0.121 OA 
HETATM   24  H   UNL     1      -7.600  10.749  66.503  1.00  0.00     0.000 HD 
HETATM   25  N   UNL     1      -6.055  11.291  69.204  1.00  0.00    -0.049 NA 
HETATM   26  C   UNL     1      -7.137   9.116  68.497  1.00  0.00    -0.072 C  
BRANCH  18  27
HETATM   27  N   UNL     1      -8.904  12.177  69.573  1.00  0.00     0.608 N  
HETATM   28  H   UNL     1      -8.476  12.310  68.656  1.00  0.00     0.000 HD 
HETATM   29  C   UNL     1      -9.313  13.290  70.271  1.00  0.00     4.199 C  
HETATM   30  O   UNL     1      -9.863  13.249  71.366  1.00  0.00     7.621 OA 
BRANCH  29  31
HETATM   31  C   UNL     1      -9.052  14.621  69.547  1.00  0.00     0.235 C  
HETATM   32  H   UNL     1     -10.071  15.891  68.432  1.00  0.00     0.000 HD 
HETATM   33  O   UNL     1     -10.233  15.069  68.880  1.00  0.00    -0.221 OA 
BRANCH  31  34
HETATM   34  C   UNL     1      -8.608  15.703  70.531  1.00  0.00     1.663 C  
BRANCH  34  35
HETATM   35  C   UNL     1      -7.105  15.641  70.805  1.00  0.00     1.343 C  
HETATM   36  H1  UNL     1      -5.660  16.812  71.666  1.00  0.00     0.000 HD 
HETATM   37  H2  UNL     1      -7.196  17.030  72.334  1.00  0.00     0.000 HD 
HETATM   38  N   UNL     1      -6.662  16.853  71.483  1.00  0.00     3.669 NA 
ENDBRANCH  34  35
ENDBRANCH  31  34
ENDBRANCH  29  31
ENDBRANCH  18  27
BRANCH  26  39
HETATM   39  O   UNL     1      -7.219   7.804  69.050  1.00  0.00    -0.075 OA 
BRANCH  39  40
HETATM   40  C   UNL     1      -8.108   6.863  68.442  1.00  0.00    -0.120 C  
HETATM   41  H1  UNL     1      -5.399   4.722  68.029  1.00  0.00     0.000 HD 
HETATM   42  O   UNL     1      -8.570   7.322  67.167  1.00  0.00    -0.119 OA 
HETATM   43  H2  UNL     1      -5.444   6.239  68.734  1.00  0.00     0.000 HD 
HETATM   44  N   UNL     1      -5.898   5.610  68.071  1.00  0.00    -0.016 NA 
HETATM   45  C   UNL     1      -7.342   5.499  68.377  1.00  0.00    -0.076 C  
HETATM   46  C   UNL     1      -9.314   6.382  66.472  1.00  0.00    -0.155 C  
HETATM   47  C   UNL     1      -8.057   4.477  67.483  1.00  0.00    -0.100 C  
HETATM   48  C   UNL     1      -9.109   5.063  66.603  1.00  0.00    -0.119 C  
BRANCH  46  49
HETATM   49  C   UNL     1     -10.341   6.947  65.517  1.00  0.00     2.235 C  
BRANCH  49  50
HETATM   50  N   UNL     1     -10.448   8.408  65.578  1.00  0.00     1.308 NA 
HETATM   51  H   UNL     1     -11.192   8.753  64.971  1.00  0.00     0.000 HD 
BRANCH  50  52
HETATM   52  C   UNL     1     -10.622   8.878  66.963  1.00  0.00    -0.209 C  
BRANCH  52  53
HETATM   53  C   UNL     1     -11.836   9.803  67.077  1.00  0.00     3.119 C  
HETATM   54  O   UNL     1     -11.423  11.160  67.218  1.00  0.00    -0.473 OA 
HETATM   55  H   UNL     1     -12.176  11.734  67.290  1.00  0.00     0.000 HD 
ENDBRANCH  52  53
ENDBRANCH  50  52
ENDBRANCH  49  50
ENDBRANCH  46  49
ENDBRANCH  39  40
ENDBRANCH  26  39
ENDBRANCH  15  16
ENDBRANCH   6  15
ENDBRANCH   2   4
TORSDOF 13
ENDMDL
MODEL      274
REMARK 921   NORMALIZED FREE ENERGY PREDICTED BY IDOCK:   52.49 KCAL/MOL
REMARK 922        TOTAL FREE ENERGY PREDICTED BY IDOCK:   88.92 KCAL/MOL
REMARK 923 INTER-LIGAND FREE ENERGY PREDICTED BY IDOCK:    3.03 KCAL/MOL
REMARK 924 INTRA-LIGAND FREE ENERGY PREDICTED BY IDOCK:   85.89 KCAL/MOL
REMARK 927      BINDING AFFINITY PREDICTED BY RF-SCORE:    0.00 PKD
ROOT
HETATM    1  C   UNL     1     -12.098  11.164  71.488  1.00  0.00     0.140 C  
HETATM    2  N   UNL     1     -11.002  12.109  71.297  1.00  0.00     3.080 NA 
HETATM    3  H   UNL     1     -10.311  11.997  72.039  1.00  0.00     0.000 HD 
ENDROOT
BRANCH   2   4
HETATM    4  C   UNL     1     -10.331  12.057  69.963  1.00  0.00     1.610 C  
HETATM    5  C   UNL     1      -8.954  11.348  70.019  1.00  0.00     2.119 C  
HETATM    6  C   UNL     1      -8.399  11.177  68.587  1.00  0.00    -0.154 C  
HETATM    7  O   UNL     1      -9.048  10.092  70.694  1.00  0.00    -0.269 OA 
HETATM    8  H   UNL     1      -8.203   9.658  70.729  1.00  0.00     0.000 HD 
HETATM    9  O   UNL     1      -9.467  14.365  69.895  1.00  0.00    -0.071 OA 
HETATM   10  O   UNL     1      -8.232  12.468  68.000  1.00  0.00    -0.146 OA 
HETATM   11  H   UNL     1      -9.397  15.175  69.404  1.00  0.00     0.000 HD 
HETATM   12  C   UNL     1      -9.485  13.148  67.814  1.00  0.00    -0.209 C  
HETATM   13  C   UNL     1     -11.589  14.004  68.855  1.00  0.00    -0.351 C  
HETATM   14  C   UNL     1     -10.216  13.391  69.153  1.00  0.00     0.185 C  
BRANCH   6  15
HETATM   15  O   UNL     1      -9.270  10.360  67.801  1.00  0.00    -0.141 OA 
BRANCH  15  16
HETATM   16  C   UNL     1      -9.283   8.957  68.119  1.00  0.00    -0.139 C  
HETATM   17  H1  UNL     1      -6.665   7.235  71.292  1.00  0.00     0.000 HD 
HETATM   18  C   UNL     1      -8.057   8.176  67.594  1.00  0.00    -0.127 C  
HETATM   19  C   UNL     1      -9.367   8.853  69.667  1.00  0.00    -0.163 C  
HETATM   20  H2  UNL     1      -5.807   6.837  69.895  1.00  0.00     0.000 HD 
HETATM   21  C   UNL     1      -6.802   8.659  69.792  1.00  0.00    -0.042 C  
HETATM   22  C   UNL     1      -6.777   8.719  68.252  1.00  0.00    -0.065 C  
HETATM   23  O   UNL     1      -9.665   7.494  70.055  1.00  0.00    -0.171 OA 
HETATM   24  H   UNL     1      -9.716   7.430  71.002  1.00  0.00     0.000 HD 
HETATM   25  N   UNL     1      -6.647   7.275  70.274  1.00  0.00    -0.046 NA 
HETATM   26  C   UNL     1      -8.071   9.364  70.360  1.00  0.00    -0.175 C  
BRANCH  18  27
HETATM   27  N   UNL     1      -8.221   6.733  67.771  1.00  0.00    -0.119 N  
HETATM   28  H   UNL     1      -7.954   6.116  67.003  1.00  0.00     0.000 HD 
HETATM   29  C   UNL     1      -8.719   6.168  68.923  1.00  0.00    -0.123 C  
HETATM   30  O   UNL     1      -9.044   6.809  69.916  1.00  0.00    -0.144 OA 
BRANCH  29  31
HETATM   31  C   UNL     1      -8.810   4.634  68.884  1.00  0.00    -0.099 C  
HETATM   32  H   UNL     1      -8.593   3.200  67.545  1.00  0.00     0.000 HD 
HETATM   33  O   UNL     1      -8.536   4.149  67.569  1.00  0.00    -0.098 OA 
BRANCH  31  34
HETATM   34  C   UNL     1      -7.811   4.001  69.854  1.00  0.00    -0.052 C  
BRANCH  34  35
HETATM   35  C   UNL     1      -8.456   3.676  71.201  1.00  0.00    -0.068 C  
HETATM   36  H1  UNL     1     -10.331   3.324  71.953  1.00  0.00     0.000 HD 
HETATM   37  H2  UNL     1     -10.148   2.857  70.340  1.00  0.00     0.000 HD 
HETATM   38  N   UNL     1      -9.900   3.541  71.054  1.00  0.00    -0.146 NA 
ENDBRANCH  34  35
ENDBRANCH  31  34
ENDBRANCH  29  31
ENDBRANCH  18  27
BRANCH  26  39
HETATM   39  O   UNL     1      -7.826  10.759  70.194  1.00  0.00     0.125 OA 
BRANCH  39  40
HETATM   40  C   UNL     1      -7.469  11.238  68.894  1.00  0.00    -0.123 C  
HETATM   41  H1  UNL     1      -4.208  10.206  69.519  1.00  0.00     0.000 HD 
HETATM   42  O   UNL     1      -7.528  12.666  68.825  1.00  0.00    -0.106 OA 
HETATM   43  H2  UNL     1      -5.560  10.072  70.495  1.00  0.00     0.000 HD 
HETATM   44  N   UNL     1      -5.130  10.588  69.728  1.00  0.00    -0.038 NA 
HETATM   45  C   UNL     1      -6.054  10.652  68.573  1.00  0.00    -0.046 C  
HETATM   46  C   UNL     1      -7.048  13.187  67.634  1.00  0.00    -0.160 C  
HETATM   47  C   UNL     1      -5.417  11.320  67.346  1.00  0.00    -0.052 C  
HETATM   48  C   UNL     1      -6.083  12.586  66.923  1.00  0.00     0.299 C  
BRANCH  46  49
HETATM   49  C   UNL     1      -7.654  14.508  67.215  1.00  0.00    -0.121 C  
BRANCH  49  50
HETATM   50  N   UNL     1      -6.653  15.524  66.876  1.00  0.00    -0.197 NA 
HETATM   51  H   UNL     1      -6.585  15.659  65.867  1.00  0.00     0.000 HD 
BRANCH  50  52
HETATM   52  C   UNL     1      -6.918  16.795  67.573  1.00  0.00    -0.143 C  
BRANCH  52  53
HETATM   53  C   UNL     1      -8.090  16.649  68.546  1.00  0.00    -0.226 C  
HETATM   54  O   UNL     1      -9.274  16.262  67.852  1.00  0.00    -0.199 OA 
HETATM   55  H   UNL     1     -10.002  16.172  68.457  1.00  0.00     0.000 HD 
ENDBRANCH  52  53
ENDBRANCH  50  52
ENDBRANCH  49  50
ENDBRANCH  46  49
ENDBRANCH  39  40
ENDBRANCH  26  39
ENDBRANCH  15  16
ENDBRANCH   6  15
ENDBRANCH   2   4
TORSDOF 13
ENDMDL
MODEL      275
REMARK 921   NORMALIZED FREE ENERGY PREDICTED BY IDOCK:   52.84 KCAL/MOL
REMARK 922        TOTAL FREE ENERGY PREDICTED BY IDOCK:   89.54 KCAL/MOL
REMARK 923 INTER-LIGAND FREE ENERGY PREDICTED BY IDOCK:   63.12 KCAL/MOL
REMARK 924 INTRA-LIGAND FREE ENERGY PREDICTED BY IDOCK:   26.42 KCAL/MOL
REMARK 927      BINDING AFFINITY PREDICTED BY RF-SCORE:    0.00 PKD
ROOT
HETATM    1  C   UNL     1      -9.256  15.481  70.680  1.00  0.00     1.538 C  
HETATM    2  N   UNL     1      -8.341  15.583  71.812  1.00  0.00     4.579 NA 
HETATM    3  H   UNL     1      -8.851  15.863  72.650  1.00  0.00     0.000 HD 
ENDROOT
BRANCH   2   4
HETATM    4  C   UNL     1      -7.526  14.364  72.095  1.00  0.00     4.491 C  
HETATM    5  C   UNL     1      -8.159  13.077  71.507  1.00  0.00    11.366 C  
HETATM    6  C   UNL     1      -7.186  11.891  71.684  1.00  0.00     7.187 C  
HETATM    7  O   UNL     1      -8.514  13.259  70.134  1.00  0.00     2.018 OA 
HETATM    8  H   UNL     1      -8.903  12.470  69.774  1.00  0.00     0.000 HD 
HETATM    9  O   UNL     1      -8.223  13.988  74.430  1.00  0.00     4.757 OA 
HETATM   10  O   UNL     1      -6.948  11.693  73.079  1.00  0.00     6.832 OA 
HETATM   11  H   UNL     1      -7.951  13.836  75.328  1.00  0.00     0.000 HD 
HETATM   12  C   UNL     1      -6.261  12.806  73.676  1.00  0.00     2.860 C  
HETATM   13  C   UNL     1      -6.225  15.265  74.119  1.00  0.00     2.795 C  
HETATM   14  C   UNL     1      -7.077  14.113  73.573  1.00  0.00     4.121 C  
BRANCH   6  15
HETATM   15  O   UNL     1      -5.965  12.127  70.979  1.00  0.00    -0.330 OA 
BRANCH  15  16
HETATM   16  C   UNL     1      -6.089  12.432  69.580  1.00  0.00    -0.117 C  
HETATM   17  H1  UNL     1      -9.044  10.354  66.966  1.00  0.00     0.000 HD 
HETATM   18  C   UNL     1      -5.484  11.362  68.642  1.00  0.00    -0.042 C  
HETATM   19  C   UNL     1      -7.606  12.606  69.294  1.00  0.00     0.383 C  
HETATM   20  H2  UNL     1      -7.622   9.529  66.588  1.00  0.00     0.000 HD 
HETATM   21  C   UNL     1      -7.750  10.138  68.571  1.00  0.00    -0.090 C  
HETATM   22  C   UNL     1      -6.234  10.031  68.824  1.00  0.00    -0.040 C  
HETATM   23  O   UNL     1      -7.799  13.184  67.985  1.00  0.00    -0.122 OA 
HETATM   24  H   UNL     1      -8.727  13.290  67.810  1.00  0.00     0.000 HD 
HETATM   25  N   UNL     1      -8.041  10.283  67.133  1.00  0.00    -0.120 NA 
HETATM   26  C   UNL     1      -8.386  11.267  69.438  1.00  0.00     0.324 C  
BRANCH  18  27
HETATM   27  N   UNL     1      -5.460  11.817  67.251  1.00  0.00    -0.093 N  
HETATM   28  H   UNL     1      -4.774  12.523  66.982  1.00  0.00     0.000 HD 
HETATM   29  C   UNL     1      -6.317  11.337  66.287  1.00  0.00    -0.048 C  
HETATM   30  O   UNL     1      -7.160  10.470  66.490  1.00  0.00    -0.105 OA 
BRANCH  29  31
HETATM   31  C   UNL     1      -6.116  11.961  64.897  1.00  0.00     3.612 C  
HETATM   32  H   UNL     1      -5.073  13.439  64.106  1.00  0.00     0.000 HD 
HETATM   33  O   UNL     1      -5.198  13.053  64.966  1.00  0.00     6.271 OA 
BRANCH  31  34
HETATM   34  C   UNL     1      -5.573  10.930  63.907  1.00  0.00     0.152 C  
BRANCH  34  35
HETATM   35  C   UNL     1      -5.759   9.501  64.416  1.00  0.00    -0.073 C  
HETATM   36  H1  UNL     1      -5.846   7.603  63.644  1.00  0.00     0.000 HD 
HETATM   37  H2  UNL     1      -4.871   8.655  62.752  1.00  0.00     0.000 HD 
HETATM   38  N   UNL     1      -5.722   8.557  63.305  1.00  0.00    -0.072 NA 
ENDBRANCH  34  35
ENDBRANCH  31  34
ENDBRANCH  29  31
ENDBRANCH  18  27
BRANCH  26  39
HETATM   39  O   UNL     1      -8.416  10.744  70.764  1.00  0.00     1.543 OA 
BRANCH  39  40
HETATM   40  C   UNL     1      -8.393   9.324  70.937  1.00  0.00    -0.145 C  
HETATM   41  H1  UNL     1     -11.610   9.530  72.241  1.00  0.00     0.000 HD 
HETATM   42  O   UNL     1      -7.472   8.933  71.961  1.00  0.00    -0.314 OA 
HETATM   43  H2  UNL     1     -10.632  10.754  71.652  1.00  0.00     0.000 HD 
HETATM   44  N   UNL     1     -10.649   9.818  72.058  1.00  0.00     0.793 NA 
HETATM   45  C   UNL     1      -9.868   8.882  71.218  1.00  0.00    -0.291 C  
HETATM   46  C   UNL     1      -7.522   7.583  72.270  1.00  0.00    -0.074 C  
HETATM   47  C   UNL     1      -9.951   7.433  71.718  1.00  0.00    -0.192 C  
HETATM   48  C   UNL     1      -8.647   6.861  72.159  1.00  0.00    -0.119 C  
BRANCH  46  49
HETATM   49  C   UNL     1      -6.231   6.990  72.788  1.00  0.00    -0.052 C  
BRANCH  49  50
HETATM   50  N   UNL     1      -5.663   5.972  71.900  1.00  0.00    -0.030 NA 
HETATM   51  H   UNL     1      -4.667   5.839  72.074  1.00  0.00     0.000 HD 
BRANCH  50  52
HETATM   52  C   UNL     1      -6.401   4.700  71.996  1.00  0.00    -0.022 C  
BRANCH  52  53
HETATM   53  C   UNL     1      -5.798   3.799  73.077  1.00  0.00    -0.007 C  
HETATM   54  O   UNL     1      -6.108   2.432  72.822  1.00  0.00    -0.008 OA 
HETATM   55  H   UNL     1      -5.734   1.873  73.493  1.00  0.00     0.000 HD 
ENDBRANCH  52  53
ENDBRANCH  50  52
ENDBRANCH  49  50
ENDBRANCH  46  49
ENDBRANCH  39  40
ENDBRANCH  26  39
ENDBRANCH  15  16
ENDBRANCH   6  15
ENDBRANCH   2   4
TORSDOF 13
ENDMDL
MODEL      276
REMARK 921   NORMALIZED FREE ENERGY PREDICTED BY IDOCK:   59.89 KCAL/MOL
REMARK 922        TOTAL FREE ENERGY PREDICTED BY IDOCK:  101.94 KCAL/MOL
REMARK 923 INTER-LIGAND FREE ENERGY PREDICTED BY IDOCK:   83.35 KCAL/MOL
REMARK 924 INTRA-LIGAND FREE ENERGY PREDICTED BY IDOCK:   18.58 KCAL/MOL
REMARK 927      BINDING AFFINITY PREDICTED BY RF-SCORE:    0.00 PKD
ROOT
HETATM    1  C   UNL     1      -9.584  11.717  63.870  1.00  0.00    -0.122 C  
HETATM    2  N   UNL     1      -8.738  12.855  63.521  1.00  0.00     2.469 NA 
HETATM    3  H   UNL     1      -9.233  13.473  62.879  1.00  0.00     0.000 HD 
ENDROOT
BRANCH   2   4
HETATM    4  C   UNL     1      -8.204  13.639  64.675  1.00  0.00     7.508 C  
HETATM    5  C   UNL     1      -9.303  13.998  65.708  1.00  0.00     0.119 C  
HETATM    6  C   UNL     1      -8.655  14.652  66.949  1.00  0.00    -0.204 C  
HETATM    7  O   UNL     1     -10.069  12.846  66.067  1.00  0.00    -0.275 OA 
HETATM    8  H   UNL     1     -10.743  13.066  66.700  1.00  0.00     0.000 HD 
HETATM    9  O   UNL     1      -8.088  15.852  63.595  1.00  0.00    12.677 OA 
HETATM   10  O   UNL     1      -7.991  15.850  66.545  1.00  0.00    -0.262 OA 
HETATM   11  H   UNL     1      -7.559  16.617  63.402  1.00  0.00     0.000 HD 
HETATM   12  C   UNL     1      -6.884  15.588  65.666  1.00  0.00     6.003 C  
HETATM   13  C   UNL     1      -6.086  14.546  63.540  1.00  0.00    24.987 C  
HETATM   14  C   UNL     1      -7.333  14.900  64.359  1.00  0.00    17.278 C  
BRANCH   6  15
HETATM   15  O   UNL     1      -7.750  13.747  67.585  1.00  0.00    -0.150 OA 
BRANCH  15  16
HETATM   16  C   UNL     1      -8.064  12.349  67.469  1.00  0.00    -0.173 C  
HETATM   17  H1  UNL     1      -5.049   9.175  68.321  1.00  0.00     0.000 HD 
HETATM   18  C   UNL     1      -7.470  11.667  66.216  1.00  0.00     0.201 C  
HETATM   19  C   UNL     1      -7.534  11.665  68.760  1.00  0.00    -0.114 C  
HETATM   20  H2  UNL     1      -5.010   9.233  66.636  1.00  0.00     0.000 HD 
HETATM   21  C   UNL     1      -5.342  11.074  67.542  1.00  0.00    -0.041 C  
HETATM   22  C   UNL     1      -5.934  11.723  66.276  1.00  0.00     0.352 C  
HETATM   23  O   UNL     1      -8.050  10.319  68.854  1.00  0.00    -0.106 OA 
HETATM   24  H   UNL     1      -7.726   9.901  69.643  1.00  0.00     0.000 HD 
HETATM   25  N   UNL     1      -5.440   9.604  67.483  1.00  0.00    -0.036 NA 
HETATM   26  C   UNL     1      -5.979  11.675  68.832  1.00  0.00    -0.050 C  
BRANCH  18  27
HETATM   27  N   UNL     1      -7.985  10.307  66.047  1.00  0.00    -0.132 N  
HETATM   28  H   UNL     1      -8.969  10.187  65.807  1.00  0.00     0.000 HD 
HETATM   29  C   UNL     1      -7.205   9.183  66.196  1.00  0.00    -0.090 C  
HETATM   30  O   UNL     1      -6.006   9.210  66.455  1.00  0.00    -0.057 OA 
BRANCH  29  31
HETATM   31  C   UNL     1      -7.957   7.861  65.978  1.00  0.00    -0.103 C  
HETATM   32  H   UNL     1      -8.103   6.490  64.566  1.00  0.00     0.000 HD 
HETATM   33  O   UNL     1      -7.638   7.308  64.700  1.00  0.00    -0.090 OA 
BRANCH  31  34
HETATM   34  C   UNL     1      -7.592   6.839  67.055  1.00  0.00    -0.095 C  
BRANCH  34  35
HETATM   35  C   UNL     1      -8.458   5.583  66.964  1.00  0.00    -0.110 C  
HETATM   36  H1  UNL     1     -10.448   5.104  66.843  1.00  0.00     0.000 HD 
HETATM   37  H2  UNL     1     -10.064   6.593  66.143  1.00  0.00     0.000 HD 
HETATM   38  N   UNL     1      -9.870   5.942  66.903  1.00  0.00    -0.145 NA 
ENDBRANCH  34  35
ENDBRANCH  31  34
ENDBRANCH  29  31
ENDBRANCH  18  27
BRANCH  26  39
HETATM   39  O   UNL     1      -5.406  12.975  68.957  1.00  0.00    -0.068 OA 
BRANCH  39  40
HETATM   40  C   UNL     1      -5.802  13.792  70.063  1.00  0.00    -0.137 C  
HETATM   41  H1  UNL     1      -7.081  10.937  71.583  1.00  0.00     0.000 HD 
HETATM   42  O   UNL     1      -6.868  14.679  69.708  1.00  0.00    -0.162 OA 
HETATM   43  H2  UNL     1      -6.298  11.086  70.111  1.00  0.00     0.000 HD 
HETATM   44  N   UNL     1      -6.847  11.573  70.820  1.00  0.00     0.771 NA 
HETATM   45  C   UNL     1      -6.161  12.817  71.234  1.00  0.00     1.254 C  
HETATM   46  C   UNL     1      -7.388  15.384  70.781  1.00  0.00     1.342 C  
HETATM   47  C   UNL     1      -6.886  13.535  72.381  1.00  0.00     4.259 C  
HETATM   48  C   UNL     1      -7.402  14.889  72.028  1.00  0.00     3.467 C  
BRANCH  46  49
HETATM   49  C   UNL     1      -7.984  16.732  70.442  1.00  0.00     2.848 C  
BRANCH  49  50
HETATM   50  N   UNL     1      -9.443  16.704  70.311  1.00  0.00     1.330 NA 
HETATM   51  H   UNL     1      -9.847  17.632  70.442  1.00  0.00     0.000 HD 
BRANCH  50  52
HETATM   52  C   UNL     1      -9.859  16.112  69.027  1.00  0.00    -0.245 C  
BRANCH  52  53
HETATM   53  C   UNL     1     -10.549  14.764  69.247  1.00  0.00    -0.240 C  
HETATM   54  O   UNL     1     -11.693  14.642  68.405  1.00  0.00    -0.304 OA 
HETATM   55  H   UNL     1     -12.122  13.805  68.542  1.00  0.00     0.000 HD 
ENDBRANCH  52  53
ENDBRANCH  50  52
ENDBRANCH  49  50
ENDBRANCH  46  49
ENDBRANCH  39  40
ENDBRANCH  26  39
ENDBRANCH  15  16
ENDBRANCH   6  15
ENDBRANCH   2   4
TORSDOF 13
ENDMDL
