MODEL        1
REMARK 921   NORMALIZED FREE ENERGY PREDICTED BY IDOCK:   -6.67 KCAL/MOL
REMARK 922        TOTAL FREE ENERGY PREDICTED BY IDOCK:   -9.81 KCAL/MOL
REMARK 923 INTER-LIGAND FREE ENERGY PREDICTED BY IDOCK:   -8.23 KCAL/MOL
REMARK 924 INTRA-LIGAND FREE ENERGY PREDICTED BY IDOCK:   -1.58 KCAL/MOL
REMARK 927      BINDING AFFINITY PREDICTED BY RF-SCORE:    0.00 PKD
ROOT
HETATM    1  C   UNL     1     -10.875  11.597  66.947  1.00  0.00    -0.278 C  
ENDROOT
BRANCH   1   2
HETATM    2  N   UNL     1     -10.620  12.849  67.633  1.00  0.00    -0.221 NA 
HETATM    3  C   UNL     1     -11.043  13.967  66.760  1.00  0.00    -0.303 C  
HETATM    4  C   UNL     1     -12.500  13.852  66.188  1.00  0.00    -0.436 C  
HETATM    5  C   UNL     1      -9.264  13.066  68.217  1.00  0.00    -0.191 C  
HETATM    6  C   UNL     1      -8.103  12.025  68.204  1.00  0.00    -0.160 C  
HETATM    7  H   UNL     1     -13.078  14.461  64.162  1.00  0.00     0.000 HD 
HETATM    8  C   UNL     1      -7.445  11.798  66.840  1.00  0.00    -0.106 C  
HETATM    9  N   UNL     1     -12.702  13.698  64.726  1.00  0.00    -0.680 NA 
HETATM   10  C   UNL     1     -12.342  12.405  64.114  1.00  0.00    -0.467 C  
HETATM   11  N   UNL     1      -7.200  10.374  66.559  1.00  0.00    -0.111 NA 
HETATM   12  C   UNL     1     -10.909  12.393  63.560  1.00  0.00    -0.487 C  
HETATM   13  H   UNL     1      -7.892   9.780  67.014  1.00  0.00     0.000 HD 
HETATM   14  H   UNL     1      -8.384  10.885  62.621  1.00  0.00     0.000 HD 
HETATM   15  C   UNL     1     -10.361  10.992  63.228  1.00  0.00    -0.255 C  
HETATM   16  C   UNL     1      -7.133  10.112  65.107  1.00  0.00    -0.137 C  
HETATM   17  C   UNL     1      -8.519   9.914  64.437  1.00  0.00    -0.177 C  
HETATM   18  N   UNL     1      -8.910  10.965  63.490  1.00  0.00    -0.141 NA 
ENDBRANCH   1   2
BRANCH   1  19
HETATM   19  C   UNL     1     -10.985  10.353  67.768  1.00  0.00    -0.369 A  
HETATM   20  C   UNL     1     -11.285  10.423  69.117  1.00  0.00    -0.301 A  
HETATM   21  C   UNL     1     -10.780   9.434  69.921  1.00  0.00    -0.258 A  
HETATM   22  C   UNL     1     -10.606   9.167  67.160  1.00  0.00    -0.286 A  
HETATM   23  C   UNL     1     -10.270   8.267  69.355  1.00  0.00    -0.204 A  
HETATM   24  C   UNL     1     -10.166   8.136  67.961  1.00  0.00    -0.263 A  
BRANCH  23  25
HETATM   25  C   UNL     1      -9.824   7.125  70.191  1.00  0.00    -0.179 C  
BRANCH  25  26
HETATM   26  N   UNL     1     -10.580   5.888  70.112  1.00  0.00    -0.266 NA 
HETATM   27  C   UNL     1      -5.443   5.950  70.306  1.00  0.00    -0.013 C  
HETATM   28  H   UNL     1      -6.605   6.360  68.626  1.00  0.00     0.000 HD 
HETATM   29  N   UNL     1      -6.295   5.553  69.167  1.00  0.00    -0.033 NA 
HETATM   30  C   UNL     1      -6.009   7.133  71.135  1.00  0.00    -0.036 C  
HETATM   31  C   UNL     1      -7.430   4.737  69.628  1.00  0.00    -0.056 C  
HETATM   32  C   UNL     1     -10.000   4.750  69.348  1.00  0.00    -0.199 C  
HETATM   33  N   UNL     1      -6.417   6.765  72.492  1.00  0.00    -0.057 NA 
HETATM   34  H   UNL     1      -5.603   6.583  73.079  1.00  0.00     0.000 HD 
HETATM   35  C   UNL     1      -8.606   4.778  68.654  1.00  0.00    -0.101 C  
HETATM   36  C   UNL     1      -7.304   7.757  73.121  1.00  0.00    -0.104 C  
HETATM   37  C   UNL     1      -8.600   7.060  73.572  1.00  0.00    -0.159 C  
HETATM   38  C   UNL     1      -9.863   7.913  73.389  1.00  0.00    -0.230 C  
HETATM   39  N   UNL     1     -11.095   7.125  73.546  1.00  0.00    -0.547 NA 
HETATM   40  C   UNL     1     -11.741   6.609  72.314  1.00  0.00    -0.269 C  
HETATM   41  H   UNL     1     -11.492   6.940  74.468  1.00  0.00     0.000 HD 
HETATM   42  C   UNL     1     -11.031   5.494  71.468  1.00  0.00    -0.150 C  
ENDBRANCH  25  26
ENDBRANCH  23  25
ENDBRANCH   1  19
TORSDOF 4
ENDMDL
MODEL        2
REMARK 921   NORMALIZED FREE ENERGY PREDICTED BY IDOCK:   -6.58 KCAL/MOL
REMARK 922        TOTAL FREE ENERGY PREDICTED BY IDOCK:   -9.70 KCAL/MOL
REMARK 923 INTER-LIGAND FREE ENERGY PREDICTED BY IDOCK:   -8.46 KCAL/MOL
REMARK 924 INTRA-LIGAND FREE ENERGY PREDICTED BY IDOCK:   -1.24 KCAL/MOL
REMARK 927      BINDING AFFINITY PREDICTED BY RF-SCORE:    0.00 PKD
ROOT
HETATM    1  C   UNL     1     -11.068  11.874  66.802  1.00  0.00    -0.308 C  
ENDROOT
BRANCH   1   2
HETATM    2  N   UNL     1     -11.038  13.239  67.290  1.00  0.00    -0.272 NA 
HETATM    3  C   UNL     1     -11.423  14.149  66.189  1.00  0.00    -0.347 C  
HETATM    4  C   UNL     1     -12.759  13.778  65.454  1.00  0.00    -0.472 C  
HETATM    5  C   UNL     1      -9.813  13.701  68.007  1.00  0.00    -0.244 C  
HETATM    6  C   UNL     1      -8.572  12.812  68.329  1.00  0.00    -0.166 C  
HETATM    7  H   UNL     1     -13.075  13.991  63.294  1.00  0.00     0.000 HD 
HETATM    8  C   UNL     1      -7.696  12.453  67.126  1.00  0.00    -0.122 C  
HETATM    9  N   UNL     1     -12.721  13.375  64.026  1.00  0.00    -0.659 NA 
HETATM   10  C   UNL     1     -12.154  12.052  63.700  1.00  0.00    -0.527 C  
HETATM   11  N   UNL     1      -7.280  11.040  67.130  1.00  0.00    -0.105 NA 
HETATM   12  C   UNL     1     -10.658  12.121  63.355  1.00  0.00    -0.454 C  
HETATM   13  H   UNL     1      -7.976  10.448  67.582  1.00  0.00     0.000 HD 
HETATM   14  H   UNL     1      -7.892  10.787  63.039  1.00  0.00     0.000 HD 
HETATM   15  C   UNL     1      -9.940  10.758  63.346  1.00  0.00    -0.328 C  
HETATM   16  C   UNL     1      -6.969  10.563  65.767  1.00  0.00    -0.125 C  
HETATM   17  C   UNL     1      -8.212  10.104  64.960  1.00  0.00    -0.152 C  
HETATM   18  N   UNL     1      -8.549  10.941  63.803  1.00  0.00    -0.033 NA 
ENDBRANCH   1   2
BRANCH   1  19
HETATM   19  C   UNL     1     -11.052  10.766  67.804  1.00  0.00    -0.381 A  
HETATM   20  C   UNL     1     -11.573  10.954  69.072  1.00  0.00    -0.387 A  
HETATM   21  C   UNL     1     -11.013  10.229  70.092  1.00  0.00    -0.377 A  
HETATM   22  C   UNL     1     -10.345   9.624  67.462  1.00  0.00    -0.297 A  
HETATM   23  C   UNL     1     -10.191   9.142  69.804  1.00  0.00    -0.219 A  
HETATM   24  C   UNL     1      -9.838   8.843  68.478  1.00  0.00    -0.182 A  
BRANCH  23  25
HETATM   25  C   UNL     1      -9.660   8.261  70.874  1.00  0.00    -0.165 C  
BRANCH  25  26
HETATM   26  N   UNL     1     -10.612   7.647  71.783  1.00  0.00    -0.212 NA 
HETATM   27  C   UNL     1      -8.438   5.039  67.923  1.00  0.00    -0.104 C  
HETATM   28  H   UNL     1     -10.011   6.394  67.746  1.00  0.00     0.000 HD 
HETATM   29  N   UNL     1      -9.855   5.435  68.056  1.00  0.00    -0.137 NA 
HETATM   30  C   UNL     1      -7.436   6.089  68.470  1.00  0.00    -0.087 C  
HETATM   31  C   UNL     1     -10.326   5.222  69.434  1.00  0.00    -0.243 C  
HETATM   32  C   UNL     1     -11.535   6.610  71.249  1.00  0.00    -0.311 C  
HETATM   33  N   UNL     1      -6.705   5.649  69.660  1.00  0.00    -0.053 NA 
HETATM   34  H   UNL     1      -6.016   4.936  69.419  1.00  0.00     0.000 HD 
HETATM   35  C   UNL     1     -11.527   6.101  69.777  1.00  0.00    -0.362 C  
HETATM   36  C   UNL     1      -6.077   6.756  70.398  1.00  0.00    -0.024 C  
HETATM   37  C   UNL     1      -6.561   6.727  71.859  1.00  0.00    -0.054 C  
HETATM   38  C   UNL     1      -6.783   8.117  72.470  1.00  0.00    -0.085 C  
HETATM   39  N   UNL     1      -7.517   8.054  73.744  1.00  0.00    -0.147 NA 
HETATM   40  C   UNL     1      -8.984   8.270  73.701  1.00  0.00    -0.125 C  
HETATM   41  H   UNL     1      -7.036   7.869  74.624  1.00  0.00     0.000 HD 
HETATM   42  C   UNL     1      -9.911   7.207  73.013  1.00  0.00    -0.195 C  
ENDBRANCH  25  26
ENDBRANCH  23  25
ENDBRANCH   1  19
TORSDOF 4
ENDMDL
MODEL        3
REMARK 921   NORMALIZED FREE ENERGY PREDICTED BY IDOCK:   -6.48 KCAL/MOL
REMARK 922        TOTAL FREE ENERGY PREDICTED BY IDOCK:   -9.57 KCAL/MOL
REMARK 923 INTER-LIGAND FREE ENERGY PREDICTED BY IDOCK:   -8.34 KCAL/MOL
REMARK 924 INTRA-LIGAND FREE ENERGY PREDICTED BY IDOCK:   -1.23 KCAL/MOL
REMARK 927      BINDING AFFINITY PREDICTED BY RF-SCORE:    0.00 PKD
ROOT
HETATM    1  C   UNL     1      -9.857   6.953  70.130  1.00  0.00    -0.177 C  
ENDROOT
BRANCH   1   2
HETATM    2  N   UNL     1     -10.506   5.663  70.266  1.00  0.00    -0.270 NA 
HETATM    3  C   UNL     1     -10.651   5.351  71.706  1.00  0.00    -0.222 C  
HETATM    4  C   UNL     1     -11.316   6.480  72.569  1.00  0.00    -0.262 C  
HETATM    5  C   UNL     1      -9.955   4.515  69.489  1.00  0.00    -0.165 C  
HETATM    6  C   UNL     1      -8.764   4.598  68.486  1.00  0.00    -0.113 C  
HETATM    7  H   UNL     1     -10.704   6.988  74.613  1.00  0.00     0.000 HD 
HETATM    8  C   UNL     1      -7.385   4.788  69.124  1.00  0.00    -0.053 C  
HETATM    9  N   UNL     1     -10.522   7.159  73.623  1.00  0.00    -0.378 NA 
HETATM   10  C   UNL     1      -9.461   8.090  73.193  1.00  0.00    -0.280 C  
HETATM   11  N   UNL     1      -6.565   5.784  68.415  1.00  0.00    -0.050 NA 
HETATM   12  C   UNL     1      -8.087   7.410  73.090  1.00  0.00    -0.134 C  
HETATM   13  H   UNL     1      -7.144   6.501  67.978  1.00  0.00     0.000 HD 
HETATM   14  H   UNL     1      -5.194   7.307  72.017  1.00  0.00     0.000 HD 
HETATM   15  C   UNL     1      -7.025   8.224  72.327  1.00  0.00    -0.093 C  
HETATM   16  C   UNL     1      -5.547   6.380  69.304  1.00  0.00    -0.013 C  
HETATM   17  C   UNL     1      -6.074   7.557  70.166  1.00  0.00    -0.027 C  
HETATM   18  N   UNL     1      -6.129   7.298  71.610  1.00  0.00    -0.037 NA 
ENDBRANCH   1   2
BRANCH   1  19
HETATM   19  C   UNL     1     -10.492   7.971  69.239  1.00  0.00    -0.221 A  
HETATM   20  C   UNL     1     -10.398   7.860  67.863  1.00  0.00    -0.281 A  
HETATM   21  C   UNL     1     -10.407   9.026  67.140  1.00  0.00    -0.342 A  
HETATM   22  C   UNL     1     -11.016   9.098  69.852  1.00  0.00    -0.218 A  
HETATM   23  C   UNL     1     -10.807  10.217  67.743  1.00  0.00    -0.346 A  
HETATM   24  C   UNL     1     -11.100  10.260  69.116  1.00  0.00    -0.283 A  
BRANCH  23  25
HETATM   25  C   UNL     1     -10.943  11.475  66.968  1.00  0.00    -0.294 C  
BRANCH  25  26
HETATM   26  N   UNL     1     -10.677  12.727  67.654  1.00  0.00    -0.217 NA 
HETATM   27  C   UNL     1      -7.043  10.219  65.020  1.00  0.00    -0.111 C  
HETATM   28  H   UNL     1      -7.728   9.726  66.924  1.00  0.00     0.000 HD 
HETATM   29  N   UNL     1      -7.121  10.415  66.482  1.00  0.00    -0.107 NA 
HETATM   30  C   UNL     1      -8.419  10.006  64.338  1.00  0.00    -0.173 C  
HETATM   31  C   UNL     1      -7.534  11.792  66.799  1.00  0.00    -0.057 C  
HETATM   32  C   UNL     1      -9.335  12.930  68.263  1.00  0.00    -0.194 C  
HETATM   33  N   UNL     1      -8.818  11.100  63.450  1.00  0.00    -0.418 NA 
HETATM   34  H   UNL     1      -8.257  11.098  62.598  1.00  0.00     0.000 HD 
HETATM   35  C   UNL     1      -8.169  11.901  68.184  1.00  0.00    -0.158 C  
HETATM   36  C   UNL     1     -10.254  11.096  63.132  1.00  0.00    -0.294 C  
HETATM   37  C   UNL     1     -10.859  12.460  63.511  1.00  0.00    -0.487 C  
HETATM   38  C   UNL     1     -12.277  12.373  64.094  1.00  0.00    -0.468 C  
HETATM   39  N   UNL     1     -12.703  13.639  64.711  1.00  0.00    -0.680 NA 
HETATM   40  C   UNL     1     -12.531  13.777  66.178  1.00  0.00    -0.418 C  
HETATM   41  H   UNL     1     -13.102  14.393  64.152  1.00  0.00     0.000 HD 
HETATM   42  C   UNL     1     -11.090  13.861  66.792  1.00  0.00    -0.303 C  
ENDBRANCH  25  26
ENDBRANCH  23  25
ENDBRANCH   1  19
TORSDOF 4
ENDMDL
MODEL        4
REMARK 921   NORMALIZED FREE ENERGY PREDICTED BY IDOCK:   -6.29 KCAL/MOL
REMARK 922        TOTAL FREE ENERGY PREDICTED BY IDOCK:   -9.34 KCAL/MOL
REMARK 923 INTER-LIGAND FREE ENERGY PREDICTED BY IDOCK:   -8.01 KCAL/MOL
REMARK 924 INTRA-LIGAND FREE ENERGY PREDICTED BY IDOCK:   -1.33 KCAL/MOL
REMARK 927      BINDING AFFINITY PREDICTED BY RF-SCORE:    0.00 PKD
ROOT
HETATM    1  C   UNL     1     -10.199  10.834  66.261  1.00  0.00    -0.245 C  
ENDROOT
BRANCH   1   2
HETATM    2  N   UNL     1      -9.436  10.517  65.069  1.00  0.00    -0.221 NA 
HETATM    3  C   UNL     1      -8.065  11.055  65.222  1.00  0.00     0.158 C  
HETATM    4  C   UNL     1      -7.338  10.658  66.554  1.00  0.00    -0.134 C  
HETATM    5  C   UNL     1     -10.033  10.852  63.743  1.00  0.00    -0.351 C  
HETATM    6  C   UNL     1     -11.450  11.468  63.526  1.00  0.00    -0.334 C  
HETATM    7  H   UNL     1      -6.025  12.002  67.687  1.00  0.00     0.000 HD 
HETATM    8  C   UNL     1     -11.591  12.938  63.927  1.00  0.00    -0.453 C  
HETATM    9  N   UNL     1      -6.993  11.711  67.542  1.00  0.00    -0.095 NA 
HETATM   10  C   UNL     1      -8.095  12.325  68.307  1.00  0.00    -0.166 C  
HETATM   11  N   UNL     1     -12.837  13.208  64.663  1.00  0.00    -0.720 NA 
HETATM   12  C   UNL     1      -8.625  13.609  67.650  1.00  0.00    -0.185 C  
HETATM   13  H   UNL     1     -13.138  12.393  65.198  1.00  0.00     0.000 HD 
HETATM   14  H   UNL     1     -10.828  15.737  67.259  1.00  0.00     0.000 HD 
HETATM   15  C   UNL     1      -9.979  14.098  68.199  1.00  0.00    -0.232 C  
HETATM   16  C   UNL     1     -12.711  14.402  65.523  1.00  0.00    -0.293 C  
HETATM   17  C   UNL     1     -12.061  14.120  66.903  1.00  0.00    -0.432 C  
HETATM   18  N   UNL     1     -10.743  14.732  67.109  1.00  0.00    -0.293 NA 
ENDBRANCH   1   2
BRANCH   1  19
HETATM   19  C   UNL     1     -10.449   9.742  67.249  1.00  0.00    -0.324 A  
HETATM   20  C   UNL     1     -10.759  10.039  68.565  1.00  0.00    -0.264 A  
HETATM   21  C   UNL     1     -10.371   9.133  69.518  1.00  0.00    -0.220 A  
HETATM   22  C   UNL     1     -10.186   8.447  66.831  1.00  0.00    -0.383 A  
HETATM   23  C   UNL     1      -9.977   7.851  69.142  1.00  0.00    -0.184 A  
HETATM   24  C   UNL     1      -9.867   7.506  67.785  1.00  0.00    -0.191 A  
BRANCH  23  25
HETATM   25  C   UNL     1      -9.663   6.805  70.147  1.00  0.00    -0.167 C  
BRANCH  25  26
HETATM   26  N   UNL     1     -10.439   5.578  70.116  1.00  0.00    -0.285 NA 
HETATM   27  C   UNL     1      -5.412   5.615  71.195  1.00  0.00    -0.012 C  
HETATM   28  H   UNL     1      -6.253   5.783  69.297  1.00  0.00     0.000 HD 
HETATM   29  N   UNL     1      -6.070   5.062  69.995  1.00  0.00    -0.021 NA 
HETATM   30  C   UNL     1      -6.069   6.913  71.733  1.00  0.00    -0.038 C  
HETATM   31  C   UNL     1      -7.296   4.335  70.363  1.00  0.00    -0.045 C  
HETATM   32  C   UNL     1      -9.777   4.333  69.638  1.00  0.00    -0.214 C  
HETATM   33  N   UNL     1      -6.717   6.755  73.037  1.00  0.00    -0.067 NA 
HETATM   34  H   UNL     1      -6.023   6.653  73.777  1.00  0.00     0.000 HD 
HETATM   35  C   UNL     1      -8.285   4.243  69.203  1.00  0.00    -0.077 C  
HETATM   36  C   UNL     1      -7.662   7.838  73.350  1.00  0.00    -0.130 C  
HETATM   37  C   UNL     1      -9.041   7.230  73.663  1.00  0.00    -0.247 C  
HETATM   38  C   UNL     1     -10.222   8.060  73.140  1.00  0.00    -0.217 C  
HETATM   39  N   UNL     1     -11.491   7.316  73.192  1.00  0.00    -0.580 NA 
HETATM   40  C   UNL     1     -11.933   6.630  71.953  1.00  0.00    -0.341 C  
HETATM   41  H   UNL     1     -12.046   7.274  74.046  1.00  0.00     0.000 HD 
HETATM   42  C   UNL     1     -11.129   5.394  71.414  1.00  0.00    -0.006 C  
ENDBRANCH  25  26
ENDBRANCH  23  25
ENDBRANCH   1  19
TORSDOF 4
ENDMDL
MODEL        5
REMARK 921   NORMALIZED FREE ENERGY PREDICTED BY IDOCK:   -6.28 KCAL/MOL
REMARK 922        TOTAL FREE ENERGY PREDICTED BY IDOCK:   -9.33 KCAL/MOL
REMARK 923 INTER-LIGAND FREE ENERGY PREDICTED BY IDOCK:   -8.36 KCAL/MOL
REMARK 924 INTRA-LIGAND FREE ENERGY PREDICTED BY IDOCK:   -0.97 KCAL/MOL
REMARK 927      BINDING AFFINITY PREDICTED BY RF-SCORE:    0.00 PKD
ROOT
HETATM    1  C   UNL     1     -11.163  11.885  66.804  1.00  0.00    -0.327 C  
ENDROOT
BRANCH   1   2
HETATM    2  N   UNL     1     -11.078  13.258  67.262  1.00  0.00    -0.272 NA 
HETATM    3  C   UNL     1     -11.430  14.158  66.140  1.00  0.00    -0.347 C  
HETATM    4  C   UNL     1     -12.780  13.823  65.415  1.00  0.00    -0.472 C  
HETATM    5  C   UNL     1      -9.834  13.688  67.966  1.00  0.00    -0.244 C  
HETATM    6  C   UNL     1      -8.628  12.760  68.308  1.00  0.00    -0.166 C  
HETATM    7  H   UNL     1     -13.091  13.998  63.251  1.00  0.00     0.000 HD 
HETATM    8  C   UNL     1      -7.769  12.339  67.112  1.00  0.00    -0.134 C  
HETATM    9  N   UNL     1     -12.760  13.385  63.997  1.00  0.00    -0.659 NA 
HETATM   10  C   UNL     1     -12.246  12.035  63.700  1.00  0.00    -0.538 C  
HETATM   11  N   UNL     1      -7.409  10.912  67.148  1.00  0.00    -0.099 NA 
HETATM   12  C   UNL     1     -10.749  12.037  63.353  1.00  0.00    -0.475 C  
HETATM   13  H   UNL     1      -8.127  10.357  67.615  1.00  0.00     0.000 HD 
HETATM   14  H   UNL     1      -8.038  10.589  63.065  1.00  0.00     0.000 HD 
HETATM   15  C   UNL     1     -10.085  10.647  63.374  1.00  0.00    -0.202 C  
HETATM   16  C   UNL     1      -7.120  10.392  65.796  1.00  0.00    -0.139 C  
HETATM   17  C   UNL     1      -8.381   9.963  65.001  1.00  0.00    -0.148 C  
HETATM   18  N   UNL     1      -8.687  10.785  63.825  1.00  0.00    -0.129 NA 
ENDBRANCH   1   2
BRANCH   1  19
HETATM   19  C   UNL     1     -11.131  10.798  67.829  1.00  0.00    -0.381 A  
HETATM   20  C   UNL     1     -11.435  11.067  69.152  1.00  0.00    -0.370 A  
HETATM   21  C   UNL     1     -10.821  10.293  70.104  1.00  0.00    -0.362 A  
HETATM   22  C   UNL     1     -10.622   9.573  67.426  1.00  0.00    -0.337 A  
HETATM   23  C   UNL     1     -10.184   9.110  69.736  1.00  0.00    -0.219 A  
HETATM   24  C   UNL     1     -10.067   8.751  68.383  1.00  0.00    -0.217 A  
BRANCH  23  25
HETATM   25  C   UNL     1      -9.611   8.187  70.746  1.00  0.00    -0.166 C  
BRANCH  25  26
HETATM   26  N   UNL     1      -9.038   8.766  71.948  1.00  0.00    -0.331 NA 
HETATM   27  C   UNL     1     -10.114   3.753  71.566  1.00  0.00    -0.056 C  
HETATM   28  H   UNL     1     -11.495   5.274  71.912  1.00  0.00     0.000 HD 
HETATM   29  N   UNL     1     -10.782   4.753  72.423  1.00  0.00    -0.184 NA 
HETATM   30  C   UNL     1      -9.679   4.298  70.181  1.00  0.00    -0.212 C  
HETATM   31  C   UNL     1      -9.792   5.649  73.043  1.00  0.00    -0.167 C  
HETATM   32  C   UNL     1      -9.434   8.199  73.266  1.00  0.00    -0.220 C  
HETATM   33  N   UNL     1      -8.227   4.370  70.001  1.00  0.00    -0.062 NA 
HETATM   34  H   UNL     1      -7.828   3.438  69.896  1.00  0.00     0.000 HD 
HETATM   35  C   UNL     1     -10.399   6.991  73.448  1.00  0.00    -0.370 C  
HETATM   36  C   UNL     1      -7.824   5.241  68.885  1.00  0.00    -0.083 C  
HETATM   37  C   UNL     1      -6.849   6.312  69.408  1.00  0.00    -0.065 C  
HETATM   38  C   UNL     1      -7.031   7.691  68.759  1.00  0.00    -0.071 C  
HETATM   39  N   UNL     1      -6.301   8.746  69.479  1.00  0.00    -0.043 NA 
HETATM   40  C   UNL     1      -7.057   9.548  70.471  1.00  0.00    -0.127 C  
HETATM   41  H   UNL     1      -5.311   8.920  69.303  1.00  0.00     0.000 HD 
HETATM   42  C   UNL     1      -7.568   8.876  71.794  1.00  0.00     0.031 C  
ENDBRANCH  25  26
ENDBRANCH  23  25
ENDBRANCH   1  19
TORSDOF 4
ENDMDL
MODEL        6
REMARK 921   NORMALIZED FREE ENERGY PREDICTED BY IDOCK:   -6.11 KCAL/MOL
REMARK 922        TOTAL FREE ENERGY PREDICTED BY IDOCK:   -9.12 KCAL/MOL
REMARK 923 INTER-LIGAND FREE ENERGY PREDICTED BY IDOCK:   -8.42 KCAL/MOL
REMARK 924 INTRA-LIGAND FREE ENERGY PREDICTED BY IDOCK:   -0.70 KCAL/MOL
REMARK 927      BINDING AFFINITY PREDICTED BY RF-SCORE:    0.00 PKD
ROOT
HETATM    1  C   UNL     1      -9.613   7.995  70.804  1.00  0.00    -0.162 C  
ENDROOT
BRANCH   1   2
HETATM    2  N   UNL     1      -9.100   8.692  71.967  1.00  0.00    -0.277 NA 
HETATM    3  C   UNL     1      -7.638   8.866  71.814  1.00  0.00     0.031 C  
HETATM    4  C   UNL     1      -7.181   9.499  70.454  1.00  0.00    -0.127 C  
HETATM    5  C   UNL     1      -9.473   8.175  73.316  1.00  0.00    -0.220 C  
HETATM    6  C   UNL     1     -10.425   6.969  73.585  1.00  0.00    -0.414 C  
HETATM    7  H   UNL     1      -5.380   8.893  69.358  1.00  0.00     0.000 HD 
HETATM    8  C   UNL     1      -9.846   5.592  73.251  1.00  0.00    -0.168 C  
HETATM    9  N   UNL     1      -6.370   8.693  69.507  1.00  0.00    -0.039 NA 
HETATM   10  C   UNL     1      -7.041   7.594  68.789  1.00  0.00    -0.080 C  
HETATM   11  N   UNL     1     -10.808   4.727  72.549  1.00  0.00    -0.177 NA 
HETATM   12  C   UNL     1      -6.898   6.244  69.510  1.00  0.00    -0.065 C  
HETATM   13  H   UNL     1     -11.458   5.274  71.984  1.00  0.00     0.000 HD 
HETATM   14  H   UNL     1      -7.822   3.345  70.030  1.00  0.00     0.000 HD 
HETATM   15  C   UNL     1      -7.852   5.144  69.005  1.00  0.00    -0.081 C  
HETATM   16  C   UNL     1     -10.123   3.699  71.740  1.00  0.00    -0.090 C  
HETATM   17  C   UNL     1      -9.679   4.192  70.337  1.00  0.00    -0.201 C  
HETATM   18  N   UNL     1      -8.228   4.274  70.135  1.00  0.00    -0.058 NA 
ENDBRANCH   1   2
BRANCH   1  19
HETATM   19  C   UNL     1     -10.329   8.792  69.763  1.00  0.00    -0.214 A  
HETATM   20  C   UNL     1     -10.220   8.462  68.423  1.00  0.00    -0.239 A  
HETATM   21  C   UNL     1     -10.325   9.486  67.517  1.00  0.00    -0.306 A  
HETATM   22  C   UNL     1     -10.951   9.956  70.185  1.00  0.00    -0.356 A  
HETATM   23  C   UNL     1     -10.830  10.722  67.918  1.00  0.00    -0.313 A  
HETATM   24  C   UNL     1     -11.132  10.967  69.267  1.00  0.00    -0.312 A  
BRANCH  23  25
HETATM   25  C   UNL     1     -11.071  11.817  66.946  1.00  0.00    -0.307 C  
BRANCH  25  26
HETATM   26  N   UNL     1     -10.950  13.185  67.420  1.00  0.00    -0.259 NA 
HETATM   27  C   UNL     1      -6.941  10.574  65.538  1.00  0.00    -0.100 C  
HETATM   28  H   UNL     1      -7.754  10.354  67.444  1.00  0.00     0.000 HD 
HETATM   29  N   UNL     1      -7.158  11.006  66.933  1.00  0.00    -0.117 NA 
HETATM   30  C   UNL     1      -8.237  10.138  64.805  1.00  0.00    -0.161 C  
HETATM   31  C   UNL     1      -7.690  12.378  66.975  1.00  0.00    -0.063 C  
HETATM   32  C   UNL     1      -9.683  13.596  68.082  1.00  0.00    -0.229 C  
HETATM   33  N   UNL     1      -8.630  11.030  63.713  1.00  0.00    -0.377 NA 
HETATM   34  H   UNL     1      -8.000  10.931  62.918  1.00  0.00     0.000 HD 
HETATM   35  C   UNL     1      -8.448  12.667  68.269  1.00  0.00    -0.163 C  
HETATM   36  C   UNL     1     -10.031  10.855  63.296  1.00  0.00    -0.349 C  
HETATM   37  C   UNL     1     -10.757  12.210  63.386  1.00  0.00    -0.461 C  
HETATM   38  C   UNL     1     -12.210  12.107  63.870  1.00  0.00    -0.489 C  
HETATM   39  N   UNL     1     -12.773  13.420  64.224  1.00  0.00    -0.656 NA 
HETATM   40  C   UNL     1     -12.738  13.817  65.653  1.00  0.00    -0.478 C  
HETATM   41  H   UNL     1     -13.172  14.034  63.514  1.00  0.00     0.000 HD 
HETATM   42  C   UNL     1     -11.363  14.120  66.347  1.00  0.00    -0.338 C  
ENDBRANCH  25  26
ENDBRANCH  23  25
ENDBRANCH   1  19
TORSDOF 4
ENDMDL
MODEL        7
REMARK 921   NORMALIZED FREE ENERGY PREDICTED BY IDOCK:   -6.10 KCAL/MOL
REMARK 922        TOTAL FREE ENERGY PREDICTED BY IDOCK:   -9.11 KCAL/MOL
REMARK 923 INTER-LIGAND FREE ENERGY PREDICTED BY IDOCK:   -7.76 KCAL/MOL
REMARK 924 INTRA-LIGAND FREE ENERGY PREDICTED BY IDOCK:   -1.35 KCAL/MOL
REMARK 927      BINDING AFFINITY PREDICTED BY RF-SCORE:    0.00 PKD
ROOT
HETATM    1  C   UNL     1      -9.791   6.797  69.905  1.00  0.00    -0.164 C  
ENDROOT
BRANCH   1   2
HETATM    2  N   UNL     1     -10.500   5.547  70.101  1.00  0.00    -0.285 NA 
HETATM    3  C   UNL     1     -10.889   5.437  71.525  1.00  0.00    -0.148 C  
HETATM    4  C   UNL     1     -11.644   6.682  72.108  1.00  0.00    -0.298 C  
HETATM    5  C   UNL     1      -9.871   4.295  69.586  1.00  0.00    -0.174 C  
HETATM    6  C   UNL     1      -8.530   4.224  68.793  1.00  0.00    -0.096 C  
HETATM    7  H   UNL     1     -11.356   7.457  74.139  1.00  0.00     0.000 HD 
HETATM    8  C   UNL     1      -7.268   4.480  69.621  1.00  0.00    -0.051 C  
HETATM    9  N   UNL     1     -11.009   7.488  73.180  1.00  0.00    -0.392 NA 
HETATM   10  C   UNL     1      -9.859   8.337  72.813  1.00  0.00    -0.263 C  
HETATM   11  N   UNL     1      -6.307   5.358  68.934  1.00  0.00    -0.033 NA 
HETATM   12  C   UNL     1      -8.512   7.630  73.032  1.00  0.00    -0.191 C  
HETATM   13  H   UNL     1      -6.780   6.017  68.315  1.00  0.00     0.000 HD 
HETATM   14  H   UNL     1      -5.489   7.341  72.479  1.00  0.00     0.000 HD 
HETATM   15  C   UNL     1      -7.311   8.318  72.355  1.00  0.00    -0.110 C  
HETATM   16  C   UNL     1      -5.427   6.056  69.893  1.00  0.00    -0.013 C  
HETATM   17  C   UNL     1      -6.045   7.348  70.491  1.00  0.00    -0.031 C  
HETATM   18  N   UNL     1      -6.344   7.290  71.926  1.00  0.00    -0.040 NA 
ENDBRANCH   1   2
BRANCH   1  19
HETATM   19  C   UNL     1     -10.291   7.734  68.855  1.00  0.00    -0.224 A  
HETATM   20  C   UNL     1     -10.274   7.370  67.519  1.00  0.00    -0.289 A  
HETATM   21  C   UNL     1     -10.127   8.377  66.600  1.00  0.00    -0.358 A  
HETATM   22  C   UNL     1     -10.602   9.021  69.262  1.00  0.00    -0.226 A  
HETATM   23  C   UNL     1     -10.306   9.704  66.984  1.00  0.00    -0.315 A  
HETATM   24  C   UNL     1     -10.531  10.034  68.331  1.00  0.00    -0.235 A  
BRANCH  23  25
HETATM   25  C   UNL     1     -10.272  10.813  65.998  1.00  0.00    -0.251 C  
BRANCH  25  26
HETATM   26  N   UNL     1      -9.683  10.547  64.698  1.00  0.00    -0.281 NA 
HETATM   27  C   UNL     1     -12.746  14.589  65.545  1.00  0.00    -0.180 C  
HETATM   28  H   UNL     1     -13.371  12.620  65.276  1.00  0.00     0.000 HD 
HETATM   29  N   UNL     1     -13.032  13.402  64.715  1.00  0.00    -0.701 NA 
HETATM   30  C   UNL     1     -11.926  14.280  66.825  1.00  0.00    -0.436 C  
HETATM   31  C   UNL     1     -11.853  13.030  63.917  1.00  0.00    -0.477 C  
HETATM   32  C   UNL     1     -10.468  10.891  63.481  1.00  0.00    -0.199 C  
HETATM   33  N   UNL     1     -10.576  14.846  66.817  1.00  0.00    -0.298 NA 
HETATM   34  H   UNL     1     -10.606  15.859  66.932  1.00  0.00     0.000 HD 
HETATM   35  C   UNL     1     -11.874  11.560  63.503  1.00  0.00    -0.213 C  
HETATM   36  C   UNL     1      -9.683  14.233  67.812  1.00  0.00    -0.222 C  
HETATM   37  C   UNL     1      -8.427  13.696  67.100  1.00  0.00    -0.186 C  
HETATM   38  C   UNL     1      -7.903  12.371  67.674  1.00  0.00    -0.163 C  
HETATM   39  N   UNL     1      -6.901  11.744  66.799  1.00  0.00    -0.326 NA 
HETATM   40  C   UNL     1      -7.371  10.698  65.859  1.00  0.00    -0.128 C  
HETATM   41  H   UNL     1      -5.919  12.018  66.837  1.00  0.00     0.000 HD 
HETATM   42  C   UNL     1      -8.304  11.087  64.658  1.00  0.00     0.234 C  
ENDBRANCH  25  26
ENDBRANCH  23  25
ENDBRANCH   1  19
TORSDOF 4
ENDMDL
MODEL        8
REMARK 921   NORMALIZED FREE ENERGY PREDICTED BY IDOCK:   -6.00 KCAL/MOL
REMARK 922        TOTAL FREE ENERGY PREDICTED BY IDOCK:   -8.98 KCAL/MOL
REMARK 923 INTER-LIGAND FREE ENERGY PREDICTED BY IDOCK:   -7.59 KCAL/MOL
REMARK 924 INTRA-LIGAND FREE ENERGY PREDICTED BY IDOCK:   -1.39 KCAL/MOL
REMARK 927      BINDING AFFINITY PREDICTED BY RF-SCORE:    0.00 PKD
ROOT
HETATM    1  C   UNL     1      -9.751   7.353  71.445  1.00  0.00    -0.167 C  
ENDROOT
BRANCH   1   2
HETATM    2  N   UNL     1     -11.044   6.696  71.461  1.00  0.00    -0.246 NA 
HETATM    3  C   UNL     1     -11.021   5.619  72.476  1.00  0.00    -0.264 C  
HETATM    4  C   UNL     1     -10.525   6.056  73.899  1.00  0.00    -0.272 C  
HETATM    5  C   UNL     1     -11.613   6.237  70.160  1.00  0.00    -0.315 C  
HETATM    6  C   UNL     1     -10.956   6.459  68.763  1.00  0.00    -0.404 C  
HETATM    7  H   UNL     1      -9.278   4.809  75.203  1.00  0.00     0.000 HD 
HETATM    8  C   UNL     1      -9.714   5.609  68.483  1.00  0.00    -0.136 C  
HETATM    9  N   UNL     1      -9.265   5.488  74.441  1.00  0.00    -0.122 NA 
HETATM   10  C   UNL     1      -7.994   5.937  73.842  1.00  0.00    -0.102 C  
HETATM   11  N   UNL     1      -8.632   6.378  67.847  1.00  0.00    -0.117 NA 
HETATM   12  C   UNL     1      -7.514   5.009  72.715  1.00  0.00    -0.095 C  
HETATM   13  H   UNL     1      -8.656   7.358  68.128  1.00  0.00     0.000 HD 
HETATM   14  H   UNL     1      -5.806   4.468  70.201  1.00  0.00     0.000 HD 
HETATM   15  C   UNL     1      -6.398   5.600  71.831  1.00  0.00    -0.048 C  
HETATM   16  C   UNL     1      -7.310   5.773  68.108  1.00  0.00    -0.077 C  
HETATM   17  C   UNL     1      -6.684   6.186  69.467  1.00  0.00    -0.052 C  
HETATM   18  N   UNL     1      -6.562   5.105  70.451  1.00  0.00    -0.034 NA 
ENDBRANCH   1   2
BRANCH   1  19
HETATM   19  C   UNL     1      -9.676   8.749  70.919  1.00  0.00    -0.277 A  
HETATM   20  C   UNL     1     -10.806   9.546  70.872  1.00  0.00    -0.407 A  
HETATM   21  C   UNL     1     -10.864  10.489  69.877  1.00  0.00    -0.334 A  
HETATM   22  C   UNL     1      -8.481   9.132  70.333  1.00  0.00    -0.222 A  
HETATM   23  C   UNL     1      -9.713  10.825  69.168  1.00  0.00    -0.181 A  
HETATM   24  C   UNL     1      -8.512  10.131  69.384  1.00  0.00    -0.179 A  
BRANCH  23  25
HETATM   25  C   UNL     1      -9.707  11.921  68.167  1.00  0.00    -0.194 C  
BRANCH  25  26
HETATM   26  N   UNL     1     -10.213  11.630  66.838  1.00  0.00    -0.211 NA 
HETATM   27  C   UNL     1     -10.775  16.245  69.034  1.00  0.00    -0.300 C  
HETATM   28  H   UNL     1     -11.906  14.548  69.456  1.00  0.00     0.000 HD 
HETATM   29  N   UNL     1     -11.831  15.259  68.729  1.00  0.00    -0.332 NA 
HETATM   30  C   UNL     1      -9.434  15.612  69.489  1.00  0.00    -0.275 C  
HETATM   31  C   UNL     1     -11.617  14.662  67.401  1.00  0.00    -0.389 C  
HETATM   32  C   UNL     1     -11.478  12.282  66.402  1.00  0.00    -0.378 C  
HETATM   33  N   UNL     1      -8.336  15.796  68.538  1.00  0.00    -0.167 NA 
HETATM   34  H   UNL     1      -8.019  16.765  68.534  1.00  0.00     0.000 HD 
HETATM   35  C   UNL     1     -12.286  13.296  67.265  1.00  0.00    -0.258 C  
HETATM   36  C   UNL     1      -7.210  14.877  68.766  1.00  0.00    -0.123 C  
HETATM   37  C   UNL     1      -6.927  14.094  67.471  1.00  0.00    -0.173 C  
HETATM   38  C   UNL     1      -6.525  12.631  67.703  1.00  0.00    -0.146 C  
HETATM   39  N   UNL     1      -6.552  11.843  66.461  1.00  0.00    -0.374 NA 
HETATM   40  C   UNL     1      -7.774  11.051  66.179  1.00  0.00    -0.102 C  
HETATM   41  H   UNL     1      -5.760  11.840  65.818  1.00  0.00     0.000 HD 
HETATM   42  C   UNL     1      -9.122  11.785  65.847  1.00  0.00    -0.124 C  
ENDBRANCH  25  26
ENDBRANCH  23  25
ENDBRANCH   1  19
TORSDOF 4
ENDMDL
MODEL        9
REMARK 921   NORMALIZED FREE ENERGY PREDICTED BY IDOCK:   -5.81 KCAL/MOL
REMARK 922        TOTAL FREE ENERGY PREDICTED BY IDOCK:   -8.75 KCAL/MOL
REMARK 923 INTER-LIGAND FREE ENERGY PREDICTED BY IDOCK:   -7.31 KCAL/MOL
REMARK 924 INTRA-LIGAND FREE ENERGY PREDICTED BY IDOCK:   -1.44 KCAL/MOL
REMARK 927      BINDING AFFINITY PREDICTED BY RF-SCORE:    0.00 PKD
ROOT
HETATM    1  C   UNL     1      -8.784  10.250  65.956  1.00  0.00    -0.150 C  
ENDROOT
BRANCH   1   2
HETATM    2  N   UNL     1      -7.577  10.057  65.175  1.00  0.00    -0.133 NA 
HETATM    3  C   UNL     1      -6.577  11.069  65.582  1.00  0.00     0.135 C  
HETATM    4  C   UNL     1      -6.314  11.162  67.126  1.00  0.00    -0.083 C  
HETATM    5  C   UNL     1      -7.710   9.955  63.692  1.00  0.00    -0.141 C  
HETATM    6  C   UNL     1      -9.058   9.979  62.906  1.00  0.00    -0.301 C  
HETATM    7  H   UNL     1      -5.958  13.040  68.202  1.00  0.00     0.000 HD 
HETATM    8  C   UNL     1      -9.752  11.342  62.844  1.00  0.00    -0.317 C  
HETATM    9  N   UNL     1      -6.676  12.402  67.857  1.00  0.00    -0.087 NA 
HETATM   10  C   UNL     1      -8.109  12.683  68.067  1.00  0.00    -0.161 C  
HETATM   11  N   UNL     1     -11.203  11.251  63.075  1.00  0.00    -0.835 NA 
HETATM   12  C   UNL     1      -8.702  13.578  66.967  1.00  0.00    -0.197 C  
HETATM   13  H   UNL     1     -11.434  10.471  63.691  1.00  0.00     0.000 HD 
HETATM   14  H   UNL     1     -11.113  14.687  65.390  1.00  0.00     0.000 HD 
HETATM   15  C   UNL     1     -10.242  13.622  66.938  1.00  0.00    -0.261 C  
HETATM   16  C   UNL     1     -11.752  12.523  63.586  1.00  0.00    -0.515 C  
HETATM   17  C   UNL     1     -11.608  12.701  65.121  1.00  0.00    -0.348 C  
HETATM   18  N   UNL     1     -10.695  13.769  65.542  1.00  0.00    -0.293 NA 
ENDBRANCH   1   2
BRANCH   1  19
HETATM   19  C   UNL     1      -9.235   9.136  66.843  1.00  0.00    -0.183 A  
HETATM   20  C   UNL     1     -10.338   9.291  67.665  1.00  0.00    -0.311 A  
HETATM   21  C   UNL     1     -10.347   8.584  68.839  1.00  0.00    -0.226 A  
HETATM   22  C   UNL     1      -8.405   8.029  66.928  1.00  0.00    -0.116 A  
HETATM   23  C   UNL     1      -9.448   7.536  69.029  1.00  0.00    -0.145 A  
HETATM   24  C   UNL     1      -8.456   7.264  68.073  1.00  0.00    -0.123 A  
BRANCH  23  25
HETATM   25  C   UNL     1      -9.502   6.671  70.233  1.00  0.00    -0.162 C  
BRANCH  25  26
HETATM   26  N   UNL     1     -10.340   5.486  70.182  1.00  0.00    -0.260 NA 
HETATM   27  C   UNL     1      -5.624   5.419  72.229  1.00  0.00    -0.017 C  
HETATM   28  H   UNL     1      -6.071   5.396  70.194  1.00  0.00     0.000 HD 
HETATM   29  N   UNL     1      -6.076   4.756  70.989  1.00  0.00    -0.017 NA 
HETATM   30  C   UNL     1      -6.281   6.801  72.480  1.00  0.00    -0.049 C  
HETATM   31  C   UNL     1      -7.397   4.137  71.183  1.00  0.00    -0.044 C  
HETATM   32  C   UNL     1      -9.687   4.164  69.984  1.00  0.00    -0.212 C  
HETATM   33  N   UNL     1      -7.176   6.832  73.639  1.00  0.00    -0.079 NA 
HETATM   34  H   UNL     1      -6.646   6.788  74.508  1.00  0.00     0.000 HD 
HETATM   35  C   UNL     1      -8.149   3.952  69.866  1.00  0.00    -0.061 C  
HETATM   36  C   UNL     1      -8.087   7.988  73.638  1.00  0.00    -0.208 C  
HETATM   37  C   UNL     1      -9.539   7.486  73.735  1.00  0.00    -0.321 C  
HETATM   38  C   UNL     1     -10.537   8.301  72.901  1.00  0.00    -0.147 C  
HETATM   39  N   UNL     1     -11.840   7.629  72.779  1.00  0.00    -0.593 NA 
HETATM   40  C   UNL     1     -12.083   6.820  71.560  1.00  0.00    -0.363 C  
HETATM   41  H   UNL     1     -12.551   7.716  73.506  1.00  0.00     0.000 HD 
HETATM   42  C   UNL     1     -11.278   5.493  71.329  1.00  0.00     0.015 C  
ENDBRANCH  25  26
ENDBRANCH  23  25
ENDBRANCH   1  19
TORSDOF 4
ENDMDL
MODEL       10
REMARK 921   NORMALIZED FREE ENERGY PREDICTED BY IDOCK:   -5.78 KCAL/MOL
REMARK 922        TOTAL FREE ENERGY PREDICTED BY IDOCK:   -8.71 KCAL/MOL
REMARK 923 INTER-LIGAND FREE ENERGY PREDICTED BY IDOCK:   -7.62 KCAL/MOL
REMARK 924 INTRA-LIGAND FREE ENERGY PREDICTED BY IDOCK:   -1.09 KCAL/MOL
REMARK 927      BINDING AFFINITY PREDICTED BY RF-SCORE:    0.00 PKD
ROOT
HETATM    1  C   UNL     1      -9.968   7.818  71.175  1.00  0.00    -0.176 C  
ENDROOT
BRANCH   1   2
HETATM    2  N   UNL     1     -11.225   7.113  71.332  1.00  0.00    -0.246 NA 
HETATM    3  C   UNL     1     -11.145   6.255  72.536  1.00  0.00    -0.272 C  
HETATM    4  C   UNL     1     -10.669   6.982  73.841  1.00  0.00    -0.047 C  
HETATM    5  C   UNL     1     -11.773   6.384  70.150  1.00  0.00    -0.303 C  
HETATM    6  C   UNL     1     -11.131   6.364  68.729  1.00  0.00    -0.404 C  
HETATM    7  H   UNL     1      -9.357   6.075  75.347  1.00  0.00     0.000 HD 
HETATM    8  C   UNL     1      -9.848   5.539  68.604  1.00  0.00    -0.148 C  
HETATM    9  N   UNL     1      -9.381   6.593  74.468  1.00  0.00    -0.218 NA 
HETATM   10  C   UNL     1      -8.136   6.981  73.778  1.00  0.00    -0.118 C  
HETATM   11  N   UNL     1      -8.808   6.224  67.818  1.00  0.00    -0.113 NA 
HETATM   12  C   UNL     1      -7.611   5.878  72.845  1.00  0.00    -0.099 C  
HETATM   13  H   UNL     1      -8.881   7.237  67.906  1.00  0.00     0.000 HD 
HETATM   14  H   UNL     1      -5.883   4.947  70.462  1.00  0.00     0.000 HD 
HETATM   15  C   UNL     1      -6.529   6.341  71.851  1.00  0.00    -0.050 C  
HETATM   16  C   UNL     1      -7.456   5.747  68.175  1.00  0.00    -0.078 C  
HETATM   17  C   UNL     1      -6.850   6.445  69.421  1.00  0.00    -0.065 C  
HETATM   18  N   UNL     1      -6.670   5.582  70.594  1.00  0.00    -0.045 NA 
ENDBRANCH   1   2
BRANCH   1  19
HETATM   19  C   UNL     1      -9.984   9.142  70.484  1.00  0.00    -0.288 A  
HETATM   20  C   UNL     1     -11.090   9.969  70.568  1.00  0.00    -0.400 A  
HETATM   21  C   UNL     1     -11.337  10.794  69.502  1.00  0.00    -0.355 A  
HETATM   22  C   UNL     1      -8.927   9.414  69.630  1.00  0.00    -0.181 A  
HETATM   23  C   UNL     1     -10.349  11.008  68.543  1.00  0.00    -0.204 A  
HETATM   24  C   UNL     1      -9.137  10.300  68.595  1.00  0.00    -0.152 A  
BRANCH  23  25
HETATM   25  C   UNL     1     -10.531  11.983  67.439  1.00  0.00    -0.216 C  
BRANCH  25  26
HETATM   26  N   UNL     1     -10.481  13.397  67.766  1.00  0.00    -0.239 NA 
HETATM   27  C   UNL     1      -6.505  10.937  65.627  1.00  0.00     0.023 C  
HETATM   28  H   UNL     1      -7.057  10.849  67.634  1.00  0.00     0.000 HD 
HETATM   29  N   UNL     1      -6.591  11.491  66.993  1.00  0.00    -0.126 NA 
HETATM   30  C   UNL     1      -7.834  10.325  65.111  1.00  0.00    -0.138 C  
HETATM   31  C   UNL     1      -7.238  12.813  66.977  1.00  0.00     0.120 C  
HETATM   32  C   UNL     1      -9.186  13.974  68.217  1.00  0.00    -0.200 C  
HETATM   33  N   UNL     1      -8.438  11.067  64.002  1.00  0.00    -0.372 NA 
HETATM   34  H   UNL     1      -7.902  10.937  63.145  1.00  0.00     0.000 HD 
HETATM   35  C   UNL     1      -7.857  13.171  68.327  1.00  0.00    -0.143 C  
HETATM   36  C   UNL     1      -9.856  10.738  63.788  1.00  0.00    -0.339 C  
HETATM   37  C   UNL     1     -10.688  12.031  63.847  1.00  0.00    -0.450 C  
HETATM   38  C   UNL     1     -12.057  11.863  64.522  1.00  0.00    -0.172 C  
HETATM   39  N   UNL     1     -12.691  13.155  64.825  1.00  0.00    -0.700 NA 
HETATM   40  C   UNL     1     -12.520  13.698  66.194  1.00  0.00    -0.395 C  
HETATM   41  H   UNL     1     -13.228  13.659  64.119  1.00  0.00     0.000 HD 
HETATM   42  C   UNL     1     -11.106  14.181  66.674  1.00  0.00    -0.312 C  
ENDBRANCH  25  26
ENDBRANCH  23  25
ENDBRANCH   1  19
TORSDOF 4
ENDMDL
MODEL       11
REMARK 921   NORMALIZED FREE ENERGY PREDICTED BY IDOCK:   -5.71 KCAL/MOL
REMARK 922        TOTAL FREE ENERGY PREDICTED BY IDOCK:   -8.62 KCAL/MOL
REMARK 923 INTER-LIGAND FREE ENERGY PREDICTED BY IDOCK:   -7.51 KCAL/MOL
REMARK 924 INTRA-LIGAND FREE ENERGY PREDICTED BY IDOCK:   -1.12 KCAL/MOL
REMARK 927      BINDING AFFINITY PREDICTED BY RF-SCORE:    0.00 PKD
ROOT
HETATM    1  C   UNL     1     -10.766  11.824  67.075  1.00  0.00    -0.246 C  
ENDROOT
BRANCH   1   2
HETATM    2  N   UNL     1     -10.456  13.104  67.682  1.00  0.00    -0.220 NA 
HETATM    3  C   UNL     1     -11.004  14.183  66.828  1.00  0.00    -0.300 C  
HETATM    4  C   UNL     1     -12.516  14.024  66.443  1.00  0.00    -0.355 C  
HETATM    5  C   UNL     1      -9.044  13.364  68.088  1.00  0.00    -0.207 C  
HETATM    6  C   UNL     1      -7.872  12.342  67.969  1.00  0.00    -0.141 C  
HETATM    7  H   UNL     1     -13.348  14.549  64.483  1.00  0.00     0.000 HD 
HETATM    8  C   UNL     1      -7.380  12.076  66.544  1.00  0.00     0.254 C  
HETATM    9  N   UNL     1     -12.891  13.813  65.022  1.00  0.00    -0.735 NA 
HETATM   10  C   UNL     1     -12.582  12.505  64.416  1.00  0.00    -0.410 C  
HETATM   11  N   UNL     1      -7.141  10.647  66.284  1.00  0.00    -0.131 NA 
HETATM   12  C   UNL     1     -11.226  12.496  63.692  1.00  0.00    -0.545 C  
HETATM   13  H   UNL     1      -7.762  10.058  66.841  1.00  0.00     0.000 HD 
HETATM   14  H   UNL     1      -8.804  10.995  62.505  1.00  0.00     0.000 HD 
HETATM   15  C   UNL     1     -10.695  11.092  63.344  1.00  0.00    -0.209 C  
HETATM   16  C   UNL     1      -7.246  10.332  64.845  1.00  0.00    -0.100 C  
HETATM   17  C   UNL     1      -8.698  10.089  64.356  1.00  0.00    -0.199 C  
HETATM   18  N   UNL     1      -9.222  11.097  63.429  1.00  0.00    -0.229 NA 
ENDBRANCH   1   2
BRANCH   1  19
HETATM   19  C   UNL     1     -10.577  10.591  67.897  1.00  0.00    -0.271 A  
HETATM   20  C   UNL     1     -10.596  10.655  69.279  1.00  0.00    -0.263 A  
HETATM   21  C   UNL     1      -9.838   9.735  69.958  1.00  0.00    -0.295 A  
HETATM   22  C   UNL     1     -10.215   9.438  67.219  1.00  0.00    -0.308 A  
HETATM   23  C   UNL     1      -9.342   8.615  69.294  1.00  0.00    -0.153 A  
HETATM   24  C   UNL     1      -9.517   8.469  67.908  1.00  0.00    -0.157 A  
BRANCH  23  25
HETATM   25  C   UNL     1      -8.619   7.538  70.015  1.00  0.00    -0.139 C  
BRANCH  25  26
HETATM   26  N   UNL     1      -7.305   7.158  69.527  1.00  0.00    -0.087 NA 
HETATM   27  C   UNL     1      -8.259   7.923  74.521  1.00  0.00    -0.208 C  
HETATM   28  H   UNL     1      -7.973   9.411  73.092  1.00  0.00     0.000 HD 
HETATM   29  N   UNL     1      -7.417   8.746  73.629  1.00  0.00    -0.386 NA 
HETATM   30  C   UNL     1      -9.520   7.338  73.834  1.00  0.00    -0.271 C  
HETATM   31  C   UNL     1      -6.594   7.892  72.758  1.00  0.00    -0.073 C  
HETATM   32  C   UNL     1      -6.107   7.694  70.227  1.00  0.00    -0.030 C  
HETATM   33  N   UNL     1      -9.496   5.881  73.691  1.00  0.00    -0.138 NA 
HETATM   34  H   UNL     1      -9.626   5.425  74.594  1.00  0.00     0.000 HD 
HETATM   35  C   UNL     1      -6.161   8.613  71.483  1.00  0.00    -0.054 C  
HETATM   36  C   UNL     1     -10.468   5.378  72.707  1.00  0.00    -0.213 C  
HETATM   37  C   UNL     1      -9.729   4.535  71.652  1.00  0.00    -0.241 C  
HETATM   38  C   UNL     1     -10.275   4.699  70.227  1.00  0.00    -0.135 C  
HETATM   39  N   UNL     1      -9.375   4.123  69.216  1.00  0.00    -0.152 NA 
HETATM   40  C   UNL     1      -8.429   5.042  68.538  1.00  0.00    -0.091 C  
HETATM   41  H   UNL     1      -9.401   3.129  68.989  1.00  0.00     0.000 HD 
HETATM   42  C   UNL     1      -7.250   5.687  69.347  1.00  0.00    -0.066 C  
ENDBRANCH  25  26
ENDBRANCH  23  25
ENDBRANCH   1  19
TORSDOF 4
ENDMDL
MODEL       12
REMARK 921   NORMALIZED FREE ENERGY PREDICTED BY IDOCK:   -5.64 KCAL/MOL
REMARK 922        TOTAL FREE ENERGY PREDICTED BY IDOCK:   -8.54 KCAL/MOL
REMARK 923 INTER-LIGAND FREE ENERGY PREDICTED BY IDOCK:   -7.18 KCAL/MOL
REMARK 924 INTRA-LIGAND FREE ENERGY PREDICTED BY IDOCK:   -1.37 KCAL/MOL
REMARK 927      BINDING AFFINITY PREDICTED BY RF-SCORE:    0.00 PKD
ROOT
HETATM    1  C   UNL     1     -10.138  11.432  67.212  1.00  0.00    -0.192 C  
ENDROOT
BRANCH   1   2
HETATM    2  N   UNL     1     -10.305  11.148  65.799  1.00  0.00    -0.254 NA 
HETATM    3  C   UNL     1      -8.988  11.255  65.131  1.00  0.00    -0.036 C  
HETATM    4  C   UNL     1      -7.832  10.433  65.801  1.00  0.00    -0.150 C  
HETATM    5  C   UNL     1     -11.378  11.876  65.060  1.00  0.00    -0.273 C  
HETATM    6  C   UNL     1     -12.384  12.883  65.697  1.00  0.00    -0.482 C  
HETATM    7  H   UNL     1      -5.759  11.132  65.964  1.00  0.00     0.000 HD 
HETATM    8  C   UNL     1     -11.788  14.234  66.100  1.00  0.00    -0.402 C  
HETATM    9  N   UNL     1      -6.680  11.148  66.404  1.00  0.00    -0.127 NA 
HETATM   10  C   UNL     1      -6.909  11.883  67.663  1.00  0.00    -0.112 C  
HETATM   11  N   UNL     1     -12.257  14.689  67.419  1.00  0.00    -0.556 NA 
HETATM   12  C   UNL     1      -7.251  13.363  67.427  1.00  0.00    -0.116 C  
HETATM   13  H   UNL     1     -12.466  13.902  68.033  1.00  0.00     0.000 HD 
HETATM   14  H   UNL     1      -8.458  16.043  68.371  1.00  0.00     0.000 HD 
HETATM   15  C   UNL     1      -7.832  14.089  68.655  1.00  0.00    -0.130 C  
HETATM   16  C   UNL     1     -11.297  15.621  68.044  1.00  0.00    -0.324 C  
HETATM   17  C   UNL     1     -10.136  14.919  68.798  1.00  0.00    -0.241 C  
HETATM   18  N   UNL     1      -8.807  15.100  68.203  1.00  0.00    -0.166 NA 
ENDBRANCH   1   2
BRANCH   1  19
HETATM   19  C   UNL     1     -10.300  10.306  68.180  1.00  0.00    -0.208 A  
HETATM   20  C   UNL     1      -9.941  10.461  69.508  1.00  0.00    -0.229 A  
HETATM   21  C   UNL     1      -9.511   9.341  70.173  1.00  0.00    -0.258 A  
HETATM   22  C   UNL     1     -10.656   9.075  67.654  1.00  0.00    -0.298 A  
HETATM   23  C   UNL     1      -9.733   8.078  69.628  1.00  0.00    -0.169 A  
HETATM   24  C   UNL     1     -10.296   7.940  68.349  1.00  0.00    -0.235 A  
BRANCH  23  25
HETATM   25  C   UNL     1      -9.390   6.839  70.369  1.00  0.00    -0.163 C  
BRANCH  25  26
HETATM   26  N   UNL     1     -10.210   5.662  70.140  1.00  0.00    -0.228 NA 
HETATM   27  C   UNL     1      -5.140   5.356  70.933  1.00  0.00    -0.005 C  
HETATM   28  H   UNL     1      -6.064   5.917  69.152  1.00  0.00     0.000 HD 
HETATM   29  N   UNL     1      -5.874   5.068  69.684  1.00  0.00    -0.019 NA 
HETATM   30  C   UNL     1      -5.723   6.539  71.748  1.00  0.00    -0.036 C  
HETATM   31  C   UNL     1      -7.106   4.314  69.969  1.00  0.00    -0.042 C  
HETATM   32  C   UNL     1      -9.618   4.519  69.393  1.00  0.00    -0.194 C  
HETATM   33  N   UNL     1      -6.313   6.144  73.029  1.00  0.00    -0.062 NA 
HETATM   34  H   UNL     1      -5.588   5.881  73.696  1.00  0.00     0.000 HD 
HETATM   35  C   UNL     1      -8.152   4.478  68.869  1.00  0.00    -0.077 C  
HETATM   36  C   UNL     1      -7.202   7.168  73.599  1.00  0.00    -0.079 C  
HETATM   37  C   UNL     1      -8.586   6.546  73.861  1.00  0.00    -0.136 C  
HETATM   38  C   UNL     1      -9.760   7.493  73.575  1.00  0.00    -0.303 C  
HETATM   39  N   UNL     1     -11.051   6.787  73.549  1.00  0.00    -0.498 NA 
HETATM   40  C   UNL     1     -11.576   6.370  72.226  1.00  0.00    -0.299 C  
HETATM   41  H   UNL     1     -11.565   6.591  74.408  1.00  0.00     0.000 HD 
HETATM   42  C   UNL     1     -10.844   5.244  71.413  1.00  0.00    -0.082 C  
ENDBRANCH  25  26
ENDBRANCH  23  25
ENDBRANCH   1  19
TORSDOF 4
ENDMDL
MODEL       13
REMARK 921   NORMALIZED FREE ENERGY PREDICTED BY IDOCK:   -5.61 KCAL/MOL
REMARK 922        TOTAL FREE ENERGY PREDICTED BY IDOCK:   -8.50 KCAL/MOL
REMARK 923 INTER-LIGAND FREE ENERGY PREDICTED BY IDOCK:   -7.32 KCAL/MOL
REMARK 924 INTRA-LIGAND FREE ENERGY PREDICTED BY IDOCK:   -1.18 KCAL/MOL
REMARK 927      BINDING AFFINITY PREDICTED BY RF-SCORE:    0.00 PKD
ROOT
HETATM    1  C   UNL     1     -10.727  11.597  66.967  1.00  0.00    -0.253 C  
ENDROOT
BRANCH   1   2
HETATM    2  N   UNL     1     -10.625  12.929  67.531  1.00  0.00    -0.225 NA 
HETATM    3  C   UNL     1     -11.128  13.907  66.540  1.00  0.00    -0.308 C  
HETATM    4  C   UNL     1     -12.544  13.587  65.946  1.00  0.00    -0.396 C  
HETATM    5  C   UNL     1      -9.319  13.342  68.124  1.00  0.00    -0.220 C  
HETATM    6  C   UNL     1      -8.059  12.431  68.244  1.00  0.00    -0.166 C  
HETATM    7  H   UNL     1     -13.109  13.934  63.856  1.00  0.00     0.000 HD 
HETATM    8  C   UNL     1      -7.334  12.143  66.926  1.00  0.00    -0.008 C  
HETATM    9  N   UNL     1     -12.678  13.272  64.502  1.00  0.00    -0.671 NA 
HETATM   10  C   UNL     1     -12.168  11.970  64.031  1.00  0.00    -0.403 C  
HETATM   11  N   UNL     1      -6.936  10.732  66.794  1.00  0.00    -0.111 NA 
HETATM   12  C   UNL     1     -10.722  12.055  63.517  1.00  0.00    -0.513 C  
HETATM   13  H   UNL     1      -7.580  10.115  67.289  1.00  0.00     0.000 HD 
HETATM   14  H   UNL     1      -8.026  10.734  62.797  1.00  0.00     0.000 HD 
HETATM   15  C   UNL     1     -10.024  10.693  63.340  1.00  0.00    -0.268 C  
HETATM   16  C   UNL     1      -6.792  10.339  65.378  1.00  0.00    -0.140 C  
HETATM   17  C   UNL     1      -8.126   9.935  64.697  1.00  0.00    -0.152 C  
HETATM   18  N   UNL     1      -8.588  10.842  63.641  1.00  0.00    -0.041 NA 
ENDBRANCH   1   2
BRANCH   1  19
HETATM   19  C   UNL     1     -10.577  10.429  67.886  1.00  0.00    -0.273 A  
HETATM   20  C   UNL     1     -10.774  10.574  69.248  1.00  0.00    -0.269 A  
HETATM   21  C   UNL     1     -10.060   9.746  70.075  1.00  0.00    -0.301 A  
HETATM   22  C   UNL     1     -10.071   9.262  67.337  1.00  0.00    -0.280 A  
HETATM   23  C   UNL     1      -9.424   8.621  69.554  1.00  0.00    -0.162 A  
HETATM   24  C   UNL     1      -9.413   8.382  68.170  1.00  0.00    -0.148 A  
BRANCH  23  25
HETATM   25  C   UNL     1      -8.740   7.636  70.428  1.00  0.00    -0.143 C  
BRANCH  25  26
HETATM   26  N   UNL     1      -7.474   8.021  71.025  1.00  0.00    -0.068 NA 
HETATM   27  C   UNL     1     -10.954   5.211  73.560  1.00  0.00    -0.310 C  
HETATM   28  H   UNL     1     -11.038   7.270  73.254  1.00  0.00     0.000 HD 
HETATM   29  N   UNL     1     -10.542   6.601  73.842  1.00  0.00    -0.308 NA 
HETATM   30  C   UNL     1     -11.006   4.864  72.049  1.00  0.00     0.046 C  
HETATM   31  C   UNL     1      -9.082   6.743  73.720  1.00  0.00    -0.154 C  
HETATM   32  C   UNL     1      -7.436   8.308  72.485  1.00  0.00    -0.113 C  
HETATM   33  N   UNL     1      -9.994   3.892  71.628  1.00  0.00    -0.179 NA 
HETATM   34  H   UNL     1     -10.220   2.960  71.976  1.00  0.00     0.000 HD 
HETATM   35  C   UNL     1      -8.663   8.184  73.436  1.00  0.00    -0.318 C  
HETATM   36  C   UNL     1      -9.780   3.870  70.173  1.00  0.00    -0.172 C  
HETATM   37  C   UNL     1      -8.289   4.111  69.878  1.00  0.00    -0.079 C  
HETATM   38  C   UNL     1      -8.030   4.969  68.632  1.00  0.00    -0.085 C  
HETATM   39  N   UNL     1      -6.633   5.423  68.549  1.00  0.00    -0.043 NA 
HETATM   40  C   UNL     1      -6.322   6.778  69.064  1.00  0.00    -0.035 C  
HETATM   41  H   UNL     1      -5.906   4.828  68.151  1.00  0.00     0.000 HD 
HETATM   42  C   UNL     1      -6.417   7.071  70.603  1.00  0.00    -0.047 C  
ENDBRANCH  25  26
ENDBRANCH  23  25
ENDBRANCH   1  19
TORSDOF 4
ENDMDL
MODEL       14
REMARK 921   NORMALIZED FREE ENERGY PREDICTED BY IDOCK:   -5.55 KCAL/MOL
REMARK 922        TOTAL FREE ENERGY PREDICTED BY IDOCK:   -8.43 KCAL/MOL
REMARK 923 INTER-LIGAND FREE ENERGY PREDICTED BY IDOCK:   -7.48 KCAL/MOL
REMARK 924 INTRA-LIGAND FREE ENERGY PREDICTED BY IDOCK:   -0.95 KCAL/MOL
REMARK 927      BINDING AFFINITY PREDICTED BY RF-SCORE:    0.00 PKD
ROOT
HETATM    1  C   UNL     1      -8.966   7.603  70.654  1.00  0.00    -0.153 C  
ENDROOT
BRANCH   1   2
HETATM    2  N   UNL     1      -7.753   8.135  71.244  1.00  0.00    -0.084 NA 
HETATM    3  C   UNL     1      -6.605   7.310  70.803  1.00  0.00    -0.044 C  
HETATM    4  C   UNL     1      -6.501   7.087  69.253  1.00  0.00    -0.043 C  
HETATM    5  C   UNL     1      -7.739   8.386  72.715  1.00  0.00    -0.071 C  
HETATM    6  C   UNL     1      -8.952   8.178  73.673  1.00  0.00    -0.275 C  
HETATM    7  H   UNL     1      -5.862   5.208  68.321  1.00  0.00     0.000 HD 
HETATM    8  C   UNL     1      -9.317   6.719  73.957  1.00  0.00    -0.209 C  
HETATM    9  N   UNL     1      -6.660   5.720  68.698  1.00  0.00    -0.046 NA 
HETATM   10  C   UNL     1      -8.009   5.124  68.710  1.00  0.00    -0.082 C  
HETATM   11  N   UNL     1     -10.769   6.479  73.916  1.00  0.00    -0.465 NA 
HETATM   12  C   UNL     1      -8.264   4.266  69.960  1.00  0.00    -0.070 C  
HETATM   13  H   UNL     1     -11.233   7.114  73.266  1.00  0.00     0.000 HD 
HETATM   14  H   UNL     1     -10.180   2.881  71.945  1.00  0.00     0.000 HD 
HETATM   15  C   UNL     1      -9.743   3.908  70.200  1.00  0.00    -0.172 C  
HETATM   16  C   UNL     1     -11.077   5.068  73.606  1.00  0.00    -0.267 C  
HETATM   17  C   UNL     1     -11.069   4.739  72.089  1.00  0.00     0.142 C  
HETATM   18  N   UNL     1      -9.995   3.840  71.652  1.00  0.00    -0.171 NA 
ENDBRANCH   1   2
BRANCH   1  19
HETATM   19  C   UNL     1      -9.759   8.490  69.751  1.00  0.00    -0.179 A  
HETATM   20  C   UNL     1      -9.738   8.301  68.380  1.00  0.00    -0.170 A  
HETATM   21  C   UNL     1      -9.915   9.410  67.594  1.00  0.00    -0.238 A  
HETATM   22  C   UNL     1     -10.361   9.595  70.332  1.00  0.00    -0.350 A  
HETATM   23  C   UNL     1     -10.403  10.590  68.152  1.00  0.00    -0.201 A  
HETATM   24  C   UNL     1     -10.614  10.692  69.537  1.00  0.00    -0.265 A  
BRANCH  23  25
HETATM   25  C   UNL     1     -10.719  11.775  67.317  1.00  0.00    -0.237 C  
BRANCH  25  26
HETATM   26  N   UNL     1     -10.425  13.089  67.862  1.00  0.00    -0.224 NA 
HETATM   27  C   UNL     1      -7.017  10.466  65.046  1.00  0.00    -0.064 C  
HETATM   28  H   UNL     1      -7.466  10.119  67.050  1.00  0.00     0.000 HD 
HETATM   29  N   UNL     1      -6.938  10.785  66.485  1.00  0.00    -0.123 NA 
HETATM   30  C   UNL     1      -8.452  10.157  64.546  1.00  0.00    -0.177 C  
HETATM   31  C   UNL     1      -7.365  12.171  66.734  1.00  0.00     0.084 C  
HETATM   32  C   UNL     1      -9.032  13.381  68.295  1.00  0.00    -0.176 C  
HETATM   33  N   UNL     1      -8.988  11.159  63.622  1.00  0.00    -0.401 NA 
HETATM   34  H   UNL     1      -8.526  11.099  62.715  1.00  0.00     0.000 HD 
HETATM   35  C   UNL     1      -7.845  12.381  68.168  1.00  0.00    -0.146 C  
HETATM   36  C   UNL     1     -10.450  11.087  63.472  1.00  0.00    -0.300 C  
HETATM   37  C   UNL     1     -11.059  12.461  63.804  1.00  0.00    -0.506 C  
HETATM   38  C   UNL     1     -12.398  12.386  64.551  1.00  0.00    -0.438 C  
HETATM   39  N   UNL     1     -12.800  13.687  65.106  1.00  0.00    -0.738 NA 
HETATM   40  C   UNL     1     -12.471  13.956  66.527  1.00  0.00    -0.321 C  
HETATM   41  H   UNL     1     -13.286  14.379  64.536  1.00  0.00     0.000 HD 
HETATM   42  C   UNL     1     -10.973  14.132  66.964  1.00  0.00    -0.300 C  
ENDBRANCH  25  26
ENDBRANCH  23  25
ENDBRANCH   1  19
TORSDOF 4
ENDMDL
MODEL       15
REMARK 921   NORMALIZED FREE ENERGY PREDICTED BY IDOCK:   -5.54 KCAL/MOL
REMARK 922        TOTAL FREE ENERGY PREDICTED BY IDOCK:   -8.42 KCAL/MOL
REMARK 923 INTER-LIGAND FREE ENERGY PREDICTED BY IDOCK:   -6.96 KCAL/MOL
REMARK 924 INTRA-LIGAND FREE ENERGY PREDICTED BY IDOCK:   -1.46 KCAL/MOL
REMARK 927      BINDING AFFINITY PREDICTED BY RF-SCORE:    0.00 PKD
ROOT
HETATM    1  C   UNL     1      -9.628  12.038  66.914  1.00  0.00    -0.203 C  
ENDROOT
BRANCH   1   2
HETATM    2  N   UNL     1      -8.715  13.074  67.356  1.00  0.00    -0.195 NA 
HETATM    3  C   UNL     1      -9.018  14.324  66.624  1.00  0.00    -0.186 C  
HETATM    4  C   UNL     1     -10.524  14.764  66.652  1.00  0.00    -0.286 C  
HETATM    5  C   UNL     1      -7.255  12.763  67.369  1.00  0.00    -0.132 C  
HETATM    6  C   UNL     1      -6.626  11.385  66.999  1.00  0.00    -0.125 C  
HETATM    7  H   UNL     1     -11.573  15.669  64.952  1.00  0.00     0.000 HD 
HETATM    8  C   UNL     1      -6.657  11.032  65.510  1.00  0.00     0.195 C  
HETATM    9  N   UNL     1     -11.304  14.787  65.390  1.00  0.00    -0.348 NA 
HETATM   10  C   UNL     1     -11.676  13.493  64.787  1.00  0.00    -0.370 C  
HETATM   11  N   UNL     1      -7.048   9.634  65.266  1.00  0.00    -0.103 NA 
HETATM   12  C   UNL     1     -10.660  13.017  63.738  1.00  0.00    -0.175 C  
HETATM   13  H   UNL     1      -7.677   9.291  65.992  1.00  0.00     0.000 HD 
HETATM   14  H   UNL     1      -9.374  10.785  62.035  1.00  0.00     0.000 HD 
HETATM   15  C   UNL     1     -10.804  11.538  63.332  1.00  0.00    -0.346 C  
HETATM   16  C   UNL     1      -7.631   9.461  63.920  1.00  0.00    -0.118 C  
HETATM   17  C   UNL     1      -9.142   9.806  63.837  1.00  0.00    -0.233 C  
HETATM   18  N   UNL     1      -9.469  10.987  63.030  1.00  0.00    -0.328 NA 
ENDBRANCH   1   2
BRANCH   1  19
HETATM   19  C   UNL     1      -9.957  10.934  67.865  1.00  0.00    -0.195 A  
HETATM   20  C   UNL     1      -9.657  11.051  69.211  1.00  0.00    -0.008 A  
HETATM   21  C   UNL     1      -9.380   9.893  69.892  1.00  0.00    -0.250 A  
HETATM   22  C   UNL     1     -10.405   9.745  67.312  1.00  0.00    -0.308 A  
HETATM   23  C   UNL     1      -9.698   8.659  69.328  1.00  0.00    -0.173 A  
HETATM   24  C   UNL     1     -10.201   8.580  68.019  1.00  0.00    -0.264 A  
BRANCH  23  25
HETATM   25  C   UNL     1      -9.523   7.391  70.078  1.00  0.00    -0.161 C  
BRANCH  25  26
HETATM   26  N   UNL     1     -10.193   6.205  69.573  1.00  0.00    -0.183 NA 
HETATM   27  C   UNL     1      -5.781   5.951  72.202  1.00  0.00    -0.031 C  
HETATM   28  H   UNL     1      -5.978   6.489  70.199  1.00  0.00     0.000 HD 
HETATM   29  N   UNL     1      -5.996   5.646  70.773  1.00  0.00    -0.027 NA 
HETATM   30  C   UNL     1      -6.633   7.136  72.728  1.00  0.00    -0.063 C  
HETATM   31  C   UNL     1      -7.242   4.884  70.586  1.00  0.00    -0.053 C  
HETATM   32  C   UNL     1      -9.359   5.062  69.114  1.00  0.00    -0.122 C  
HETATM   33  N   UNL     1      -7.655   6.746  73.701  1.00  0.00    -0.082 NA 
HETATM   34  H   UNL     1      -7.230   6.494  74.593  1.00  0.00     0.000 HD 
HETATM   35  C   UNL     1      -7.803   5.030  69.173  1.00  0.00    -0.080 C  
HETATM   36  C   UNL     1      -8.699   7.767  73.888  1.00  0.00    -0.267 C  
HETATM   37  C   UNL     1     -10.077   7.134  73.622  1.00  0.00    -0.389 C  
HETATM   38  C   UNL     1     -11.065   8.068  72.909  1.00  0.00    -0.331 C  
HETATM   39  N   UNL     1     -12.249   7.350  72.411  1.00  0.00    -0.507 NA 
HETATM   40  C   UNL     1     -12.241   6.918  70.993  1.00  0.00    -0.377 C  
HETATM   41  H   UNL     1     -13.045   7.157  73.019  1.00  0.00     0.000 HD 
HETATM   42  C   UNL     1     -11.253   5.792  70.523  1.00  0.00    -0.130 C  
ENDBRANCH  25  26
ENDBRANCH  23  25
ENDBRANCH   1  19
TORSDOF 4
ENDMDL
MODEL       16
REMARK 921   NORMALIZED FREE ENERGY PREDICTED BY IDOCK:   -5.52 KCAL/MOL
REMARK 922        TOTAL FREE ENERGY PREDICTED BY IDOCK:   -8.39 KCAL/MOL
REMARK 923 INTER-LIGAND FREE ENERGY PREDICTED BY IDOCK:   -7.01 KCAL/MOL
REMARK 924 INTRA-LIGAND FREE ENERGY PREDICTED BY IDOCK:   -1.38 KCAL/MOL
REMARK 927      BINDING AFFINITY PREDICTED BY RF-SCORE:    0.00 PKD
ROOT
HETATM    1  C   UNL     1     -10.090  10.854  66.204  1.00  0.00    -0.239 C  
ENDROOT
BRANCH   1   2
HETATM    2  N   UNL     1      -9.376  10.563  64.976  1.00  0.00    -0.203 NA 
HETATM    3  C   UNL     1      -8.033  11.182  65.045  1.00  0.00     0.450 C  
HETATM    4  C   UNL     1      -7.212  10.850  66.339  1.00  0.00    -0.140 C  
HETATM    5  C   UNL     1     -10.064  10.841  63.681  1.00  0.00    -0.312 C  
HETATM    6  C   UNL     1     -11.524  11.370  63.535  1.00  0.00    -0.190 C  
HETATM    7  H   UNL     1      -5.920  12.285  67.379  1.00  0.00     0.000 HD 
HETATM    8  C   UNL     1     -11.730  12.836  63.925  1.00  0.00    -0.459 C  
HETATM    9  N   UNL     1      -6.876  11.937  67.292  1.00  0.00    -0.129 NA 
HETATM   10  C   UNL     1      -7.968  12.497  68.110  1.00  0.00    -0.157 C  
HETATM   11  N   UNL     1     -12.947  13.045  64.726  1.00  0.00    -0.748 NA 
HETATM   12  C   UNL     1      -8.609  13.738  67.467  1.00  0.00    -0.194 C  
HETATM   13  H   UNL     1     -13.170  12.222  65.287  1.00  0.00     0.000 HD 
HETATM   14  H   UNL     1     -10.951  15.727  67.174  1.00  0.00     0.000 HD 
HETATM   15  C   UNL     1      -9.956  14.156  68.086  1.00  0.00    -0.232 C  
HETATM   16  C   UNL     1     -12.845  14.257  65.562  1.00  0.00    -0.312 C  
HETATM   17  C   UNL     1     -12.105  14.036  66.907  1.00  0.00    -0.430 C  
HETATM   18  N   UNL     1     -10.816  14.726  67.032  1.00  0.00    -0.308 NA 
ENDBRANCH   1   2
BRANCH   1  19
HETATM   19  C   UNL     1     -10.264   9.751  67.196  1.00  0.00    -0.288 A  
HETATM   20  C   UNL     1     -10.648  10.027  68.497  1.00  0.00    -0.245 A  
HETATM   21  C   UNL     1     -10.206   9.172  69.474  1.00  0.00    -0.208 A  
HETATM   22  C   UNL     1      -9.860   8.485  66.802  1.00  0.00    -0.327 A  
HETATM   23  C   UNL     1      -9.673   7.932  69.126  1.00  0.00    -0.162 A  
HETATM   24  C   UNL     1      -9.483   7.588  67.777  1.00  0.00    -0.157 A  
BRANCH  23  25
HETATM   25  C   UNL     1      -9.292   6.931  70.153  1.00  0.00    -0.159 C  
BRANCH  25  26
HETATM   26  N   UNL     1     -10.219   5.845  70.420  1.00  0.00    -0.199 NA 
HETATM   27  C   UNL     1      -5.143   5.098  70.089  1.00  0.00    -0.004 C  
HETATM   28  H   UNL     1      -6.446   5.349  68.483  1.00  0.00     0.000 HD 
HETATM   29  N   UNL     1      -6.184   4.627  69.154  1.00  0.00    -0.029 NA 
HETATM   30  C   UNL     1      -5.424   6.499  70.692  1.00  0.00    -0.019 C  
HETATM   31  C   UNL     1      -7.352   4.118  69.891  1.00  0.00    -0.049 C  
HETATM   32  C   UNL     1      -9.909   4.498  69.870  1.00  0.00    -0.227 C  
HETATM   33  N   UNL     1      -5.698   6.482  72.130  1.00  0.00    -0.037 NA 
HETATM   34  H   UNL     1      -4.847   6.289  72.659  1.00  0.00     0.000 HD 
HETATM   35  C   UNL     1      -8.628   4.156  69.053  1.00  0.00    -0.111 C  
HETATM   36  C   UNL     1      -6.346   7.712  72.612  1.00  0.00    -0.060 C  
HETATM   37  C   UNL     1      -7.658   7.343  73.329  1.00  0.00    -0.109 C  
HETATM   38  C   UNL     1      -8.801   8.338  73.090  1.00  0.00    -0.222 C  
HETATM   39  N   UNL     1     -10.100   7.812  73.536  1.00  0.00    -0.286 NA 
HETATM   40  C   UNL     1     -10.968   7.173  72.516  1.00  0.00    -0.273 C  
HETATM   41  H   UNL     1     -10.394   7.882  74.510  1.00  0.00     0.000 HD 
HETATM   42  C   UNL     1     -10.538   5.810  71.867  1.00  0.00    -0.232 C  
ENDBRANCH  25  26
ENDBRANCH  23  25
ENDBRANCH   1  19
TORSDOF 4
ENDMDL
MODEL       17
REMARK 921   NORMALIZED FREE ENERGY PREDICTED BY IDOCK:   -5.51 KCAL/MOL
REMARK 922        TOTAL FREE ENERGY PREDICTED BY IDOCK:   -8.37 KCAL/MOL
REMARK 923 INTER-LIGAND FREE ENERGY PREDICTED BY IDOCK:   -7.32 KCAL/MOL
REMARK 924 INTRA-LIGAND FREE ENERGY PREDICTED BY IDOCK:   -1.05 KCAL/MOL
REMARK 927      BINDING AFFINITY PREDICTED BY RF-SCORE:    0.00 PKD
ROOT
HETATM    1  C   UNL     1      -8.648   6.492  69.560  1.00  0.00    -0.134 C  
ENDROOT
BRANCH   1   2
HETATM    2  N   UNL     1      -7.222   6.426  69.308  1.00  0.00    -0.087 NA 
HETATM    3  C   UNL     1      -6.785   5.014  69.397  1.00  0.00    -0.052 C  
HETATM    4  C   UNL     1      -7.620   4.002  68.537  1.00  0.00    -0.058 C  
HETATM    5  C   UNL     1      -6.330   7.346  70.073  1.00  0.00    -0.027 C  
HETATM    6  C   UNL     1      -6.813   8.425  71.091  1.00  0.00    -0.058 C  
HETATM    7  H   UNL     1      -8.141   1.973  69.185  1.00  0.00     0.000 HD 
HETATM    8  C   UNL     1      -7.341   7.879  72.420  1.00  0.00    -0.091 C  
HETATM    9  N   UNL     1      -8.422   2.954  69.214  1.00  0.00    -0.060 NA 
HETATM   10  C   UNL     1      -9.641   3.375  69.930  1.00  0.00    -0.127 C  
HETATM   11  N   UNL     1      -8.573   8.553  72.861  1.00  0.00    -0.387 NA 
HETATM   12  C   UNL     1      -9.385   3.645  71.421  1.00  0.00    -0.211 C  
HETATM   13  H   UNL     1      -9.125   8.877  72.067  1.00  0.00     0.000 HD 
HETATM   14  H   UNL     1     -10.175   4.941  74.109  1.00  0.00     0.000 HD 
HETATM   15  C   UNL     1     -10.515   4.409  72.137  1.00  0.00    -0.091 C  
HETATM   16  C   UNL     1      -9.370   7.693  73.759  1.00  0.00    -0.267 C  
HETATM   17  C   UNL     1     -10.291   6.688  73.017  1.00  0.00    -0.222 C  
HETATM   18  N   UNL     1      -9.930   5.275  73.178  1.00  0.00    -0.164 NA 
ENDBRANCH   1   2
BRANCH   1  19
HETATM   19  C   UNL     1      -9.463   7.449  68.754  1.00  0.00    -0.143 A  
HETATM   20  C   UNL     1      -9.392   7.446  67.372  1.00  0.00    -0.154 A  
HETATM   21  C   UNL     1      -9.608   8.639  66.732  1.00  0.00    -0.269 A  
HETATM   22  C   UNL     1     -10.144   8.433  69.452  1.00  0.00    -0.198 A  
HETATM   23  C   UNL     1     -10.178   9.707  67.423  1.00  0.00    -0.283 A  
HETATM   24  C   UNL     1     -10.435   9.612  68.800  1.00  0.00    -0.238 A  
BRANCH  23  25
HETATM   25  C   UNL     1     -10.537  10.975  66.740  1.00  0.00    -0.266 C  
BRANCH  25  26
HETATM   26  N   UNL     1     -10.411  12.211  67.491  1.00  0.00    -0.204 NA 
HETATM   27  C   UNL     1      -6.531  10.278  64.726  1.00  0.00    -0.105 C  
HETATM   28  H   UNL     1      -7.144   9.609  66.601  1.00  0.00     0.000 HD 
HETATM   29  N   UNL     1      -6.622  10.386  66.196  1.00  0.00    -0.104 NA 
HETATM   30  C   UNL     1      -7.879   9.946  64.034  1.00  0.00    -0.145 C  
HETATM   31  C   UNL     1      -7.187  11.687  66.588  1.00  0.00    -0.025 C  
HETATM   32  C   UNL     1      -9.097  12.533  68.111  1.00  0.00    -0.204 C  
HETATM   33  N   UNL     1      -8.405  11.033  63.207  1.00  0.00    -0.386 NA 
HETATM   34  H   UNL     1      -7.853  11.141  62.356  1.00  0.00     0.000 HD 
HETATM   35  C   UNL     1      -7.822  11.649  67.976  1.00  0.00    -0.128 C  
HETATM   36  C   UNL     1      -9.834  10.882  62.889  1.00  0.00    -0.277 C  
HETATM   37  C   UNL     1     -10.588  12.146  63.340  1.00  0.00    -0.454 C  
HETATM   38  C   UNL     1     -11.982  11.867  63.918  1.00  0.00    -0.402 C  
HETATM   39  N   UNL     1     -12.546  13.041  64.603  1.00  0.00    -0.659 NA 
HETATM   40  C   UNL     1     -12.382  13.120  66.075  1.00  0.00    -0.359 C  
HETATM   41  H   UNL     1     -13.031  13.774  64.085  1.00  0.00     0.000 HD 
HETATM   42  C   UNL     1     -10.955  13.334  66.693  1.00  0.00    -0.283 C  
ENDBRANCH  25  26
ENDBRANCH  23  25
ENDBRANCH   1  19
TORSDOF 4
ENDMDL
MODEL       18
REMARK 921   NORMALIZED FREE ENERGY PREDICTED BY IDOCK:   -5.41 KCAL/MOL
REMARK 922        TOTAL FREE ENERGY PREDICTED BY IDOCK:   -8.26 KCAL/MOL
REMARK 923 INTER-LIGAND FREE ENERGY PREDICTED BY IDOCK:   -6.76 KCAL/MOL
REMARK 924 INTRA-LIGAND FREE ENERGY PREDICTED BY IDOCK:   -1.50 KCAL/MOL
REMARK 927      BINDING AFFINITY PREDICTED BY RF-SCORE:    0.00 PKD
ROOT
HETATM    1  C   UNL     1      -9.730   7.499  71.302  1.00  0.00    -0.164 C  
ENDROOT
BRANCH   1   2
HETATM    2  N   UNL     1     -11.093   7.005  71.359  1.00  0.00    -0.240 NA 
HETATM    3  C   UNL     1     -11.225   6.103  72.525  1.00  0.00    -0.287 C  
HETATM    4  C   UNL     1     -10.717   6.693  73.886  1.00  0.00    -0.117 C  
HETATM    5  C   UNL     1     -11.679   6.420  70.118  1.00  0.00    -0.303 C  
HETATM    6  C   UNL     1     -10.964   6.347  68.734  1.00  0.00    -0.404 C  
HETATM    7  H   UNL     1      -9.663   5.528  75.416  1.00  0.00     0.000 HD 
HETATM    8  C   UNL     1      -9.826   5.328  68.640  1.00  0.00    -0.155 C  
HETATM    9  N   UNL     1      -9.549   6.076  74.562  1.00  0.00    -0.199 NA 
HETATM   10  C   UNL     1      -8.219   6.278  73.959  1.00  0.00    -0.111 C  
HETATM   11  N   UNL     1      -8.644   5.860  67.943  1.00  0.00    -0.106 NA 
HETATM   12  C   UNL     1      -7.824   5.139  73.005  1.00  0.00    -0.098 C  
HETATM   13  H   UNL     1      -8.557   6.869  68.073  1.00  0.00     0.000 HD 
HETATM   14  H   UNL     1      -6.129   4.025  70.678  1.00  0.00     0.000 HD 
HETATM   15  C   UNL     1      -6.623   5.455  72.093  1.00  0.00    -0.056 C  
HETATM   16  C   UNL     1      -7.411   5.156  68.349  1.00  0.00    -0.075 C  
HETATM   17  C   UNL     1      -6.776   5.698  69.657  1.00  0.00    -0.055 C  
HETATM   18  N   UNL     1      -6.809   4.775  70.797  1.00  0.00    -0.035 NA 
ENDBRANCH   1   2
BRANCH   1  19
HETATM   19  C   UNL     1      -9.499   8.866  70.745  1.00  0.00    -0.280 A  
HETATM   20  C   UNL     1     -10.561   9.725  70.520  1.00  0.00    -0.376 A  
HETATM   21  C   UNL     1     -10.428  10.628  69.497  1.00  0.00    -0.236 A  
HETATM   22  C   UNL     1      -8.215   9.156  70.312  1.00  0.00    -0.170 A  
HETATM   23  C   UNL     1      -9.175  10.868  68.937  1.00  0.00    -0.168 A  
HETATM   24  C   UNL     1      -8.058  10.115  69.335  1.00  0.00    -0.163 A  
BRANCH  23  25
HETATM   25  C   UNL     1      -8.968  11.920  67.911  1.00  0.00    -0.179 C  
BRANCH  25  26
HETATM   26  N   UNL     1      -7.645  12.049  67.328  1.00  0.00    -0.150 NA 
HETATM   27  C   UNL     1     -11.924  12.264  64.486  1.00  0.00    -0.383 C  
HETATM   28  H   UNL     1     -11.043  10.531  65.235  1.00  0.00     0.000 HD 
HETATM   29  N   UNL     1     -10.895  11.205  64.484  1.00  0.00    -0.298 NA 
HETATM   30  C   UNL     1     -12.198  12.873  65.886  1.00  0.00    -0.407 C  
HETATM   31  C   UNL     1      -9.546  11.792  64.535  1.00  0.00    -0.070 C  
HETATM   32  C   UNL     1      -7.413  11.497  65.966  1.00  0.00     0.312 C  
HETATM   33  N   UNL     1     -11.781  14.271  66.017  1.00  0.00    -0.368 NA 
HETATM   34  H   UNL     1     -12.403  14.886  65.491  1.00  0.00     0.000 HD 
HETATM   35  C   UNL     1      -8.511  10.818  65.095  1.00  0.00    -0.102 C  
HETATM   36  C   UNL     1     -11.666  14.714  67.415  1.00  0.00    -0.390 C  
HETATM   37  C   UNL     1     -10.250  15.270  67.654  1.00  0.00    -0.242 C  
HETATM   38  C   UNL     1      -9.673  14.934  69.036  1.00  0.00    -0.212 C  
HETATM   39  N   UNL     1      -8.232  15.216  69.121  1.00  0.00    -0.202 NA 
HETATM   40  C   UNL     1      -7.298  14.087  68.891  1.00  0.00    -0.113 C  
HETATM   41  H   UNL     1      -7.887  16.153  69.330  1.00  0.00     0.000 HD 
HETATM   42  C   UNL     1      -7.178  13.450  67.462  1.00  0.00    -0.153 C  
ENDBRANCH  25  26
ENDBRANCH  23  25
ENDBRANCH   1  19
TORSDOF 4
ENDMDL
MODEL       19
REMARK 921   NORMALIZED FREE ENERGY PREDICTED BY IDOCK:   -5.27 KCAL/MOL
REMARK 922        TOTAL FREE ENERGY PREDICTED BY IDOCK:   -8.08 KCAL/MOL
REMARK 923 INTER-LIGAND FREE ENERGY PREDICTED BY IDOCK:   -7.10 KCAL/MOL
REMARK 924 INTRA-LIGAND FREE ENERGY PREDICTED BY IDOCK:   -0.98 KCAL/MOL
REMARK 927      BINDING AFFINITY PREDICTED BY RF-SCORE:    0.00 PKD
ROOT
HETATM    1  C   UNL     1      -8.990  10.609  66.400  1.00  0.00    -0.162 C  
ENDROOT
BRANCH   1   2
HETATM    2  N   UNL     1      -7.787  10.305  65.649  1.00  0.00    -0.146 NA 
HETATM    3  C   UNL     1      -6.756  11.318  65.968  1.00  0.00     0.133 C  
HETATM    4  C   UNL     1      -6.496  11.547  67.498  1.00  0.00    -0.079 C  
HETATM    5  C   UNL     1      -7.917  10.070  64.181  1.00  0.00    -0.152 C  
HETATM    6  C   UNL     1      -9.260  10.064  63.387  1.00  0.00    -0.317 C  
HETATM    7  H   UNL     1      -6.084  13.504  68.398  1.00  0.00     0.000 HD 
HETATM    8  C   UNL     1      -9.909  11.437  63.193  1.00  0.00    -0.388 C  
HETATM    9  N   UNL     1      -6.821  12.861  68.108  1.00  0.00    -0.085 NA 
HETATM   10  C   UNL     1      -8.245  13.206  68.281  1.00  0.00    -0.154 C  
HETATM   11  N   UNL     1     -11.363  11.414  63.422  1.00  0.00    -0.801 NA 
HETATM   12  C   UNL     1      -8.803  14.013  67.098  1.00  0.00    -0.239 C  
HETATM   13  H   UNL     1     -11.622  10.703  64.105  1.00  0.00     0.000 HD 
HETATM   14  H   UNL     1     -11.170  15.046  65.407  1.00  0.00     0.000 HD 
HETATM   15  C   UNL     1     -10.340  14.104  67.054  1.00  0.00    -0.267 C  
HETATM   16  C   UNL     1     -11.872  12.745  63.808  1.00  0.00    -0.499 C  
HETATM   17  C   UNL     1     -11.729  13.061  65.321  1.00  0.00    -0.353 C  
HETATM   18  N   UNL     1     -10.783  14.134  65.647  1.00  0.00    -0.301 NA 
ENDBRANCH   1   2
BRANCH   1  19
HETATM   19  C   UNL     1      -9.318   9.755  67.581  1.00  0.00    -0.157 A  
HETATM   20  C   UNL     1     -10.075  10.256  68.625  1.00  0.00    -0.187 A  
HETATM   21  C   UNL     1      -9.836   9.742  69.874  1.00  0.00    -0.279 A  
HETATM   22  C   UNL     1      -8.691   8.521  67.654  1.00  0.00    -0.136 A  
HETATM   23  C   UNL     1      -9.102   8.566  70.014  1.00  0.00    -0.147 A  
HETATM   24  C   UNL     1      -8.509   7.956  68.897  1.00  0.00    -0.128 A  
BRANCH  23  25
HETATM   25  C   UNL     1      -8.921   7.913  71.334  1.00  0.00    -0.136 C  
BRANCH  25  26
HETATM   26  N   UNL     1     -10.056   7.884  72.240  1.00  0.00    -0.217 NA 
HETATM   27  C   UNL     1      -9.013   4.008  69.027  1.00  0.00    -0.115 C  
HETATM   28  H   UNL     1      -9.917   5.811  68.509  1.00  0.00     0.000 HD 
HETATM   29  N   UNL     1     -10.160   4.936  68.974  1.00  0.00    -0.173 NA 
HETATM   30  C   UNL     1      -7.689   4.668  69.493  1.00  0.00    -0.055 C  
HETATM   31  C   UNL     1     -10.704   5.166  70.322  1.00  0.00    -0.051 C  
HETATM   32  C   UNL     1     -11.303   7.207  71.791  1.00  0.00    -0.252 C  
HETATM   33  N   UNL     1      -7.215   4.194  70.796  1.00  0.00    -0.037 NA 
HETATM   34  H   UNL     1      -6.860   3.240  70.728  1.00  0.00     0.000 HD 
HETATM   35  C   UNL     1     -11.467   6.486  70.421  1.00  0.00    -0.465 C  
HETATM   36  C   UNL     1      -6.216   5.083  71.408  1.00  0.00    -0.026 C  
HETATM   37  C   UNL     1      -6.701   5.499  72.809  1.00  0.00    -0.072 C  
HETATM   38  C   UNL     1      -6.368   6.951  73.179  1.00  0.00    -0.062 C  
HETATM   39  N   UNL     1      -7.092   7.400  74.378  1.00  0.00    -0.099 NA 
HETATM   40  C   UNL     1      -8.353   8.155  74.175  1.00  0.00    -0.224 C  
HETATM   41  H   UNL     1      -6.741   7.200  75.315  1.00  0.00     0.000 HD 
HETATM   42  C   UNL     1      -9.611   7.429  73.579  1.00  0.00    -0.267 C  
ENDBRANCH  25  26
ENDBRANCH  23  25
ENDBRANCH   1  19
TORSDOF 4
ENDMDL
MODEL       20
REMARK 921   NORMALIZED FREE ENERGY PREDICTED BY IDOCK:   -5.23 KCAL/MOL
REMARK 922        TOTAL FREE ENERGY PREDICTED BY IDOCK:   -8.04 KCAL/MOL
REMARK 923 INTER-LIGAND FREE ENERGY PREDICTED BY IDOCK:   -6.52 KCAL/MOL
REMARK 924 INTRA-LIGAND FREE ENERGY PREDICTED BY IDOCK:   -1.52 KCAL/MOL
REMARK 927      BINDING AFFINITY PREDICTED BY RF-SCORE:    0.00 PKD
ROOT
HETATM    1  C   UNL     1      -9.849   7.404  71.215  1.00  0.00    -0.176 C  
ENDROOT
BRANCH   1   2
HETATM    2  N   UNL     1     -11.114   6.772  70.892  1.00  0.00    -0.262 NA 
HETATM    3  C   UNL     1     -11.364   5.681  71.859  1.00  0.00    -0.141 C  
HETATM    4  C   UNL     1     -11.236   6.086  73.369  1.00  0.00     0.028 C  
HETATM    5  C   UNL     1     -11.344   6.344  69.480  1.00  0.00    -0.393 C  
HETATM    6  C   UNL     1     -10.352   6.574  68.299  1.00  0.00    -0.223 C  
HETATM    7  H   UNL     1     -10.377   4.797  74.922  1.00  0.00     0.000 HD 
HETATM    8  C   UNL     1      -9.093   5.704  68.325  1.00  0.00    -0.110 C  
HETATM    9  N   UNL     1     -10.163   5.487  74.200  1.00  0.00    -0.241 NA 
HETATM   10  C   UNL     1      -8.775   5.920  73.949  1.00  0.00    -0.123 C  
HETATM   11  N   UNL     1      -7.874   6.462  67.996  1.00  0.00    -0.104 NA 
HETATM   12  C   UNL     1      -8.040   5.000  72.962  1.00  0.00    -0.105 C  
HETATM   13  H   UNL     1      -7.953   7.438  68.281  1.00  0.00     0.000 HD 
HETATM   14  H   UNL     1      -5.762   4.463  70.949  1.00  0.00     0.000 HD 
HETATM   15  C   UNL     1      -6.729   5.581  72.399  1.00  0.00    -0.071 C  
HETATM   16  C   UNL     1      -6.670   5.828  68.570  1.00  0.00    -0.057 C  
HETATM   17  C   UNL     1      -6.401   6.208  70.050  1.00  0.00    -0.035 C  
HETATM   18  N   UNL     1      -6.547   5.111  71.013  1.00  0.00    -0.037 NA 
ENDBRANCH   1   2
BRANCH   1  19
HETATM   19  C   UNL     1      -9.615   8.799  70.735  1.00  0.00    -0.256 A  
HETATM   20  C   UNL     1     -10.681   9.621  70.410  1.00  0.00    -0.356 A  
HETATM   21  C   UNL     1     -10.467  10.567  69.440  1.00  0.00    -0.264 A  
HETATM   22  C   UNL     1      -8.303   9.158  70.470  1.00  0.00    -0.222 A  
HETATM   23  C   UNL     1      -9.168  10.879  69.045  1.00  0.00    -0.128 A  
HETATM   24  C   UNL     1      -8.074  10.159  69.551  1.00  0.00    -0.176 A  
BRANCH  23  25
HETATM   25  C   UNL     1      -8.887  11.976  68.086  1.00  0.00    -0.182 C  
BRANCH  25  26
HETATM   26  N   UNL     1      -7.688  11.878  67.273  1.00  0.00    -0.156 NA 
HETATM   27  C   UNL     1     -12.265  13.092  65.270  1.00  0.00    -0.455 C  
HETATM   28  H   UNL     1     -11.637  11.180  65.806  1.00  0.00     0.000 HD 
HETATM   29  N   UNL     1     -11.489  11.854  65.055  1.00  0.00    -0.283 NA 
HETATM   30  C   UNL     1     -12.160  13.661  66.709  1.00  0.00    -0.399 C  
HETATM   31  C   UNL     1     -10.062  12.162  64.871  1.00  0.00    -0.254 C  
HETATM   32  C   UNL     1      -7.817  11.372  65.879  1.00  0.00     0.209 C  
HETATM   33  N   UNL     1     -11.452  14.940  66.792  1.00  0.00    -0.333 NA 
HETATM   34  H   UNL     1     -12.018  15.694  66.404  1.00  0.00     0.000 HD 
HETATM   35  C   UNL     1      -9.165  10.973  65.210  1.00  0.00    -0.229 C  
HETATM   36  C   UNL     1     -11.006  15.269  68.155  1.00  0.00    -0.292 C  
HETATM   37  C   UNL     1      -9.487  15.521  68.142  1.00  0.00    -0.198 C  
HETATM   38  C   UNL     1      -8.757  14.999  69.387  1.00  0.00    -0.113 C  
HETATM   39  N   UNL     1      -7.296  14.988  69.213  1.00  0.00    -0.170 NA 
HETATM   40  C   UNL     1      -6.666  13.714  68.790  1.00  0.00    -0.104 C  
HETATM   41  H   UNL     1      -6.737  15.826  69.376  1.00  0.00     0.000 HD 
HETATM   42  C   UNL     1      -6.931  13.150  67.350  1.00  0.00    -0.107 C  
ENDBRANCH  25  26
ENDBRANCH  23  25
ENDBRANCH   1  19
TORSDOF 4
ENDMDL
MODEL       21
REMARK 921   NORMALIZED FREE ENERGY PREDICTED BY IDOCK:   -5.23 KCAL/MOL
REMARK 922        TOTAL FREE ENERGY PREDICTED BY IDOCK:   -8.03 KCAL/MOL
REMARK 923 INTER-LIGAND FREE ENERGY PREDICTED BY IDOCK:   -6.64 KCAL/MOL
REMARK 924 INTRA-LIGAND FREE ENERGY PREDICTED BY IDOCK:   -1.39 KCAL/MOL
REMARK 927      BINDING AFFINITY PREDICTED BY RF-SCORE:    0.00 PKD
ROOT
HETATM    1  C   UNL     1      -9.503   6.366  70.206  1.00  0.00    -0.161 C  
ENDROOT
BRANCH   1   2
HETATM    2  N   UNL     1     -10.364   5.218  70.413  1.00  0.00    -0.275 NA 
HETATM    3  C   UNL     1     -11.037   5.355  71.724  1.00  0.00    -0.081 C  
HETATM    4  C   UNL     1     -11.758   6.727  71.964  1.00  0.00    -0.306 C  
HETATM    5  C   UNL     1      -9.781   3.858  70.213  1.00  0.00    -0.175 C  
HETATM    6  C   UNL     1      -8.324   3.566  69.738  1.00  0.00    -0.080 C  
HETATM    7  H   UNL     1     -11.797   7.777  73.889  1.00  0.00     0.000 HD 
HETATM    8  C   UNL     1      -7.231   3.850  70.772  1.00  0.00    -0.037 C  
HETATM    9  N   UNL     1     -11.266   7.637  73.029  1.00  0.00    -0.380 NA 
HETATM   10  C   UNL     1      -9.984   8.330  72.803  1.00  0.00    -0.263 C  
HETATM   11  N   UNL     1      -6.067   4.538  70.192  1.00  0.00    -0.018 NA 
HETATM   12  C   UNL     1      -8.788   7.566  73.393  1.00  0.00    -0.241 C  
HETATM   13  H   UNL     1      -6.336   5.129  69.405  1.00  0.00     0.000 HD 
HETATM   14  H   UNL     1      -5.763   6.969  73.534  1.00  0.00     0.000 HD 
HETATM   15  C   UNL     1      -7.412   8.050  72.900  1.00  0.00    -0.119 C  
HETATM   16  C   UNL     1      -5.326   5.305  71.214  1.00  0.00    -0.005 C  
HETATM   17  C   UNL     1      -5.910   6.716  71.491  1.00  0.00    -0.036 C  
HETATM   18  N   UNL     1      -6.492   6.899  72.825  1.00  0.00    -0.057 NA 
ENDBRANCH   1   2
BRANCH   1  19
HETATM   19  C   UNL     1      -9.653   7.140  68.938  1.00  0.00    -0.142 A  
HETATM   20  C   UNL     1      -8.888   6.830  67.827  1.00  0.00    -0.118 A  
HETATM   21  C   UNL     1      -8.582   7.858  66.972  1.00  0.00    -0.128 A  
HETATM   22  C   UNL     1     -10.454   8.270  68.986  1.00  0.00    -0.212 A  
HETATM   23  C   UNL     1      -9.274   9.065  67.057  1.00  0.00    -0.169 A  
HETATM   24  C   UNL     1     -10.208   9.282  68.083  1.00  0.00    -0.246 A  
BRANCH  23  25
HETATM   25  C   UNL     1      -9.057  10.158  66.078  1.00  0.00    -0.154 C  
BRANCH  25  26
HETATM   26  N   UNL     1      -7.943  10.033  65.156  1.00  0.00    -0.139 NA 
HETATM   27  C   UNL     1     -11.972  13.076  64.187  1.00  0.00    -0.427 C  
HETATM   28  H   UNL     1     -11.929  11.004  63.972  1.00  0.00     0.000 HD 
HETATM   29  N   UNL     1     -11.593  11.834  63.484  1.00  0.00    -0.432 NA 
HETATM   30  C   UNL     1     -11.700  13.044  65.714  1.00  0.00    -0.382 C  
HETATM   31  C   UNL     1     -10.139  11.787  63.262  1.00  0.00    -0.420 C  
HETATM   32  C   UNL     1      -8.219  10.111  63.696  1.00  0.00    -0.166 C  
HETATM   33  N   UNL     1     -10.649  13.965  66.149  1.00  0.00    -0.287 NA 
HETATM   34  H   UNL     1     -10.971  14.932  66.103  1.00  0.00     0.000 HD 
HETATM   35  C   UNL     1      -9.627  10.359  63.080  1.00  0.00    -0.341 C  
HETATM   36  C   UNL     1     -10.121  13.653  67.487  1.00  0.00    -0.237 C  
HETATM   37  C   UNL     1      -8.595  13.471  67.397  1.00  0.00    -0.209 C  
HETATM   38  C   UNL     1      -8.044  12.362  68.305  1.00  0.00    -0.166 C  
HETATM   39  N   UNL     1      -6.651  12.018  67.981  1.00  0.00    -0.064 NA 
HETATM   40  C   UNL     1      -6.423  10.857  67.087  1.00  0.00    -0.078 C  
HETATM   41  H   UNL     1      -5.871  12.557  68.358  1.00  0.00     0.000 HD 
HETATM   42  C   UNL     1      -6.846  10.937  65.578  1.00  0.00     0.109 C  
ENDBRANCH  25  26
ENDBRANCH  23  25
ENDBRANCH   1  19
TORSDOF 4
ENDMDL
MODEL       22
REMARK 921   NORMALIZED FREE ENERGY PREDICTED BY IDOCK:   -5.16 KCAL/MOL
REMARK 922        TOTAL FREE ENERGY PREDICTED BY IDOCK:   -7.95 KCAL/MOL
REMARK 923 INTER-LIGAND FREE ENERGY PREDICTED BY IDOCK:   -7.08 KCAL/MOL
REMARK 924 INTRA-LIGAND FREE ENERGY PREDICTED BY IDOCK:   -0.87 KCAL/MOL
REMARK 927      BINDING AFFINITY PREDICTED BY RF-SCORE:    0.00 PKD
ROOT
HETATM    1  C   UNL     1     -10.126  10.905  66.524  1.00  0.00    -0.222 C  
ENDROOT
BRANCH   1   2
HETATM    2  N   UNL     1      -9.351  10.482  65.373  1.00  0.00    -0.195 NA 
HETATM    3  C   UNL     1      -7.995  11.066  65.470  1.00  0.00     0.086 C  
HETATM    4  C   UNL     1      -7.263  10.829  66.837  1.00  0.00    -0.115 C  
HETATM    5  C   UNL     1      -9.952  10.662  64.019  1.00  0.00    -0.337 C  
HETATM    6  C   UNL     1     -11.381  11.218  63.736  1.00  0.00    -0.153 C  
HETATM    7  H   UNL     1      -5.986  12.314  67.824  1.00  0.00     0.000 HD 
HETATM    8  C   UNL     1     -11.558  12.719  63.980  1.00  0.00    -0.424 C  
HETATM    9  N   UNL     1      -6.946  11.987  67.709  1.00  0.00    -0.093 NA 
HETATM   10  C   UNL     1      -8.065  12.652  68.404  1.00  0.00    -0.137 C  
HETATM   11  N   UNL     1     -12.813  13.035  64.682  1.00  0.00    -0.732 NA 
HETATM   12  C   UNL     1      -8.623  13.847  67.615  1.00  0.00    -0.190 C  
HETATM   13  H   UNL     1     -13.097  12.274  65.299  1.00  0.00     0.000 HD 
HETATM   14  H   UNL     1     -10.873  15.869  67.000  1.00  0.00     0.000 HD 
HETATM   15  C   UNL     1      -9.989  14.359  68.109  1.00  0.00    -0.223 C  
HETATM   16  C   UNL     1     -12.719  14.315  65.411  1.00  0.00    -0.369 C  
HETATM   17  C   UNL     1     -12.067  14.196  66.815  1.00  0.00    -0.442 C  
HETATM   18  N   UNL     1     -10.765  14.856  66.957  1.00  0.00    -0.300 NA 
ENDBRANCH   1   2
BRANCH   1  19
HETATM   19  C   UNL     1     -10.279   9.948  67.661  1.00  0.00    -0.255 A  
HETATM   20  C   UNL     1     -10.653  10.397  68.915  1.00  0.00    -0.241 A  
HETATM   21  C   UNL     1     -10.192   9.690  69.996  1.00  0.00    -0.296 A  
HETATM   22  C   UNL     1      -9.865   8.644  67.441  1.00  0.00    -0.249 A  
HETATM   23  C   UNL     1      -9.649   8.419  69.817  1.00  0.00    -0.170 A  
HETATM   24  C   UNL     1      -9.467   7.894  68.527  1.00  0.00    -0.148 A  
BRANCH  23  25
HETATM   25  C   UNL     1      -9.247   7.574  70.968  1.00  0.00    -0.152 C  
BRANCH  25  26
HETATM   26  N   UNL     1      -8.975   8.233  72.233  1.00  0.00    -0.193 NA 
HETATM   27  C   UNL     1      -9.781   3.166  71.903  1.00  0.00    -0.164 C  
HETATM   28  H   UNL     1     -11.251   4.641  71.850  1.00  0.00     0.000 HD 
HETATM   29  N   UNL     1     -10.654   4.177  72.534  1.00  0.00    -0.135 NA 
HETATM   30  C   UNL     1      -9.066   3.663  70.620  1.00  0.00    -0.114 C  
HETATM   31  C   UNL     1      -9.856   5.142  73.307  1.00  0.00    -0.153 C  
HETATM   32  C   UNL     1      -9.636   7.713  73.460  1.00  0.00    -0.290 C  
HETATM   33  N   UNL     1      -7.614   3.789  70.760  1.00  0.00    -0.041 NA 
HETATM   34  H   UNL     1      -7.173   2.871  70.799  1.00  0.00     0.000 HD 
HETATM   35  C   UNL     1     -10.579   6.474  73.493  1.00  0.00    -0.312 C  
HETATM   36  C   UNL     1      -7.000   4.622  69.714  1.00  0.00    -0.052 C  
HETATM   37  C   UNL     1      -6.200   5.758  70.378  1.00  0.00    -0.031 C  
HETATM   38  C   UNL     1      -6.277   7.095  69.629  1.00  0.00    -0.034 C  
HETATM   39  N   UNL     1      -5.758   8.214  70.432  1.00  0.00    -0.029 NA 
HETATM   40  C   UNL     1      -6.741   9.029  71.187  1.00  0.00    -0.090 C  
HETATM   41  H   UNL     1      -4.760   8.421  70.469  1.00  0.00     0.000 HD 
HETATM   42  C   UNL     1      -7.511   8.399  72.401  1.00  0.00    -0.088 C  
ENDBRANCH  25  26
ENDBRANCH  23  25
ENDBRANCH   1  19
TORSDOF 4
ENDMDL
MODEL       23
REMARK 921   NORMALIZED FREE ENERGY PREDICTED BY IDOCK:   -5.15 KCAL/MOL
REMARK 922        TOTAL FREE ENERGY PREDICTED BY IDOCK:   -7.94 KCAL/MOL
REMARK 923 INTER-LIGAND FREE ENERGY PREDICTED BY IDOCK:   -6.52 KCAL/MOL
REMARK 924 INTRA-LIGAND FREE ENERGY PREDICTED BY IDOCK:   -1.42 KCAL/MOL
REMARK 927      BINDING AFFINITY PREDICTED BY RF-SCORE:    0.00 PKD
ROOT
HETATM    1  C   UNL     1      -9.231   5.182  65.636  1.00  0.00    -0.151 C  
ENDROOT
BRANCH   1   2
HETATM    2  N   UNL     1      -8.401   5.926  64.709  1.00  0.00    -0.130 NA 
HETATM    3  C   UNL     1      -8.121   5.075  63.530  1.00  0.00    -0.105 C  
HETATM    4  C   UNL     1      -9.384   4.430  62.859  1.00  0.00    -0.117 C  
HETATM    5  C   UNL     1      -7.170   6.582  65.240  1.00  0.00    -0.073 C  
HETATM    6  C   UNL     1      -6.728   6.586  66.736  1.00  0.00    -0.060 C  
HETATM    7  H   UNL     1      -9.433   2.403  62.023  1.00  0.00     0.000 HD 
HETATM    8  C   UNL     1      -6.206   5.248  67.265  1.00  0.00    -0.031 C  
HETATM    9  N   UNL     1      -9.548   2.955  62.874  1.00  0.00    -0.092 NA 
HETATM   10  C   UNL     1      -9.882   2.313  64.159  1.00  0.00    -0.098 C  
HETATM   11  N   UNL     1      -6.726   4.926  68.604  1.00  0.00    -0.049 NA 
HETATM   12  C   UNL     1      -8.636   1.829  64.918  1.00  0.00    -0.099 C  
HETATM   13  H   UNL     1      -7.654   5.324  68.749  1.00  0.00     0.000 HD 
HETATM   14  H   UNL     1      -7.225   0.957  67.521  1.00  0.00     0.000 HD 
HETATM   15  C   UNL     1      -8.886   1.472  66.396  1.00  0.00    -0.113 C  
HETATM   16  C   UNL     1      -6.719   3.470  68.853  1.00  0.00    -0.045 C  
HETATM   17  C   UNL     1      -7.959   2.727  68.289  1.00  0.00    -0.058 C  
HETATM   18  N   UNL     1      -7.683   1.803  67.183  1.00  0.00    -0.060 NA 
ENDBRANCH   1   2
BRANCH   1  19
HETATM   19  C   UNL     1     -10.026   5.949  66.642  1.00  0.00    -0.214 A  
HETATM   20  C   UNL     1     -10.261   7.302  66.471  1.00  0.00    -0.139 A  
HETATM   21  C   UNL     1     -10.403   8.059  67.606  1.00  0.00    -0.312 A  
HETATM   22  C   UNL     1     -10.357   5.287  67.814  1.00  0.00    -0.196 A  
HETATM   23  C   UNL     1     -10.615   7.439  68.836  1.00  0.00    -0.191 A  
HETATM   24  C   UNL     1     -10.576   6.040  68.947  1.00  0.00    -0.356 A  
BRANCH  23  25
HETATM   25  C   UNL     1     -10.890   8.222  70.066  1.00  0.00    -0.232 C  
BRANCH  25  26
HETATM   26  N   UNL     1     -10.186   7.850  71.280  1.00  0.00    -0.187 NA 
HETATM   27  C   UNL     1      -8.641  11.746  68.303  1.00  0.00    -0.162 C  
HETATM   28  H   UNL     1      -8.333   9.722  67.920  1.00  0.00     0.000 HD 
HETATM   29  N   UNL     1      -7.958  10.455  68.521  1.00  0.00    -0.108 NA 
HETATM   30  C   UNL     1     -10.187  11.642  68.262  1.00  0.00    -0.199 C  
HETATM   31  C   UNL     1      -8.009  10.075  69.942  1.00  0.00    -0.171 C  
HETATM   32  C   UNL     1      -8.706   7.999  71.316  1.00  0.00    -0.138 C  
HETATM   33  N   UNL     1     -10.857  12.293  69.389  1.00  0.00    -0.457 NA 
HETATM   34  H   UNL     1     -10.800  13.308  69.308  1.00  0.00     0.000 HD 
HETATM   35  C   UNL     1      -7.853   8.569  70.145  1.00  0.00    -0.099 C  
HETATM   36  C   UNL     1     -12.252  11.859  69.566  1.00  0.00    -0.136 C  
HETATM   37  C   UNL     1     -12.439  11.331  71.000  1.00  0.00    -0.503 C  
HETATM   38  C   UNL     1     -13.376  10.119  71.101  1.00  0.00    -0.295 C  
HETATM   39  N   UNL     1     -13.300   9.465  72.416  1.00  0.00    -0.557 NA 
HETATM   40  C   UNL     1     -12.406   8.288  72.545  1.00  0.00    -0.276 C  
HETATM   41  H   UNL     1     -13.841   9.807  73.210  1.00  0.00     0.000 HD 
HETATM   42  C   UNL     1     -10.850   8.474  72.450  1.00  0.00    -0.308 C  
ENDBRANCH  25  26
ENDBRANCH  23  25
ENDBRANCH   1  19
TORSDOF 4
ENDMDL
MODEL       24
REMARK 921   NORMALIZED FREE ENERGY PREDICTED BY IDOCK:   -5.09 KCAL/MOL
REMARK 922        TOTAL FREE ENERGY PREDICTED BY IDOCK:   -7.86 KCAL/MOL
REMARK 923 INTER-LIGAND FREE ENERGY PREDICTED BY IDOCK:   -6.22 KCAL/MOL
REMARK 924 INTRA-LIGAND FREE ENERGY PREDICTED BY IDOCK:   -1.64 KCAL/MOL
REMARK 927      BINDING AFFINITY PREDICTED BY RF-SCORE:    0.00 PKD
ROOT
HETATM    1  C   UNL     1      -9.408   7.138  71.218  1.00  0.00    -0.155 C  
ENDROOT
BRANCH   1   2
HETATM    2  N   UNL     1     -10.836   6.891  71.285  1.00  0.00    -0.231 NA 
HETATM    3  C   UNL     1     -11.122   6.061  72.476  1.00  0.00    -0.279 C  
HETATM    4  C   UNL     1     -10.516   6.595  73.821  1.00  0.00    -0.333 C  
HETATM    5  C   UNL     1     -11.517   6.380  70.059  1.00  0.00    -0.428 C  
HETATM    6  C   UNL     1     -10.828   6.142  68.680  1.00  0.00    -0.403 C  
HETATM    7  H   UNL     1      -9.678   5.310  75.389  1.00  0.00     0.000 HD 
HETATM    8  C   UNL     1      -9.885   4.938  68.621  1.00  0.00    -0.152 C  
HETATM    9  N   UNL     1      -9.472   5.803  74.520  1.00  0.00    -0.148 NA 
HETATM   10  C   UNL     1      -8.128   5.753  73.915  1.00  0.00    -0.109 C  
HETATM   11  N   UNL     1      -8.629   5.235  67.913  1.00  0.00    -0.104 NA 
HETATM   12  C   UNL     1      -7.939   4.534  72.998  1.00  0.00    -0.095 C  
HETATM   13  H   UNL     1      -8.368   6.216  68.013  1.00  0.00     0.000 HD 
HETATM   14  H   UNL     1      -6.468   3.073  70.711  1.00  0.00     0.000 HD 
HETATM   15  C   UNL     1      -6.704   4.608  72.081  1.00  0.00    -0.050 C  
HETATM   16  C   UNL     1      -7.538   4.339  68.345  1.00  0.00    -0.064 C  
HETATM   17  C   UNL     1      -6.815   4.802  69.638  1.00  0.00    -0.052 C  
HETATM   18  N   UNL     1      -7.007   3.933  70.805  1.00  0.00    -0.033 NA 
ENDBRANCH   1   2
BRANCH   1  19
HETATM   19  C   UNL     1      -8.942   8.408  70.584  1.00  0.00    -0.168 A  
HETATM   20  C   UNL     1      -9.784   9.503  70.496  1.00  0.00    -0.325 A  
HETATM   21  C   UNL     1      -9.599  10.349  69.433  1.00  0.00    -0.213 A  
HETATM   22  C   UNL     1      -7.712   8.374  69.947  1.00  0.00    -0.092 A  
HETATM   23  C   UNL     1      -8.430  10.275  68.678  1.00  0.00    -0.127 A  
HETATM   24  C   UNL     1      -7.482   9.269  68.925  1.00  0.00    -0.075 A  
BRANCH  23  25
HETATM   25  C   UNL     1      -8.138  11.248  67.595  1.00  0.00    -0.119 C  
BRANCH  25  26
HETATM   26  N   UNL     1      -7.147  12.277  67.855  1.00  0.00    -0.094 NA 
HETATM   27  C   UNL     1      -7.214   9.580  63.478  1.00  0.00    -0.105 C  
HETATM   28  H   UNL     1      -6.489   8.910  65.312  1.00  0.00     0.000 HD 
HETATM   29  N   UNL     1      -6.202   9.527  64.552  1.00  0.00    -0.079 NA 
HETATM   30  C   UNL     1      -8.665   9.780  63.988  1.00  0.00    -0.216 C  
HETATM   31  C   UNL     1      -5.887  10.880  65.037  1.00  0.00     0.100 C  
HETATM   32  C   UNL     1      -5.772  12.088  67.320  1.00  0.00    -0.139 C  
HETATM   33  N   UNL     1      -9.250  11.072  63.625  1.00  0.00    -0.316 NA 
HETATM   34  H   UNL     1      -9.464  11.106  62.628  1.00  0.00     0.000 HD 
HETATM   35  C   UNL     1      -5.325  10.871  66.457  1.00  0.00    -0.089 C  
HETATM   36  C   UNL     1     -10.433  11.420  64.427  1.00  0.00    -0.330 C  
HETATM   37  C   UNL     1     -10.207  12.790  65.092  1.00  0.00    -0.297 C  
HETATM   38  C   UNL     1     -10.776  12.896  66.513  1.00  0.00    -0.269 C  
HETATM   39  N   UNL     1     -10.292  14.092  67.220  1.00  0.00    -0.266 NA 
HETATM   40  C   UNL     1      -9.125  13.930  68.121  1.00  0.00    -0.193 C  
HETATM   41  H   UNL     1     -10.742  14.999  67.094  1.00  0.00     0.000 HD 
HETATM   42  C   UNL     1      -7.712  13.605  67.520  1.00  0.00    -0.173 C  
ENDBRANCH  25  26
ENDBRANCH  23  25
ENDBRANCH   1  19
TORSDOF 4
ENDMDL
MODEL       25
REMARK 921   NORMALIZED FREE ENERGY PREDICTED BY IDOCK:   -5.07 KCAL/MOL
REMARK 922        TOTAL FREE ENERGY PREDICTED BY IDOCK:   -7.83 KCAL/MOL
REMARK 923 INTER-LIGAND FREE ENERGY PREDICTED BY IDOCK:   -6.76 KCAL/MOL
REMARK 924 INTRA-LIGAND FREE ENERGY PREDICTED BY IDOCK:   -1.08 KCAL/MOL
REMARK 927      BINDING AFFINITY PREDICTED BY RF-SCORE:    0.00 PKD
ROOT
HETATM    1  C   UNL     1     -10.041  10.624  65.869  1.00  0.00    -0.261 C  
ENDROOT
BRANCH   1   2
HETATM    2  N   UNL     1      -9.389  10.490  64.580  1.00  0.00    -0.225 NA 
HETATM    3  C   UNL     1      -8.035  11.082  64.666  1.00  0.00     0.432 C  
HETATM    4  C   UNL     1      -7.160  10.573  65.864  1.00  0.00    -0.134 C  
HETATM    5  C   UNL     1     -10.132  10.945  63.368  1.00  0.00    -0.340 C  
HETATM    6  C   UNL     1     -11.589  11.503  63.364  1.00  0.00    -0.232 C  
HETATM    7  H   UNL     1      -5.798  11.845  67.021  1.00  0.00     0.000 HD 
HETATM    8  C   UNL     1     -11.752  12.907  63.952  1.00  0.00    -0.460 C  
HETATM    9  N   UNL     1      -6.762  11.521  66.935  1.00  0.00    -0.140 NA 
HETATM   10  C   UNL     1      -7.806  11.979  67.870  1.00  0.00    -0.144 C  
HETATM   11  N   UNL     1     -12.927  13.020  64.831  1.00  0.00    -0.768 NA 
HETATM   12  C   UNL     1      -8.455  13.301  67.428  1.00  0.00    -0.206 C  
HETATM   13  H   UNL     1     -13.137  12.133  65.290  1.00  0.00     0.000 HD 
HETATM   14  H   UNL     1     -10.776  15.335  67.512  1.00  0.00     0.000 HD 
HETATM   15  C   UNL     1      -9.766  13.647  68.160  1.00  0.00    -0.229 C  
HETATM   16  C   UNL     1     -12.767  14.111  65.814  1.00  0.00    -0.413 C  
HETATM   17  C   UNL     1     -11.968  13.706  67.081  1.00  0.00    -0.393 C  
HETATM   18  N   UNL     1     -10.664  14.361  67.233  1.00  0.00    -0.282 NA 
ENDBRANCH   1   2
BRANCH   1  19
HETATM   19  C   UNL     1     -10.029   9.448  66.790  1.00  0.00    -0.305 A  
HETATM   20  C   UNL     1     -10.245   9.612  68.147  1.00  0.00    -0.225 A  
HETATM   21  C   UNL     1      -9.636   8.719  68.990  1.00  0.00    -0.162 A  
HETATM   22  C   UNL     1      -9.625   8.236  66.252  1.00  0.00    -0.266 A  
HETATM   23  C   UNL     1      -9.100   7.536  68.483  1.00  0.00    -0.134 A  
HETATM   24  C   UNL     1      -9.079   7.297  67.099  1.00  0.00    -0.144 A  
BRANCH  23  25
HETATM   25  C   UNL     1      -8.539   6.490  69.373  1.00  0.00    -0.134 C  
BRANCH  25  26
HETATM   26  N   UNL     1      -7.135   6.152  69.223  1.00  0.00    -0.064 NA 
HETATM   27  C   UNL     1      -9.000   8.254  73.528  1.00  0.00    -0.167 C  
HETATM   28  H   UNL     1      -8.585   9.268  71.756  1.00  0.00     0.000 HD 
HETATM   29  N   UNL     1      -8.082   8.872  72.550  1.00  0.00    -0.348 NA 
HETATM   30  C   UNL     1     -10.073   7.334  72.891  1.00  0.00    -0.227 C  
HETATM   31  C   UNL     1      -7.056   7.908  72.120  1.00  0.00    -0.076 C  
HETATM   32  C   UNL     1      -6.122   7.022  69.878  1.00  0.00    -0.024 C  
HETATM   33  N   UNL     1      -9.913   5.916  73.222  1.00  0.00    -0.174 NA 
HETATM   34  H   UNL     1     -10.162   5.741  74.196  1.00  0.00     0.000 HD 
HETATM   35  C   UNL     1      -6.464   8.261  70.757  1.00  0.00    -0.037 C  
HETATM   36  C   UNL     1     -10.657   5.022  72.321  1.00  0.00    -0.206 C  
HETATM   37  C   UNL     1      -9.682   4.002  71.704  1.00  0.00    -0.242 C  
HETATM   38  C   UNL     1      -9.983   3.660  70.239  1.00  0.00     0.154 C  
HETATM   39  N   UNL     1      -8.879   2.926  69.601  1.00  0.00    -0.077 NA 
HETATM   40  C   UNL     1      -7.903   3.711  68.807  1.00  0.00    -0.055 C  
HETATM   41  H   UNL     1      -8.788   1.915  69.700  1.00  0.00     0.000 HD 
HETATM   42  C   UNL     1      -6.935   4.715  69.528  1.00  0.00    -0.050 C  
ENDBRANCH  25  26
ENDBRANCH  23  25
ENDBRANCH   1  19
TORSDOF 4
ENDMDL
MODEL       26
REMARK 921   NORMALIZED FREE ENERGY PREDICTED BY IDOCK:   -5.07 KCAL/MOL
REMARK 922        TOTAL FREE ENERGY PREDICTED BY IDOCK:   -7.83 KCAL/MOL
REMARK 923 INTER-LIGAND FREE ENERGY PREDICTED BY IDOCK:   -6.33 KCAL/MOL
REMARK 924 INTRA-LIGAND FREE ENERGY PREDICTED BY IDOCK:   -1.50 KCAL/MOL
REMARK 927      BINDING AFFINITY PREDICTED BY RF-SCORE:    0.00 PKD
ROOT
HETATM    1  C   UNL     1      -8.146  12.150  67.979  1.00  0.00    -0.155 C  
ENDROOT
BRANCH   1   2
HETATM    2  N   UNL     1      -6.715  12.328  67.820  1.00  0.00    -0.094 NA 
HETATM    3  C   UNL     1      -6.447  13.738  67.459  1.00  0.00    -0.072 C  
HETATM    4  C   UNL     1      -7.108  14.804  68.401  1.00  0.00    -0.114 C  
HETATM    5  C   UNL     1      -5.982  11.368  66.943  1.00  0.00    -0.122 C  
HETATM    6  C   UNL     1      -6.621  10.141  66.222  1.00  0.00    -0.094 C  
HETATM    7  H   UNL     1      -7.962  16.700  67.705  1.00  0.00     0.000 HD 
HETATM    8  C   UNL     1      -7.531  10.480  65.039  1.00  0.00    -0.011 C  
HETATM    9  N   UNL     1      -8.153  15.710  67.862  1.00  0.00    -0.138 NA 
HETATM   10  C   UNL     1      -9.476  15.131  67.560  1.00  0.00    -0.206 C  
HETATM   11  N   UNL     1      -8.770   9.686  65.031  1.00  0.00    -0.163 NA 
HETATM   12  C   UNL     1      -9.604  14.686  66.095  1.00  0.00    -0.336 C  
HETATM   13  H   UNL     1      -9.060   9.437  65.977  1.00  0.00     0.000 HD 
HETATM   14  H   UNL     1     -10.964  13.011  63.887  1.00  0.00     0.000 HD 
HETATM   15  C   UNL     1     -10.811  13.773  65.806  1.00  0.00    -0.277 C  
HETATM   16  C   UNL     1      -9.852  10.377  64.300  1.00  0.00    -0.322 C  
HETATM   17  C   UNL     1     -10.627  11.416  65.153  1.00  0.00    -0.293 C  
HETATM   18  N   UNL     1     -10.450  12.814  64.745  1.00  0.00    -0.319 NA 
ENDBRANCH   1   2
BRANCH   1  19
HETATM   19  C   UNL     1      -8.624  11.130  68.960  1.00  0.00    -0.033 A  
HETATM   20  C   UNL     1      -7.743  10.540  69.851  1.00  0.00    -0.017 A  
HETATM   21  C   UNL     1      -8.025   9.260  70.252  1.00  0.00    -0.155 A  
HETATM   22  C   UNL     1      -9.929  10.688  68.817  1.00  0.00    -0.201 A  
HETATM   23  C   UNL     1      -9.288   8.718  70.022  1.00  0.00    -0.175 A  
HETATM   24  C   UNL     1     -10.247   9.430  69.283  1.00  0.00    -0.209 A  
BRANCH  23  25
HETATM   25  C   UNL     1      -9.671   7.383  70.543  1.00  0.00    -0.175 C  
BRANCH  25  26
HETATM   26  N   UNL     1     -11.009   6.900  70.256  1.00  0.00    -0.266 NA 
HETATM   27  C   UNL     1      -6.874   3.862  69.941  1.00  0.00    -0.037 C  
HETATM   28  H   UNL     1      -7.459   5.276  68.528  1.00  0.00     0.000 HD 
HETATM   29  N   UNL     1      -7.725   4.340  68.833  1.00  0.00    -0.058 NA 
HETATM   30  C   UNL     1      -6.670   4.901  71.074  1.00  0.00    -0.035 C  
HETATM   31  C   UNL     1      -9.148   4.271  69.205  1.00  0.00    -0.126 C  
HETATM   32  C   UNL     1     -11.179   5.869  69.196  1.00  0.00    -0.147 C  
HETATM   33  N   UNL     1      -7.297   4.527  72.343  1.00  0.00    -0.078 NA 
HETATM   34  H   UNL     1      -6.789   3.762  72.787  1.00  0.00     0.000 HD 
HETATM   35  C   UNL     1     -10.006   5.237  68.390  1.00  0.00    -0.220 C  
HETATM   36  C   UNL     1      -7.452   5.659  73.270  1.00  0.00    -0.096 C  
HETATM   37  C   UNL     1      -8.932   5.780  73.676  1.00  0.00    -0.127 C  
HETATM   38  C   UNL     1      -9.422   7.228  73.823  1.00  0.00    -0.268 C  
HETATM   39  N   UNL     1     -10.887   7.312  73.917  1.00  0.00    -0.554 NA 
HETATM   40  C   UNL     1     -11.638   7.600  72.671  1.00  0.00    -0.317 C  
HETATM   41  H   UNL     1     -11.370   7.178  74.806  1.00  0.00     0.000 HD 
HETATM   42  C   UNL     1     -11.686   6.531  71.523  1.00  0.00    -0.324 C  
ENDBRANCH  25  26
ENDBRANCH  23  25
ENDBRANCH   1  19
TORSDOF 4
ENDMDL
MODEL       27
REMARK 921   NORMALIZED FREE ENERGY PREDICTED BY IDOCK:   -5.01 KCAL/MOL
REMARK 922        TOTAL FREE ENERGY PREDICTED BY IDOCK:   -7.76 KCAL/MOL
REMARK 923 INTER-LIGAND FREE ENERGY PREDICTED BY IDOCK:   -6.73 KCAL/MOL
REMARK 924 INTRA-LIGAND FREE ENERGY PREDICTED BY IDOCK:   -1.02 KCAL/MOL
REMARK 927      BINDING AFFINITY PREDICTED BY RF-SCORE:    0.00 PKD
ROOT
HETATM    1  C   UNL     1      -9.097  14.129  67.129  1.00  0.00    -0.232 C  
ENDROOT
BRANCH   1   2
HETATM    2  N   UNL     1      -9.516  14.446  65.777  1.00  0.00    -0.174 NA 
HETATM    3  C   UNL     1      -9.787  15.898  65.689  1.00  0.00    -0.302 C  
HETATM    4  C   UNL     1      -8.636  16.824  66.219  1.00  0.00    -0.305 C  
HETATM    5  C   UNL     1     -10.608  13.627  65.171  1.00  0.00    -0.361 C  
HETATM    6  C   UNL     1     -11.302  12.409  65.854  1.00  0.00    -0.399 C  
HETATM    7  H   UNL     1      -8.968  18.685  67.330  1.00  0.00     0.000 HD 
HETATM    8  C   UNL     1     -12.246  12.757  67.008  1.00  0.00    -0.013 C  
HETATM    9  N   UNL     1      -8.871  17.673  67.413  1.00  0.00    -0.233 NA 
HETATM   10  C   UNL     1      -8.960  17.004  68.725  1.00  0.00    -0.249 C  
HETATM   11  N   UNL     1     -12.085  11.860  68.163  1.00  0.00    -0.486 NA 
HETATM   12  C   UNL     1     -10.407  16.666  69.117  1.00  0.00    -0.326 C  
HETATM   13  H   UNL     1     -11.128  11.512  68.235  1.00  0.00     0.000 HD 
HETATM   14  H   UNL     1     -12.454  15.056  70.775  1.00  0.00     0.000 HD 
HETATM   15  C   UNL     1     -10.538  15.675  70.290  1.00  0.00    -0.313 C  
HETATM   16  C   UNL     1     -12.520  12.506  69.418  1.00  0.00     0.293 C  
HETATM   17  C   UNL     1     -11.436  13.402  70.075  1.00  0.00    -0.056 C  
HETATM   18  N   UNL     1     -11.736  14.838  70.085  1.00  0.00    -0.284 NA 
ENDBRANCH   1   2
BRANCH   1  19
HETATM   19  C   UNL     1      -8.555  12.763  67.396  1.00  0.00    -0.194 A  
HETATM   20  C   UNL     1      -8.052  11.989  66.365  1.00  0.00     0.150 A  
HETATM   21  C   UNL     1      -8.161  10.628  66.495  1.00  0.00    -0.140 A  
HETATM   22  C   UNL     1      -8.740  12.256  68.673  1.00  0.00     0.021 A  
HETATM   23  C   UNL     1      -8.469  10.068  67.733  1.00  0.00    -0.114 A  
HETATM   24  C   UNL     1      -8.777  10.888  68.831  1.00  0.00    -0.144 A  
BRANCH  23  25
HETATM   25  C   UNL     1      -8.480   8.600  67.943  1.00  0.00    -0.129 C  
BRANCH  25  26
HETATM   26  N   UNL     1      -7.312   7.844  67.526  1.00  0.00    -0.090 NA 
HETATM   27  C   UNL     1      -8.743   8.178  72.453  1.00  0.00    -0.189 C  
HETATM   28  H   UNL     1      -7.744   9.651  71.371  1.00  0.00     0.000 HD 
HETATM   29  N   UNL     1      -7.540   8.760  71.824  1.00  0.00    -0.278 NA 
HETATM   30  C   UNL     1      -9.999   8.193  71.544  1.00  0.00    -0.182 C  
HETATM   31  C   UNL     1      -6.926   7.801  70.892  1.00  0.00    -0.049 C  
HETATM   32  C   UNL     1      -6.132   7.806  68.432  1.00  0.00    -0.036 C  
HETATM   33  N   UNL     1     -10.447   6.862  71.128  1.00  0.00    -0.212 NA 
HETATM   34  H   UNL     1     -10.867   6.360  71.910  1.00  0.00     0.000 HD 
HETATM   35  C   UNL     1      -6.074   8.492  69.828  1.00  0.00    -0.035 C  
HETATM   36  C   UNL     1     -11.360   6.892  69.974  1.00  0.00    -0.294 C  
HETATM   37  C   UNL     1     -10.789   5.999  68.857  1.00  0.00    -0.400 C  
HETATM   38  C   UNL     1     -11.010   6.552  67.442  1.00  0.00    -0.378 C  
HETATM   39  N   UNL     1     -10.208   5.841  66.434  1.00  0.00    -0.351 NA 
HETATM   40  C   UNL     1      -8.910   6.443  66.043  1.00  0.00    -0.150 C  
HETATM   41  H   UNL     1     -10.531   4.966  66.021  1.00  0.00     0.000 HD 
HETATM   42  C   UNL     1      -7.729   6.495  67.075  1.00  0.00    -0.100 C  
ENDBRANCH  25  26
ENDBRANCH  23  25
ENDBRANCH   1  19
TORSDOF 4
ENDMDL
MODEL       28
REMARK 921   NORMALIZED FREE ENERGY PREDICTED BY IDOCK:   -5.01 KCAL/MOL
REMARK 922        TOTAL FREE ENERGY PREDICTED BY IDOCK:   -7.76 KCAL/MOL
REMARK 923 INTER-LIGAND FREE ENERGY PREDICTED BY IDOCK:   -6.45 KCAL/MOL
REMARK 924 INTRA-LIGAND FREE ENERGY PREDICTED BY IDOCK:   -1.30 KCAL/MOL
REMARK 927      BINDING AFFINITY PREDICTED BY RF-SCORE:    0.00 PKD
ROOT
HETATM    1  C   UNL     1      -8.813   9.760  65.711  1.00  0.00    -0.153 C  
ENDROOT
BRANCH   1   2
HETATM    2  N   UNL     1      -7.655   9.782  64.838  1.00  0.00    -0.122 NA 
HETATM    3  C   UNL     1      -6.651  10.714  65.400  1.00  0.00    -0.026 C  
HETATM    4  C   UNL     1      -6.293  10.476  66.909  1.00  0.00    -0.074 C  
HETATM    5  C   UNL     1      -7.880  10.003  63.379  1.00  0.00    -0.151 C  
HETATM    6  C   UNL     1      -9.274  10.153  62.697  1.00  0.00    -0.321 C  
HETATM    7  H   UNL     1      -5.907  12.083  68.350  1.00  0.00     0.000 HD 
HETATM    8  C   UNL     1      -9.998  11.473  62.977  1.00  0.00    -0.322 C  
HETATM    9  N   UNL     1      -6.632  11.513  67.915  1.00  0.00    -0.061 NA 
HETATM   10  C   UNL     1      -8.054  11.693  68.264  1.00  0.00    -0.150 C  
HETATM   11  N   UNL     1     -11.430  11.285  63.265  1.00  0.00    -0.796 NA 
HETATM   12  C   UNL     1      -8.733  12.787  67.424  1.00  0.00    -0.196 C  
HETATM   13  H   UNL     1     -11.605  10.382  63.706  1.00  0.00     0.000 HD 
HETATM   14  H   UNL     1     -11.261  14.132  66.271  1.00  0.00     0.000 HD 
HETATM   15  C   UNL     1     -10.272  12.785  67.494  1.00  0.00    -0.216 C  
HETATM   16  C   UNL     1     -11.971  12.395  64.075  1.00  0.00    -0.460 C  
HETATM   17  C   UNL     1     -11.733  12.238  65.600  1.00  0.00    -0.382 C  
HETATM   18  N   UNL     1     -10.816  13.218  66.193  1.00  0.00    -0.279 NA 
ENDBRANCH   1   2
BRANCH   1  19
HETATM   19  C   UNL     1      -8.977   8.598  66.635  1.00  0.00    -0.174 A  
HETATM   20  C   UNL     1      -9.647   8.741  67.837  1.00  0.00    -0.169 A  
HETATM   21  C   UNL     1      -9.256   7.930  68.871  1.00  0.00    -0.144 A  
HETATM   22  C   UNL     1      -8.285   7.440  66.313  1.00  0.00    -0.126 A  
HETATM   23  C   UNL     1      -8.455   6.818  68.621  1.00  0.00    -0.123 A  
HETATM   24  C   UNL     1      -7.949   6.577  67.333  1.00  0.00    -0.113 A  
BRANCH  23  25
HETATM   25  C   UNL     1      -8.107   5.851  69.691  1.00  0.00    -0.106 C  
BRANCH  25  26
HETATM   26  N   UNL     1      -6.708   5.506  69.867  1.00  0.00    -0.049 NA 
HETATM   27  C   UNL     1      -9.284   8.334  73.301  1.00  0.00    -0.193 C  
HETATM   28  H   UNL     1      -8.527   9.014  71.483  1.00  0.00     0.000 HD 
HETATM   29  N   UNL     1      -8.188   8.774  72.415  1.00  0.00    -0.390 NA 
HETATM   30  C   UNL     1     -10.243   7.302  72.653  1.00  0.00    -0.212 C  
HETATM   31  C   UNL     1      -7.123   7.759  72.363  1.00  0.00    -0.080 C  
HETATM   32  C   UNL     1      -5.813   6.492  70.531  1.00  0.00    -0.023 C  
HETATM   33  N   UNL     1     -10.180   5.970  73.258  1.00  0.00    -0.193 NA 
HETATM   34  H   UNL     1     -10.608   5.972  74.183  1.00  0.00     0.000 HD 
HETATM   35  C   UNL     1      -6.283   7.866  71.093  1.00  0.00    -0.034 C  
HETATM   36  C   UNL     1     -10.765   4.919  72.411  1.00  0.00    -0.175 C  
HETATM   37  C   UNL     1      -9.718   3.815  72.180  1.00  0.00    -0.228 C  
HETATM   38  C   UNL     1      -9.751   3.209  70.770  1.00  0.00    -0.087 C  
HETATM   39  N   UNL     1      -8.566   2.384  70.490  1.00  0.00    -0.051 NA 
HETATM   40  C   UNL     1      -7.442   3.022  69.763  1.00  0.00    -0.044 C  
HETATM   41  H   UNL     1      -8.518   1.408  70.786  1.00  0.00     0.000 HD 
HETATM   42  C   UNL     1      -6.601   4.151  70.458  1.00  0.00    -0.032 C  
ENDBRANCH  25  26
ENDBRANCH  23  25
ENDBRANCH   1  19
TORSDOF 4
ENDMDL
MODEL       29
REMARK 921   NORMALIZED FREE ENERGY PREDICTED BY IDOCK:   -4.98 KCAL/MOL
REMARK 922        TOTAL FREE ENERGY PREDICTED BY IDOCK:   -7.72 KCAL/MOL
REMARK 923 INTER-LIGAND FREE ENERGY PREDICTED BY IDOCK:   -6.42 KCAL/MOL
REMARK 924 INTRA-LIGAND FREE ENERGY PREDICTED BY IDOCK:   -1.30 KCAL/MOL
REMARK 927      BINDING AFFINITY PREDICTED BY RF-SCORE:    0.00 PKD
ROOT
HETATM    1  C   UNL     1      -8.829  11.443  67.347  1.00  0.00    -0.150 C  
ENDROOT
BRANCH   1   2
HETATM    2  N   UNL     1      -8.173  10.798  66.225  1.00  0.00    -0.157 NA 
HETATM    3  C   UNL     1      -6.979  11.589  65.851  1.00  0.00     0.511 C  
HETATM    4  C   UNL     1      -6.006  11.926  67.034  1.00  0.00    -0.153 C  
HETATM    5  C   UNL     1      -9.006  10.432  65.041  1.00  0.00    -0.195 C  
HETATM    6  C   UNL     1     -10.549  10.633  64.931  1.00  0.00    -0.192 C  
HETATM    7  H   UNL     1      -4.944  13.833  67.249  1.00  0.00     0.000 HD 
HETATM    8  C   UNL     1     -11.008  12.084  64.767  1.00  0.00    -0.311 C  
HETATM    9  N   UNL     1      -5.816  13.340  67.445  1.00  0.00    -0.352 NA 
HETATM   10  C   UNL     1      -6.928  14.007  68.148  1.00  0.00    -0.120 C  
HETATM   11  N   UNL     1     -12.174  12.408  65.606  1.00  0.00    -0.626 NA 
HETATM   12  C   UNL     1      -7.851  14.778  67.191  1.00  0.00    -0.180 C  
HETATM   13  H   UNL     1     -12.183  11.853  66.462  1.00  0.00     0.000 HD 
HETATM   14  H   UNL     1     -10.557  16.109  66.531  1.00  0.00     0.000 HD 
HETATM   15  C   UNL     1      -9.200  15.200  67.804  1.00  0.00    -0.180 C  
HETATM   16  C   UNL     1     -12.247  13.853  65.899  1.00  0.00    -0.467 C  
HETATM   17  C   UNL     1     -11.370  14.299  67.099  1.00  0.00    -0.337 C  
HETATM   18  N   UNL     1     -10.238  15.167  66.757  1.00  0.00    -0.259 NA 
ENDBRANCH   1   2
BRANCH   1  19
HETATM   19  C   UNL     1      -9.023  10.651  68.599  1.00  0.00    -0.170 A  
HETATM   20  C   UNL     1      -7.938  10.280  69.374  1.00  0.00    -0.162 A  
HETATM   21  C   UNL     1      -8.048   9.113  70.084  1.00  0.00    -0.145 A  
HETATM   22  C   UNL     1     -10.299  10.170  68.843  1.00  0.00    -0.223 A  
HETATM   23  C   UNL     1      -9.295   8.516  70.256  1.00  0.00    -0.171 A  
HETATM   24  C   UNL     1     -10.432   9.038  69.617  1.00  0.00    -0.227 A  
BRANCH  23  25
HETATM   25  C   UNL     1      -9.475   7.319  71.115  1.00  0.00    -0.156 C  
BRANCH  25  26
HETATM   26  N   UNL     1     -10.603   6.447  70.837  1.00  0.00    -0.227 NA 
HETATM   27  C   UNL     1      -5.739   4.962  70.079  1.00  0.00    -0.016 C  
HETATM   28  H   UNL     1      -6.843   6.208  68.827  1.00  0.00     0.000 HD 
HETATM   29  N   UNL     1      -6.772   5.217  69.055  1.00  0.00    -0.051 NA 
HETATM   30  C   UNL     1      -5.806   5.923  71.294  1.00  0.00    -0.025 C  
HETATM   31  C   UNL     1      -8.067   4.659  69.474  1.00  0.00    -0.065 C  
HETATM   32  C   UNL     1     -10.502   5.500  69.693  1.00  0.00    -0.309 C  
HETATM   33  N   UNL     1      -6.191   5.271  72.548  1.00  0.00    -0.030 NA 
HETATM   34  H   UNL     1      -5.435   4.683  72.898  1.00  0.00     0.000 HD 
HETATM   35  C   UNL     1      -9.244   5.348  68.787  1.00  0.00    -0.148 C  
HETATM   36  C   UNL     1      -6.640   6.218  73.581  1.00  0.00    -0.074 C  
HETATM   37  C   UNL     1      -8.049   5.817  74.054  1.00  0.00    -0.109 C  
HETATM   38  C   UNL     1      -8.969   7.009  74.354  1.00  0.00    -0.207 C  
HETATM   39  N   UNL     1     -10.374   6.602  74.513  1.00  0.00    -0.443 NA 
HETATM   40  C   UNL     1     -11.260   6.720  73.329  1.00  0.00    -0.022 C  
HETATM   41  H   UNL     1     -10.726   6.251  75.404  1.00  0.00     0.000 HD 
HETATM   42  C   UNL     1     -11.037   5.783  72.089  1.00  0.00    -0.271 C  
ENDBRANCH  25  26
ENDBRANCH  23  25
ENDBRANCH   1  19
TORSDOF 4
ENDMDL
MODEL       30
REMARK 921   NORMALIZED FREE ENERGY PREDICTED BY IDOCK:   -4.95 KCAL/MOL
REMARK 922        TOTAL FREE ENERGY PREDICTED BY IDOCK:   -7.69 KCAL/MOL
REMARK 923 INTER-LIGAND FREE ENERGY PREDICTED BY IDOCK:   -6.72 KCAL/MOL
REMARK 924 INTRA-LIGAND FREE ENERGY PREDICTED BY IDOCK:   -0.98 KCAL/MOL
REMARK 927      BINDING AFFINITY PREDICTED BY RF-SCORE:    0.00 PKD
ROOT
HETATM    1  C   UNL     1      -9.356   6.247  69.661  1.00  0.00    -0.143 C  
ENDROOT
BRANCH   1   2
HETATM    2  N   UNL     1      -8.589   5.124  69.156  1.00  0.00    -0.092 NA 
HETATM    3  C   UNL     1      -8.479   4.103  70.222  1.00  0.00    -0.068 C  
HETATM    4  C   UNL     1      -9.838   3.683  70.885  1.00  0.00    -0.089 C  
HETATM    5  C   UNL     1      -7.276   5.408  68.505  1.00  0.00    -0.074 C  
HETATM    6  C   UNL     1      -6.681   6.830  68.265  1.00  0.00    -0.068 C  
HETATM    7  H   UNL     1     -10.082   3.247  73.020  1.00  0.00     0.000 HD 
HETATM    8  C   UNL     1      -6.178   7.547  69.520  1.00  0.00    -0.031 C  
HETATM    9  N   UNL     1     -10.078   3.987  72.318  1.00  0.00    -0.171 NA 
HETATM   10  C   UNL     1     -10.310   5.395  72.694  1.00  0.00    -0.203 C  
HETATM   11  N   UNL     1      -6.572   8.965  69.559  1.00  0.00    -0.043 NA 
HETATM   12  C   UNL     1      -9.019   6.111  73.121  1.00  0.00    -0.130 C  
HETATM   13  H   UNL     1      -7.457   9.119  69.075  1.00  0.00     0.000 HD 
HETATM   14  H   UNL     1      -7.392   8.689  73.611  1.00  0.00     0.000 HD 
HETATM   15  C   UNL     1      -9.132   7.646  73.190  1.00  0.00    -0.200 C  
HETATM   16  C   UNL     1      -6.617   9.478  70.943  1.00  0.00    -0.090 C  
HETATM   17  C   UNL     1      -7.947   9.179  71.685  1.00  0.00     0.227 C  
HETATM   18  N   UNL     1      -7.837   8.243  72.810  1.00  0.00    -0.219 NA 
ENDBRANCH   1   2
BRANCH   1  19
HETATM   19  C   UNL     1      -9.902   7.227  68.675  1.00  0.00    -0.161 A  
HETATM   20  C   UNL     1      -9.921   6.932  67.323  1.00  0.00    -0.224 A  
HETATM   21  C   UNL     1      -9.815   7.985  66.451  1.00  0.00    -0.237 A  
HETATM   22  C   UNL     1     -10.218   8.488  69.155  1.00  0.00    -0.218 A  
HETATM   23  C   UNL     1     -10.001   9.288  66.907  1.00  0.00    -0.298 A  
HETATM   24  C   UNL     1     -10.188   9.547  68.275  1.00  0.00    -0.225 A  
BRANCH  23  25
HETATM   25  C   UNL     1     -10.012  10.445  65.978  1.00  0.00    -0.241 C  
BRANCH  25  26
HETATM   26  N   UNL     1      -9.217  10.351  64.766  1.00  0.00    -0.209 NA 
HETATM   27  C   UNL     1     -12.638  14.116  65.513  1.00  0.00    -0.479 C  
HETATM   28  H   UNL     1     -13.081  12.158  64.956  1.00  0.00     0.000 HD 
HETATM   29  N   UNL     1     -12.715  13.012  64.535  1.00  0.00    -0.701 NA 
HETATM   30  C   UNL     1     -12.003  13.714  66.869  1.00  0.00    -0.410 C  
HETATM   31  C   UNL     1     -11.406  12.789  63.900  1.00  0.00    -0.442 C  
HETATM   32  C   UNL     1      -9.830  10.783  63.481  1.00  0.00    -0.347 C  
HETATM   33  N   UNL     1     -10.708  14.347  67.129  1.00  0.00    -0.280 NA 
HETATM   34  H   UNL     1     -10.824  15.339  67.337  1.00  0.00     0.000 HD 
HETATM   35  C   UNL     1     -11.265  11.373  63.346  1.00  0.00    -0.252 C  
HETATM   36  C   UNL     1      -9.937  13.677  68.188  1.00  0.00    -0.246 C  
HETATM   37  C   UNL     1      -8.555  13.285  67.634  1.00  0.00    -0.196 C  
HETATM   38  C   UNL     1      -8.036  11.935  68.150  1.00  0.00    -0.151 C  
HETATM   39  N   UNL     1      -6.872  11.457  67.387  1.00  0.00    -0.092 NA 
HETATM   40  C   UNL     1      -7.123  10.495  66.287  1.00  0.00    -0.132 C  
HETATM   41  H   UNL     1      -5.928  11.776  67.607  1.00  0.00     0.000 HD 
HETATM   42  C   UNL     1      -7.887  10.963  64.998  1.00  0.00     0.222 C  
ENDBRANCH  25  26
ENDBRANCH  23  25
ENDBRANCH   1  19
TORSDOF 4
ENDMDL
MODEL       31
REMARK 921   NORMALIZED FREE ENERGY PREDICTED BY IDOCK:   -4.94 KCAL/MOL
REMARK 922        TOTAL FREE ENERGY PREDICTED BY IDOCK:   -7.67 KCAL/MOL
REMARK 923 INTER-LIGAND FREE ENERGY PREDICTED BY IDOCK:   -6.16 KCAL/MOL
REMARK 924 INTRA-LIGAND FREE ENERGY PREDICTED BY IDOCK:   -1.51 KCAL/MOL
REMARK 927      BINDING AFFINITY PREDICTED BY RF-SCORE:    0.00 PKD
ROOT
HETATM    1  C   UNL     1     -10.747  13.029  67.488  1.00  0.00    -0.238 C  
ENDROOT
BRANCH   1   2
HETATM    2  N   UNL     1     -12.149  13.098  67.852  1.00  0.00    -0.280 NA 
HETATM    3  C   UNL     1     -12.890  13.788  66.772  1.00  0.00     0.471 C  
HETATM    4  C   UNL     1     -12.647  13.221  65.330  1.00  0.00    -0.470 C  
HETATM    5  C   UNL     1     -12.497  13.623  69.205  1.00  0.00     0.069 C  
HETATM    6  C   UNL     1     -11.467  14.054  70.294  1.00  0.00    -0.155 C  
HETATM    7  H   UNL     1     -12.502  14.463  63.528  1.00  0.00     0.000 HD 
HETATM    8  C   UNL     1     -10.726  15.363  70.011  1.00  0.00    -0.307 C  
HETATM    9  N   UNL     1     -11.980  14.071  64.312  1.00  0.00    -0.442 NA 
HETATM   10  C   UNL     1     -10.536  14.331  64.472  1.00  0.00    -0.207 C  
HETATM   11  N   UNL     1      -9.287  15.276  70.311  1.00  0.00    -0.203 NA 
HETATM   12  C   UNL     1     -10.253  15.634  65.235  1.00  0.00    -0.358 C  
HETATM   13  H   UNL     1      -8.935  14.328  70.176  1.00  0.00     0.000 HD 
HETATM   14  H   UNL     1      -8.383  17.443  66.896  1.00  0.00     0.000 HD 
HETATM   15  C   UNL     1      -8.802  15.784  65.730  1.00  0.00     0.121 C  
HETATM   16  C   UNL     1      -8.510  16.258  69.527  1.00  0.00     0.129 C  
HETATM   17  C   UNL     1      -8.150  15.780  68.095  1.00  0.00    -0.140 C  
HETATM   18  N   UNL     1      -8.800  16.520  67.008  1.00  0.00    -0.187 NA 
ENDBRANCH   1   2
BRANCH   1  19
HETATM   19  C   UNL     1     -10.038  11.725  67.658  1.00  0.00    -0.206 A  
HETATM   20  C   UNL     1     -10.677  10.532  67.370  1.00  0.00    -0.334 A  
HETATM   21  C   UNL     1     -10.292   9.428  68.086  1.00  0.00    -0.255 A  
HETATM   22  C   UNL     1      -8.797  11.764  68.274  1.00  0.00    -0.172 A  
HETATM   23  C   UNL     1      -9.111   9.454  68.826  1.00  0.00    -0.132 A  
HETATM   24  C   UNL     1      -8.362  10.637  68.936  1.00  0.00    -0.150 A  
BRANCH  23  25
HETATM   25  C   UNL     1      -8.598   8.246  69.519  1.00  0.00    -0.134 C  
BRANCH  25  26
HETATM   26  N   UNL     1      -7.374   7.645  69.020  1.00  0.00    -0.084 NA 
HETATM   27  C   UNL     1      -8.407   7.992  74.045  1.00  0.00    -0.265 C  
HETATM   28  H   UNL     1      -7.728   9.541  72.829  1.00  0.00     0.000 HD 
HETATM   29  N   UNL     1      -7.360   8.709  73.290  1.00  0.00    -0.360 NA 
HETATM   30  C   UNL     1      -9.727   7.789  73.255  1.00  0.00    -0.294 C  
HETATM   31  C   UNL     1      -6.696   7.806  72.336  1.00  0.00    -0.065 C  
HETATM   32  C   UNL     1      -6.127   7.813  69.815  1.00  0.00    -0.027 C  
HETATM   33  N   UNL     1     -10.012   6.392  72.924  1.00  0.00    -0.171 NA 
HETATM   34  H   UNL     1     -10.286   5.870  73.757  1.00  0.00     0.000 HD 
HETATM   35  C   UNL     1      -6.048   8.561  71.178  1.00  0.00    -0.039 C  
HETATM   36  C   UNL     1     -11.015   6.241  71.858  1.00  0.00    -0.256 C  
HETATM   37  C   UNL     1     -10.421   5.389  70.722  1.00  0.00    -0.317 C  
HETATM   38  C   UNL     1     -10.841   5.842  69.317  1.00  0.00    -0.344 C  
HETATM   39  N   UNL     1     -10.034   5.207  68.263  1.00  0.00    -0.156 NA 
HETATM   40  C   UNL     1      -8.876   5.968  67.735  1.00  0.00    -0.106 C  
HETATM   41  H   UNL     1     -10.263   4.278  67.908  1.00  0.00     0.000 HD 
HETATM   42  C   UNL     1      -7.630   6.232  68.652  1.00  0.00    -0.093 C  
ENDBRANCH  25  26
ENDBRANCH  23  25
ENDBRANCH   1  19
TORSDOF 4
ENDMDL
MODEL       32
REMARK 921   NORMALIZED FREE ENERGY PREDICTED BY IDOCK:   -4.91 KCAL/MOL
REMARK 922        TOTAL FREE ENERGY PREDICTED BY IDOCK:   -7.64 KCAL/MOL
REMARK 923 INTER-LIGAND FREE ENERGY PREDICTED BY IDOCK:   -6.54 KCAL/MOL
REMARK 924 INTRA-LIGAND FREE ENERGY PREDICTED BY IDOCK:   -1.10 KCAL/MOL
REMARK 927      BINDING AFFINITY PREDICTED BY RF-SCORE:    0.00 PKD
ROOT
HETATM    1  C   UNL     1      -8.379   6.315  69.503  1.00  0.00    -0.118 C  
ENDROOT
BRANCH   1   2
HETATM    2  N   UNL     1      -6.962   6.074  69.312  1.00  0.00    -0.062 NA 
HETATM    3  C   UNL     1      -6.671   4.658  69.629  1.00  0.00    -0.044 C  
HETATM    4  C   UNL     1      -7.586   3.611  68.904  1.00  0.00    -0.053 C  
HETATM    5  C   UNL     1      -5.997   7.011  69.959  1.00  0.00    -0.024 C  
HETATM    6  C   UNL     1      -6.389   8.276  70.784  1.00  0.00    -0.036 C  
HETATM    7  H   UNL     1      -8.321   1.765  69.834  1.00  0.00     0.000 HD 
HETATM    8  C   UNL     1      -6.994   7.995  72.162  1.00  0.00    -0.077 C  
HETATM    9  N   UNL     1      -8.503   2.761  69.704  1.00  0.00    -0.058 NA 
HETATM   10  C   UNL     1      -9.687   3.403  70.306  1.00  0.00    -0.070 C  
HETATM   11  N   UNL     1      -8.160   8.844  72.453  1.00  0.00    -0.358 NA 
HETATM   12  C   UNL     1      -9.434   3.874  71.747  1.00  0.00    -0.210 C  
HETATM   13  H   UNL     1      -8.662   9.093  71.601  1.00  0.00     0.000 HD 
HETATM   14  H   UNL     1     -10.140   5.639  74.179  1.00  0.00     0.000 HD 
HETATM   15  C   UNL     1     -10.495   4.844  72.300  1.00  0.00    -0.204 C  
HETATM   16  C   UNL     1      -9.057   8.214  73.443  1.00  0.00    -0.239 C  
HETATM   17  C   UNL     1     -10.059   7.199  72.831  1.00  0.00    -0.210 C  
HETATM   18  N   UNL     1      -9.846   5.800  73.217  1.00  0.00    -0.162 NA 
ENDBRANCH   1   2
BRANCH   1  19
HETATM   19  C   UNL     1      -9.082   7.197  68.523  1.00  0.00    -0.132 A  
HETATM   20  C   UNL     1      -8.964   6.974  67.162  1.00  0.00    -0.123 A  
HETATM   21  C   UNL     1      -9.056   8.067  66.339  1.00  0.00    -0.226 A  
HETATM   22  C   UNL     1      -9.701   8.328  69.031  1.00  0.00    -0.167 A  
HETATM   23  C   UNL     1      -9.557   9.270  66.833  1.00  0.00    -0.229 A  
HETATM   24  C   UNL     1      -9.869   9.410  68.195  1.00  0.00    -0.183 A  
BRANCH  23  25
HETATM   25  C   UNL     1      -9.784  10.441  65.949  1.00  0.00    -0.217 C  
BRANCH  25  26
HETATM   26  N   UNL     1      -9.202  10.411  64.619  1.00  0.00    -0.218 NA 
HETATM   27  C   UNL     1     -12.632  13.972  66.030  1.00  0.00    -0.414 C  
HETATM   28  H   UNL     1     -13.064  12.003  65.506  1.00  0.00     0.000 HD 
HETATM   29  N   UNL     1     -12.818  12.882  65.051  1.00  0.00    -0.798 NA 
HETATM   30  C   UNL     1     -11.756  13.582  67.249  1.00  0.00    -0.383 C  
HETATM   31  C   UNL     1     -11.626  12.741  64.199  1.00  0.00    -0.396 C  
HETATM   32  C   UNL     1     -10.045  10.831  63.467  1.00  0.00    -0.302 C  
HETATM   33  N   UNL     1     -10.469  14.279  67.303  1.00  0.00    -0.268 NA 
HETATM   34  H   UNL     1     -10.598  15.259  67.553  1.00  0.00     0.000 HD 
HETATM   35  C   UNL     1     -11.510  11.344  63.592  1.00  0.00    -0.232 C  
HETATM   36  C   UNL     1      -9.496  13.633  68.199  1.00  0.00    -0.217 C  
HETATM   37  C   UNL     1      -8.210  13.326  67.410  1.00  0.00    -0.185 C  
HETATM   38  C   UNL     1      -7.544  11.998  67.795  1.00  0.00    -0.130 C  
HETATM   39  N   UNL     1      -6.505  11.597  66.835  1.00  0.00    -0.190 NA 
HETATM   40  C   UNL     1      -6.890  10.642  65.767  1.00  0.00    -0.098 C  
HETATM   41  H   UNL     1      -5.554  11.962  66.900  1.00  0.00     0.000 HD 
HETATM   42  C   UNL     1      -7.885  11.089  64.639  1.00  0.00     0.490 C  
ENDBRANCH  25  26
ENDBRANCH  23  25
ENDBRANCH   1  19
TORSDOF 4
ENDMDL
MODEL       33
REMARK 921   NORMALIZED FREE ENERGY PREDICTED BY IDOCK:   -4.90 KCAL/MOL
REMARK 922        TOTAL FREE ENERGY PREDICTED BY IDOCK:   -7.62 KCAL/MOL
REMARK 923 INTER-LIGAND FREE ENERGY PREDICTED BY IDOCK:   -6.74 KCAL/MOL
REMARK 924 INTRA-LIGAND FREE ENERGY PREDICTED BY IDOCK:   -0.88 KCAL/MOL
REMARK 927      BINDING AFFINITY PREDICTED BY RF-SCORE:    0.00 PKD
ROOT
HETATM    1  C   UNL     1     -10.089  10.949  66.480  1.00  0.00    -0.222 C  
ENDROOT
BRANCH   1   2
HETATM    2  N   UNL     1      -9.452  10.572  65.233  1.00  0.00    -0.210 NA 
HETATM    3  C   UNL     1      -8.091  11.152  65.197  1.00  0.00     0.325 C  
HETATM    4  C   UNL     1      -7.209  10.863  66.462  1.00  0.00    -0.142 C  
HETATM    5  C   UNL     1     -10.202  10.805  63.963  1.00  0.00    -0.322 C  
HETATM    6  C   UNL     1     -11.652  11.370  63.867  1.00  0.00    -0.154 C  
HETATM    7  H   UNL     1      -5.823  12.309  67.354  1.00  0.00     0.000 HD 
HETATM    8  C   UNL     1     -11.794  12.860  64.187  1.00  0.00    -0.414 C  
HETATM    9  N   UNL     1      -6.791  11.987  67.337  1.00  0.00    -0.128 NA 
HETATM   10  C   UNL     1      -7.821  12.623  68.180  1.00  0.00    -0.145 C  
HETATM   11  N   UNL     1     -12.960  13.148  65.039  1.00  0.00    -0.731 NA 
HETATM   12  C   UNL     1      -8.460  13.847  67.506  1.00  0.00    -0.200 C  
HETATM   13  H   UNL     1     -13.175  12.364  65.655  1.00  0.00     0.000 HD 
HETATM   14  H   UNL     1     -10.758  15.891  67.231  1.00  0.00     0.000 HD 
HETATM   15  C   UNL     1      -9.760  14.339  68.172  1.00  0.00    -0.226 C  
HETATM   16  C   UNL     1     -12.778  14.399  65.803  1.00  0.00    -0.246 C  
HETATM   17  C   UNL     1     -11.971  14.225  67.117  1.00  0.00    -0.417 C  
HETATM   18  N   UNL     1     -10.659  14.880  67.135  1.00  0.00    -0.279 NA 
ENDBRANCH   1   2
BRANCH   1  19
HETATM   19  C   UNL     1     -10.056   9.974  67.611  1.00  0.00    -0.232 A  
HETATM   20  C   UNL     1     -10.087  10.415  68.923  1.00  0.00    -0.213 A  
HETATM   21  C   UNL     1      -9.450   9.640  69.858  1.00  0.00    -0.260 A  
HETATM   22  C   UNL     1      -9.820   8.648  67.287  1.00  0.00    -0.256 A  
HETATM   23  C   UNL     1      -9.077   8.334  69.544  1.00  0.00    -0.154 A  
HETATM   24  C   UNL     1      -9.248   7.836  68.242  1.00  0.00    -0.139 A  
BRANCH  23  25
HETATM   25  C   UNL     1      -8.493   7.424  70.560  1.00  0.00    -0.137 C  
BRANCH  25  26
HETATM   26  N   UNL     1      -7.213   7.787  71.142  1.00  0.00    -0.060 NA 
HETATM   27  C   UNL     1     -10.809   5.249  73.799  1.00  0.00    -0.261 C  
HETATM   28  H   UNL     1     -10.808   7.291  73.391  1.00  0.00     0.000 HD 
HETATM   29  N   UNL     1     -10.341   6.632  74.014  1.00  0.00    -0.359 NA 
HETATM   30  C   UNL     1     -10.872   4.829  72.307  1.00  0.00    -0.061 C  
HETATM   31  C   UNL     1      -8.876   6.710  73.891  1.00  0.00    -0.145 C  
HETATM   32  C   UNL     1      -7.167   8.144  72.586  1.00  0.00    -0.102 C  
HETATM   33  N   UNL     1      -9.900   3.797  71.939  1.00  0.00    -0.173 NA 
HETATM   34  H   UNL     1     -10.163   2.894  72.331  1.00  0.00     0.000 HD 
HETATM   35  C   UNL     1      -8.399   8.117  73.538  1.00  0.00    -0.299 C  
HETATM   36  C   UNL     1      -9.684   3.695  70.487  1.00  0.00    -0.140 C  
HETATM   37  C   UNL     1      -8.183   3.861  70.186  1.00  0.00    -0.071 C  
HETATM   38  C   UNL     1      -7.888   4.645  68.900  1.00  0.00    -0.071 C  
HETATM   39  N   UNL     1      -6.474   5.038  68.800  1.00  0.00    -0.035 NA 
HETATM   40  C   UNL     1      -6.108   6.404  69.249  1.00  0.00    -0.026 C  
HETATM   41  H   UNL     1      -5.770   4.396  68.435  1.00  0.00     0.000 HD 
HETATM   42  C   UNL     1      -6.195   6.775  70.771  1.00  0.00    -0.035 C  
ENDBRANCH  25  26
ENDBRANCH  23  25
ENDBRANCH   1  19
TORSDOF 4
ENDMDL
MODEL       34
REMARK 921   NORMALIZED FREE ENERGY PREDICTED BY IDOCK:   -4.89 KCAL/MOL
REMARK 922        TOTAL FREE ENERGY PREDICTED BY IDOCK:   -7.62 KCAL/MOL
REMARK 923 INTER-LIGAND FREE ENERGY PREDICTED BY IDOCK:   -6.71 KCAL/MOL
REMARK 924 INTRA-LIGAND FREE ENERGY PREDICTED BY IDOCK:   -0.91 KCAL/MOL
REMARK 927      BINDING AFFINITY PREDICTED BY RF-SCORE:    0.00 PKD
ROOT
HETATM    1  C   UNL     1      -9.279   6.917  70.288  1.00  0.00    -0.156 C  
ENDROOT
BRANCH   1   2
HETATM    2  N   UNL     1      -9.975   5.828  69.630  1.00  0.00    -0.174 NA 
HETATM    3  C   UNL     1     -11.273   5.613  70.307  1.00  0.00    -0.004 C  
HETATM    4  C   UNL     1     -12.153   6.899  70.486  1.00  0.00    -0.261 C  
HETATM    5  C   UNL     1      -9.231   4.553  69.408  1.00  0.00    -0.129 C  
HETATM    6  C   UNL     1      -7.735   4.310  69.774  1.00  0.00    -0.053 C  
HETATM    7  H   UNL     1     -13.374   7.318  72.259  1.00  0.00     0.000 HD 
HETATM    8  C   UNL     1      -7.442   4.184  71.272  1.00  0.00    -0.055 C  
HETATM    9  N   UNL     1     -12.442   7.404  71.851  1.00  0.00    -0.312 NA 
HETATM   10  C   UNL     1     -11.338   8.035  72.599  1.00  0.00    -0.405 C  
HETATM   11  N   UNL     1      -6.237   4.926  71.678  1.00  0.00    -0.024 NA 
HETATM   12  C   UNL     1     -10.597   7.040  73.506  1.00  0.00    -0.405 C  
HETATM   13  H   UNL     1      -6.087   5.745  71.088  1.00  0.00     0.000 HD 
HETATM   14  H   UNL     1      -8.117   6.204  75.142  1.00  0.00     0.000 HD 
HETATM   15  C   UNL     1      -9.242   7.546  74.038  1.00  0.00    -0.227 C  
HETATM   16  C   UNL     1      -6.280   5.291  73.108  1.00  0.00    -0.047 C  
HETATM   17  C   UNL     1      -7.074   6.591  73.404  1.00  0.00    -0.078 C  
HETATM   18  N   UNL     1      -8.315   6.406  74.163  1.00  0.00    -0.118 NA 
ENDBRANCH   1   2
BRANCH   1  19
HETATM   19  C   UNL     1      -9.073   8.185  69.525  1.00  0.00    -0.151 A  
HETATM   20  C   UNL     1      -9.323   9.412  70.115  1.00  0.00    -0.276 A  
HETATM   21  C   UNL     1      -9.730  10.430  69.291  1.00  0.00    -0.231 A  
HETATM   22  C   UNL     1      -8.794   8.063  68.173  1.00  0.00    -0.132 A  
HETATM   23  C   UNL     1      -9.587  10.309  67.910  1.00  0.00    -0.161 A  
HETATM   24  C   UNL     1      -9.130   9.109  67.341  1.00  0.00    -0.142 A  
BRANCH  23  25
HETATM   25  C   UNL     1      -9.905  11.430  66.992  1.00  0.00    -0.191 C  
BRANCH  25  26
HETATM   26  N   UNL     1      -9.722  12.784  67.485  1.00  0.00    -0.197 NA 
HETATM   27  C   UNL     1      -6.032  10.276  64.930  1.00  0.00    -0.133 C  
HETATM   28  H   UNL     1      -6.541   9.991  66.930  1.00  0.00     0.000 HD 
HETATM   29  N   UNL     1      -6.035  10.665  66.355  1.00  0.00    -0.086 NA 
HETATM   30  C   UNL     1      -7.422   9.848  64.391  1.00  0.00    -0.137 C  
HETATM   31  C   UNL     1      -6.563  12.029  66.520  1.00  0.00     0.348 C  
HETATM   32  C   UNL     1      -8.371  13.190  67.957  1.00  0.00    -0.162 C  
HETATM   33  N   UNL     1      -7.984  10.768  63.400  1.00  0.00    -0.362 NA 
HETATM   34  H   UNL     1      -7.482  10.699  62.515  1.00  0.00     0.000 HD 
HETATM   35  C   UNL     1      -7.116  12.270  67.923  1.00  0.00    -0.105 C  
HETATM   36  C   UNL     1      -9.431  10.589  63.197  1.00  0.00    -0.336 C  
HETATM   37  C   UNL     1     -10.144  11.932  63.439  1.00  0.00    -0.464 C  
HETATM   38  C   UNL     1     -11.505  11.799  64.137  1.00  0.00    -0.327 C  
HETATM   39  N   UNL     1     -12.015  13.094  64.614  1.00  0.00    -0.368 NA 
HETATM   40  C   UNL     1     -11.764  13.448  66.032  1.00  0.00    -0.362 C  
HETATM   41  H   UNL     1     -12.522  13.724  63.993  1.00  0.00     0.000 HD 
HETATM   42  C   UNL     1     -10.301  13.746  66.517  1.00  0.00    -0.286 C  
ENDBRANCH  25  26
ENDBRANCH  23  25
ENDBRANCH   1  19
TORSDOF 4
ENDMDL
MODEL       35
REMARK 921   NORMALIZED FREE ENERGY PREDICTED BY IDOCK:   -4.89 KCAL/MOL
REMARK 922        TOTAL FREE ENERGY PREDICTED BY IDOCK:   -7.61 KCAL/MOL
REMARK 923 INTER-LIGAND FREE ENERGY PREDICTED BY IDOCK:   -6.21 KCAL/MOL
REMARK 924 INTRA-LIGAND FREE ENERGY PREDICTED BY IDOCK:   -1.40 KCAL/MOL
REMARK 927      BINDING AFFINITY PREDICTED BY RF-SCORE:    0.00 PKD
ROOT
HETATM    1  C   UNL     1      -9.164   6.614  70.474  1.00  0.00    -0.156 C  
ENDROOT
BRANCH   1   2
HETATM    2  N   UNL     1     -10.042   5.698  69.772  1.00  0.00    -0.197 NA 
HETATM    3  C   UNL     1     -11.374   5.723  70.418  1.00  0.00    -0.018 C  
HETATM    4  C   UNL     1     -11.991   7.151  70.617  1.00  0.00    -0.269 C  
HETATM    5  C   UNL     1      -9.556   4.308  69.528  1.00  0.00    -0.204 C  
HETATM    6  C   UNL     1      -8.144   3.769  69.916  1.00  0.00    -0.062 C  
HETATM    7  H   UNL     1     -13.149   7.757  72.378  1.00  0.00     0.000 HD 
HETATM    8  C   UNL     1      -7.917   3.553  71.414  1.00  0.00    -0.060 C  
HETATM    9  N   UNL     1     -12.210   7.670  71.990  1.00  0.00    -0.299 NA 
HETATM   10  C   UNL     1     -11.022   8.056  72.776  1.00  0.00    -0.382 C  
HETATM   11  N   UNL     1      -6.601   4.036  71.864  1.00  0.00    -0.018 NA 
HETATM   12  C   UNL     1     -10.510   6.914  73.669  1.00  0.00    -0.400 C  
HETATM   13  H   UNL     1      -6.281   4.824  71.301  1.00  0.00     0.000 HD 
HETATM   14  H   UNL     1      -8.279   5.571  75.327  1.00  0.00     0.000 HD 
HETATM   15  C   UNL     1      -9.096   7.134  74.240  1.00  0.00    -0.214 C  
HETATM   16  C   UNL     1      -6.607   4.368  73.303  1.00  0.00    -0.052 C  
HETATM   17  C   UNL     1      -7.140   5.790  73.620  1.00  0.00    -0.086 C  
HETATM   18  N   UNL     1      -8.411   5.832  74.351  1.00  0.00    -0.108 NA 
ENDBRANCH   1   2
BRANCH   1  19
HETATM   19  C   UNL     1      -8.648   7.803  69.731  1.00  0.00    -0.134 A  
HETATM   20  C   UNL     1      -8.289   8.956  70.407  1.00  0.00    -0.160 A  
HETATM   21  C   UNL     1      -8.434  10.144  69.738  1.00  0.00    -0.147 A  
HETATM   22  C   UNL     1      -8.713   7.753  68.348  1.00  0.00    -0.127 A  
HETATM   23  C   UNL     1      -8.627  10.148  68.358  1.00  0.00    -0.119 A  
HETATM   24  C   UNL     1      -8.785   8.942  67.655  1.00  0.00    -0.124 A  
BRANCH  23  25
HETATM   25  C   UNL     1      -8.671  11.411  67.581  1.00  0.00    -0.136 C  
BRANCH  25  26
HETATM   26  N   UNL     1      -7.739  12.464  67.943  1.00  0.00    -0.123 NA 
HETATM   27  C   UNL     1      -7.086   9.548  63.759  1.00  0.00    -0.108 C  
HETATM   28  H   UNL     1      -6.665   8.981  65.718  1.00  0.00     0.000 HD 
HETATM   29  N   UNL     1      -6.261   9.562  64.983  1.00  0.00    -0.074 NA 
HETATM   30  C   UNL     1      -8.602   9.755  64.018  1.00  0.00    -0.197 C  
HETATM   31  C   UNL     1      -6.034  10.942  65.441  1.00  0.00     0.014 C  
HETATM   32  C   UNL     1      -6.294  12.265  67.646  1.00  0.00    -0.122 C  
HETATM   33  N   UNL     1      -9.126  11.019  63.497  1.00  0.00    -0.346 NA 
HETATM   34  H   UNL     1      -9.177  10.999  62.479  1.00  0.00     0.000 HD 
HETATM   35  C   UNL     1      -5.708  11.012  66.931  1.00  0.00    -0.077 C  
HETATM   36  C   UNL     1     -10.424  11.393  64.080  1.00  0.00    -0.378 C  
HETATM   37  C   UNL     1     -10.315  12.798  64.699  1.00  0.00    -0.362 C  
HETATM   38  C   UNL     1     -11.106  12.968  66.003  1.00  0.00    -0.278 C  
HETATM   39  N   UNL     1     -10.747  14.205  66.714  1.00  0.00    -0.284 NA 
HETATM   40  C   UNL     1      -9.741  14.104  67.799  1.00  0.00    -0.223 C  
HETATM   41  H   UNL     1     -11.175  15.099  66.471  1.00  0.00     0.000 HD 
HETATM   42  C   UNL     1      -8.248  13.767  67.451  1.00  0.00    -0.184 C  
ENDBRANCH  25  26
ENDBRANCH  23  25
ENDBRANCH   1  19
TORSDOF 4
ENDMDL
MODEL       36
REMARK 921   NORMALIZED FREE ENERGY PREDICTED BY IDOCK:   -4.84 KCAL/MOL
REMARK 922        TOTAL FREE ENERGY PREDICTED BY IDOCK:   -7.56 KCAL/MOL
REMARK 923 INTER-LIGAND FREE ENERGY PREDICTED BY IDOCK:   -6.46 KCAL/MOL
REMARK 924 INTRA-LIGAND FREE ENERGY PREDICTED BY IDOCK:   -1.10 KCAL/MOL
REMARK 927      BINDING AFFINITY PREDICTED BY RF-SCORE:    0.00 PKD
ROOT
HETATM    1  C   UNL     1      -8.640   7.757  71.890  1.00  0.00    -0.114 C  
ENDROOT
BRANCH   1   2
HETATM    2  N   UNL     1      -9.501   7.949  73.041  1.00  0.00    -0.244 NA 
HETATM    3  C   UNL     1      -8.709   7.724  74.272  1.00  0.00    -0.190 C  
HETATM    4  C   UNL     1      -7.365   8.529  74.356  1.00  0.00    -0.152 C  
HETATM    5  C   UNL     1     -10.808   7.229  73.067  1.00  0.00    -0.355 C  
HETATM    6  C   UNL     1     -11.359   6.324  71.922  1.00  0.00    -0.348 C  
HETATM    7  H   UNL     1      -5.506   7.734  75.205  1.00  0.00     0.000 HD 
HETATM    8  C   UNL     1     -10.654   4.975  71.759  1.00  0.00    -0.134 C  
HETATM    9  N   UNL     1      -6.073   7.798  74.359  1.00  0.00    -0.087 NA 
HETATM   10  C   UNL     1      -5.636   7.167  73.100  1.00  0.00    -0.045 C  
HETATM   11  N   UNL     1     -10.390   4.640  70.350  1.00  0.00    -0.135 NA 
HETATM   12  C   UNL     1      -6.066   5.695  72.998  1.00  0.00    -0.044 C  
HETATM   13  H   UNL     1     -10.249   5.479  69.787  1.00  0.00     0.000 HD 
HETATM   14  H   UNL     1      -6.649   3.157  71.341  1.00  0.00     0.000 HD 
HETATM   15  C   UNL     1      -5.947   5.089  71.586  1.00  0.00    -0.020 C  
HETATM   16  C   UNL     1      -9.254   3.705  70.219  1.00  0.00    -0.152 C  
HETATM   17  C   UNL     1      -7.865   4.395  70.223  1.00  0.00    -0.059 C  
HETATM   18  N   UNL     1      -7.026   4.103  71.391  1.00  0.00    -0.034 NA 
ENDBRANCH   1   2
BRANCH   1  19
HETATM   19  C   UNL     1      -9.076   8.330  70.581  1.00  0.00    -0.164 A  
HETATM   20  C   UNL     1      -8.600   7.811  69.390  1.00  0.00    -0.135 A  
HETATM   21  C   UNL     1      -8.492   8.675  68.330  1.00  0.00    -0.131 A  
HETATM   22  C   UNL     1      -9.827   9.494  70.627  1.00  0.00    -0.328 A  
HETATM   23  C   UNL     1      -9.126   9.915  68.374  1.00  0.00    -0.123 A  
HETATM   24  C   UNL     1      -9.788  10.338  69.538  1.00  0.00    -0.244 A  
BRANCH  23  25
HETATM   25  C   UNL     1      -9.133  10.829  67.205  1.00  0.00    -0.144 C  
BRANCH  25  26
HETATM   26  N   UNL     1      -8.339  10.458  66.048  1.00  0.00    -0.143 NA 
HETATM   27  C   UNL     1     -12.301  13.718  65.720  1.00  0.00    -0.486 C  
HETATM   28  H   UNL     1     -12.436  11.644  65.855  1.00  0.00     0.000 HD 
HETATM   29  N   UNL     1     -12.209  12.354  65.160  1.00  0.00    -0.521 NA 
HETATM   30  C   UNL     1     -11.604  13.882  67.096  1.00  0.00    -0.364 C  
HETATM   31  C   UNL     1     -10.884  12.128  64.560  1.00  0.00    -0.312 C  
HETATM   32  C   UNL     1      -9.017  10.348  64.728  1.00  0.00    -0.202 C  
HETATM   33  N   UNL     1     -10.422  14.747  67.064  1.00  0.00    -0.267 NA 
HETATM   34  H   UNL     1     -10.691  15.723  66.944  1.00  0.00     0.000 HD 
HETATM   35  C   UNL     1     -10.527  10.644  64.489  1.00  0.00    -0.266 C  
HETATM   36  C   UNL     1      -9.551  14.582  68.238  1.00  0.00    -0.212 C  
HETATM   37  C   UNL     1      -8.128  14.235  67.766  1.00  0.00    -0.176 C  
HETATM   38  C   UNL     1      -7.403  13.222  68.663  1.00  0.00    -0.101 C  
HETATM   39  N   UNL     1      -6.183  12.694  68.033  1.00  0.00    -0.081 NA 
HETATM   40  C   UNL     1      -6.285  11.397  67.320  1.00  0.00    -0.093 C  
HETATM   41  H   UNL     1      -5.298  13.201  68.084  1.00  0.00     0.000 HD 
HETATM   42  C   UNL     1      -7.119  11.298  65.994  1.00  0.00     0.143 C  
ENDBRANCH  25  26
ENDBRANCH  23  25
ENDBRANCH   1  19
TORSDOF 4
ENDMDL
MODEL       37
REMARK 921   NORMALIZED FREE ENERGY PREDICTED BY IDOCK:   -4.79 KCAL/MOL
REMARK 922        TOTAL FREE ENERGY PREDICTED BY IDOCK:   -7.49 KCAL/MOL
REMARK 923 INTER-LIGAND FREE ENERGY PREDICTED BY IDOCK:   -6.53 KCAL/MOL
REMARK 924 INTRA-LIGAND FREE ENERGY PREDICTED BY IDOCK:   -0.96 KCAL/MOL
REMARK 927      BINDING AFFINITY PREDICTED BY RF-SCORE:    0.00 PKD
ROOT
HETATM    1  C   UNL     1      -9.169  10.490  66.277  1.00  0.00    -0.168 C  
ENDROOT
BRANCH   1   2
HETATM    2  N   UNL     1      -7.935  10.263  65.550  1.00  0.00    -0.147 NA 
HETATM    3  C   UNL     1      -6.975  11.336  65.893  1.00  0.00     0.222 C  
HETATM    4  C   UNL     1      -6.761  11.574  67.428  1.00  0.00    -0.101 C  
HETATM    5  C   UNL     1      -8.021  10.026  64.079  1.00  0.00    -0.151 C  
HETATM    6  C   UNL     1      -9.344   9.941  63.258  1.00  0.00    -0.221 C  
HETATM    7  H   UNL     1      -6.487  13.549  68.341  1.00  0.00     0.000 HD 
HETATM    8  C   UNL     1     -10.072  11.273  63.054  1.00  0.00    -0.285 C  
HETATM    9  N   UNL     1      -7.177  12.863  68.035  1.00  0.00    -0.101 NA 
HETATM   10  C   UNL     1      -8.623  13.120  68.179  1.00  0.00    -0.181 C  
HETATM   11  N   UNL     1     -11.526  11.160  63.252  1.00  0.00    -0.690 NA 
HETATM   12  C   UNL     1      -9.206  13.896  66.987  1.00  0.00    -0.257 C  
HETATM   13  H   UNL     1     -11.755  10.431  63.929  1.00  0.00     0.000 HD 
HETATM   14  H   UNL     1     -11.596  14.789  65.251  1.00  0.00     0.000 HD 
HETATM   15  C   UNL     1     -10.744  13.893  66.912  1.00  0.00    -0.284 C  
HETATM   16  C   UNL     1     -12.124  12.456  63.632  1.00  0.00    -0.556 C  
HETATM   17  C   UNL     1     -12.031  12.774  65.148  1.00  0.00    -0.424 C  
HETATM   18  N   UNL     1     -11.159  13.902  65.496  1.00  0.00    -0.300 NA 
ENDBRANCH   1   2
BRANCH   1  19
HETATM   19  C   UNL     1      -9.433   9.664  67.493  1.00  0.00    -0.157 A  
HETATM   20  C   UNL     1      -9.886  10.253  68.661  1.00  0.00    -0.180 A  
HETATM   21  C   UNL     1      -9.526   9.656  69.842  1.00  0.00    -0.260 A  
HETATM   22  C   UNL     1      -9.042   8.335  67.444  1.00  0.00    -0.155 A  
HETATM   23  C   UNL     1      -9.008   8.362  69.840  1.00  0.00    -0.142 A  
HETATM   24  C   UNL     1      -8.748   7.698  68.630  1.00  0.00    -0.128 A  
BRANCH  23  25
HETATM   25  C   UNL     1      -8.717   7.637  71.101  1.00  0.00    -0.136 C  
BRANCH  25  26
HETATM   26  N   UNL     1      -8.518   8.422  72.306  1.00  0.00    -0.223 NA 
HETATM   27  C   UNL     1      -9.971   3.493  72.458  1.00  0.00    -0.162 C  
HETATM   28  H   UNL     1     -11.204   5.114  72.024  1.00  0.00     0.000 HD 
HETATM   29  N   UNL     1     -10.767   4.677  72.836  1.00  0.00    -0.217 NA 
HETATM   30  C   UNL     1      -9.038   3.722  71.241  1.00  0.00    -0.116 C  
HETATM   31  C   UNL     1      -9.947   5.634  73.596  1.00  0.00    -0.184 C  
HETATM   32  C   UNL     1      -9.395   8.156  73.479  1.00  0.00    -0.139 C  
HETATM   33  N   UNL     1      -7.611   3.688  71.571  1.00  0.00    -0.055 NA 
HETATM   34  H   UNL     1      -7.310   2.736  71.779  1.00  0.00     0.000 HD 
HETATM   35  C   UNL     1     -10.496   7.057  73.520  1.00  0.00    -0.413 C  
HETATM   36  C   UNL     1      -6.761   4.292  70.534  1.00  0.00    -0.032 C  
HETATM   37  C   UNL     1      -5.901   5.401  71.168  1.00  0.00    -0.017 C  
HETATM   38  C   UNL     1      -5.696   6.626  70.265  1.00  0.00    -0.023 C  
HETATM   39  N   UNL     1      -5.133   7.770  70.998  1.00  0.00    -0.026 NA 
HETATM   40  C   UNL     1      -6.081   8.792  71.504  1.00  0.00    -0.059 C  
HETATM   41  H   UNL     1      -4.129   7.858  71.153  1.00  0.00     0.000 HD 
HETATM   42  C   UNL     1      -7.079   8.430  72.661  1.00  0.00    -0.067 C  
ENDBRANCH  25  26
ENDBRANCH  23  25
ENDBRANCH   1  19
TORSDOF 4
ENDMDL
MODEL       38
REMARK 921   NORMALIZED FREE ENERGY PREDICTED BY IDOCK:   -4.77 KCAL/MOL
REMARK 922        TOTAL FREE ENERGY PREDICTED BY IDOCK:   -7.47 KCAL/MOL
REMARK 923 INTER-LIGAND FREE ENERGY PREDICTED BY IDOCK:   -5.87 KCAL/MOL
REMARK 924 INTRA-LIGAND FREE ENERGY PREDICTED BY IDOCK:   -1.60 KCAL/MOL
REMARK 927      BINDING AFFINITY PREDICTED BY RF-SCORE:    0.00 PKD
ROOT
HETATM    1  C   UNL     1     -10.492   8.628  69.783  1.00  0.00    -0.220 C  
ENDROOT
BRANCH   1   2
HETATM    2  N   UNL     1      -9.760   8.248  70.975  1.00  0.00    -0.158 NA 
HETATM    3  C   UNL     1     -10.452   8.806  72.159  1.00  0.00    -0.314 C  
HETATM    4  C   UNL     1     -11.987   8.495  72.242  1.00  0.00    -0.385 C  
HETATM    5  C   UNL     1      -8.289   8.499  71.006  1.00  0.00    -0.147 C  
HETATM    6  C   UNL     1      -7.453   9.088  69.829  1.00  0.00    -0.062 C  
HETATM    7  H   UNL     1     -13.493   9.915  72.969  1.00  0.00     0.000 HD 
HETATM    8  C   UNL     1      -7.671  10.579  69.556  1.00  0.00    -0.136 C  
HETATM    9  N   UNL     1     -12.965   9.608  72.151  1.00  0.00    -0.411 NA 
HETATM   10  C   UNL     1     -13.150  10.256  70.839  1.00  0.00    -0.344 C  
HETATM   11  N   UNL     1      -7.788  10.881  68.120  1.00  0.00    -0.109 NA 
HETATM   12  C   UNL     1     -12.258  11.495  70.662  1.00  0.00    -0.473 C  
HETATM   13  H   UNL     1      -8.189  10.097  67.605  1.00  0.00     0.000 HD 
HETATM   14  H   UNL     1     -10.844  13.576  68.874  1.00  0.00     0.000 HD 
HETATM   15  C   UNL     1     -12.149  12.004  69.212  1.00  0.00    -0.190 C  
HETATM   16  C   UNL     1      -8.549  12.125  67.887  1.00  0.00    -0.167 C  
HETATM   17  C   UNL     1     -10.089  11.931  67.882  1.00  0.00    -0.192 C  
HETATM   18  N   UNL     1     -10.802  12.565  68.997  1.00  0.00    -0.182 NA 
ENDBRANCH   1   2
BRANCH   1  19
HETATM   19  C   UNL     1     -10.445   7.711  68.605  1.00  0.00    -0.203 A  
HETATM   20  C   UNL     1     -10.379   6.340  68.781  1.00  0.00    -0.245 A  
HETATM   21  C   UNL     1      -9.732   5.616  67.812  1.00  0.00    -0.140 A  
HETATM   22  C   UNL     1     -10.298   8.300  67.359  1.00  0.00    -0.350 A  
HETATM   23  C   UNL     1      -9.446   6.200  66.580  1.00  0.00    -0.178 A  
HETATM   24  C   UNL     1      -9.716   7.559  66.353  1.00  0.00    -0.180 A  
BRANCH  23  25
HETATM   25  C   UNL     1      -8.854   5.418  65.466  1.00  0.00    -0.152 C  
BRANCH  25  26
HETATM   26  N   UNL     1      -7.830   6.056  64.657  1.00  0.00    -0.106 NA 
HETATM   27  C   UNL     1      -6.685   2.708  68.387  1.00  0.00    -0.039 C  
HETATM   28  H   UNL     1      -7.218   4.703  68.660  1.00  0.00     0.000 HD 
HETATM   29  N   UNL     1      -6.408   4.158  68.364  1.00  0.00    -0.036 NA 
HETATM   30  C   UNL     1      -8.033   2.313  67.729  1.00  0.00    -0.059 C  
HETATM   31  C   UNL     1      -5.927   4.574  67.037  1.00  0.00    -0.023 C  
HETATM   32  C   UNL     1      -6.528   6.387  65.295  1.00  0.00    -0.039 C  
HETATM   33  N   UNL     1      -7.887   1.540  66.494  1.00  0.00    -0.068 NA 
HETATM   34  H   UNL     1      -7.566   0.593  66.694  1.00  0.00     0.000 HD 
HETATM   35  C   UNL     1      -6.165   6.060  66.774  1.00  0.00    -0.029 C  
HETATM   36  C   UNL     1      -9.110   1.517  65.676  1.00  0.00    -0.073 C  
HETATM   37  C   UNL     1      -8.782   2.031  64.262  1.00  0.00    -0.095 C  
HETATM   38  C   UNL     1      -9.893   2.885  63.636  1.00  0.00    -0.138 C  
HETATM   39  N   UNL     1      -9.436   3.595  62.431  1.00  0.00    -0.092 NA 
HETATM   40  C   UNL     1      -8.988   5.000  62.593  1.00  0.00    -0.047 C  
HETATM   41  H   UNL     1      -9.428   3.139  61.519  1.00  0.00     0.000 HD 
HETATM   42  C   UNL     1      -7.670   5.313  63.385  1.00  0.00    -0.079 C  
ENDBRANCH  25  26
ENDBRANCH  23  25
ENDBRANCH   1  19
TORSDOF 4
ENDMDL
MODEL       39
REMARK 921   NORMALIZED FREE ENERGY PREDICTED BY IDOCK:   -4.74 KCAL/MOL
REMARK 922        TOTAL FREE ENERGY PREDICTED BY IDOCK:   -7.43 KCAL/MOL
REMARK 923 INTER-LIGAND FREE ENERGY PREDICTED BY IDOCK:   -6.01 KCAL/MOL
REMARK 924 INTRA-LIGAND FREE ENERGY PREDICTED BY IDOCK:   -1.42 KCAL/MOL
REMARK 927      BINDING AFFINITY PREDICTED BY RF-SCORE:    0.00 PKD
ROOT
HETATM    1  C   UNL     1      -9.405  11.205  67.994  1.00  0.00    -0.166 C  
ENDROOT
BRANCH   1   2
HETATM    2  N   UNL     1      -8.646  12.297  68.574  1.00  0.00    -0.117 NA 
HETATM    3  C   UNL     1      -9.219  13.579  68.104  1.00  0.00    -0.208 C  
HETATM    4  C   UNL     1     -10.769  13.725  68.293  1.00  0.00    -0.253 C  
HETATM    5  C   UNL     1      -7.159  12.261  68.452  1.00  0.00    -0.094 C  
HETATM    6  C   UNL     1      -6.339  11.106  67.799  1.00  0.00    -0.055 C  
HETATM    7  H   UNL     1     -12.098  14.706  66.850  1.00  0.00     0.000 HD 
HETATM    8  C   UNL     1      -6.435  11.019  66.273  1.00  0.00    -0.112 C  
HETATM    9  N   UNL     1     -11.646  13.826  67.100  1.00  0.00    -0.343 NA 
HETATM   10  C   UNL     1     -11.843  12.611  66.287  1.00  0.00    -0.410 C  
HETATM   11  N   UNL     1      -6.603   9.637  65.794  1.00  0.00    -0.077 NA 
HETATM   12  C   UNL     1     -10.853  12.518  65.115  1.00  0.00    -0.323 C  
HETATM   13  H   UNL     1      -7.101   9.064  66.475  1.00  0.00     0.000 HD 
HETATM   14  H   UNL     1      -9.357  10.890  62.961  1.00  0.00     0.000 HD 
HETATM   15  C   UNL     1     -10.778  11.131  64.448  1.00  0.00    -0.318 C  
HETATM   16  C   UNL     1      -7.260   9.598  64.472  1.00  0.00    -0.121 C  
HETATM   17  C   UNL     1      -8.809   9.671  64.534  1.00  0.00    -0.223 C  
HETATM   18  N   UNL     1      -9.399  10.894  63.980  1.00  0.00    -0.229 NA 
ENDBRANCH   1   2
BRANCH   1  19
HETATM   19  C   UNL     1      -9.672  10.005  68.842  1.00  0.00    -0.181 A  
HETATM   20  C   UNL     1     -10.385  10.119  70.022  1.00  0.00    -0.301 A  
HETATM   21  C   UNL     1     -10.085   9.231  71.022  1.00  0.00    -0.373 A  
HETATM   22  C   UNL     1      -9.032   8.830  68.481  1.00  0.00    -0.138 A  
HETATM   23  C   UNL     1      -9.336   8.090  70.740  1.00  0.00    -0.167 A  
HETATM   24  C   UNL     1      -8.789   7.893  69.461  1.00  0.00    -0.142 A  
BRANCH  23  25
HETATM   25  C   UNL     1      -9.089   7.046  71.765  1.00  0.00    -0.137 C  
BRANCH  25  26
HETATM   26  N   UNL     1      -9.254   7.411  73.161  1.00  0.00    -0.159 NA 
HETATM   27  C   UNL     1      -9.357   2.521  71.578  1.00  0.00    -0.124 C  
HETATM   28  H   UNL     1     -10.913   3.894  71.397  1.00  0.00     0.000 HD 
HETATM   29  N   UNL     1     -10.479   3.316  72.116  1.00  0.00     0.008 NA 
HETATM   30  C   UNL     1      -8.376   3.333  70.693  1.00  0.00    -0.056 C  
HETATM   31  C   UNL     1     -10.041   4.117  73.270  1.00  0.00    -0.142 C  
HETATM   32  C   UNL     1     -10.166   6.593  74.005  1.00  0.00    -0.369 C  
HETATM   33  N   UNL     1      -7.043   3.495  71.278  1.00  0.00    -0.032 NA 
HETATM   34  H   UNL     1      -6.529   2.615  71.256  1.00  0.00     0.000 HD 
HETATM   35  C   UNL     1     -10.934   5.334  73.503  1.00  0.00    -0.353 C  
HETATM   36  C   UNL     1      -6.263   4.574  70.654  1.00  0.00    -0.022 C  
HETATM   37  C   UNL     1      -5.812   5.566  71.742  1.00  0.00    -0.025 C  
HETATM   38  C   UNL     1      -5.829   7.034  71.294  1.00  0.00    -0.036 C  
HETATM   39  N   UNL     1      -5.684   7.963  72.425  1.00  0.00    -0.036 NA 
HETATM   40  C   UNL     1      -6.923   8.534  73.006  1.00  0.00    -0.021 C  
HETATM   41  H   UNL     1      -4.765   8.205  72.797  1.00  0.00     0.000 HD 
HETATM   42  C   UNL     1      -7.923   7.606  73.783  1.00  0.00    -0.152 C  
ENDBRANCH  25  26
ENDBRANCH  23  25
ENDBRANCH   1  19
TORSDOF 4
ENDMDL
MODEL       40
REMARK 921   NORMALIZED FREE ENERGY PREDICTED BY IDOCK:   -4.68 KCAL/MOL
REMARK 922        TOTAL FREE ENERGY PREDICTED BY IDOCK:   -7.35 KCAL/MOL
REMARK 923 INTER-LIGAND FREE ENERGY PREDICTED BY IDOCK:   -5.82 KCAL/MOL
REMARK 924 INTRA-LIGAND FREE ENERGY PREDICTED BY IDOCK:   -1.53 KCAL/MOL
REMARK 927      BINDING AFFINITY PREDICTED BY RF-SCORE:    0.00 PKD
ROOT
HETATM    1  C   UNL     1      -7.573  11.014  67.733  1.00  0.00    -0.099 C  
ENDROOT
BRANCH   1   2
HETATM    2  N   UNL     1      -6.271  11.642  67.612  1.00  0.00    -0.060 NA 
HETATM    3  C   UNL     1      -6.453  13.109  67.534  1.00  0.00    -0.147 C  
HETATM    4  C   UNL     1      -7.344  13.731  68.665  1.00  0.00    -0.117 C  
HETATM    5  C   UNL     1      -5.339  11.129  66.565  1.00  0.00    -0.120 C  
HETATM    6  C   UNL     1      -5.627   9.923  65.619  1.00  0.00    -0.059 C  
HETATM    7  H   UNL     1      -8.760  15.376  68.352  1.00  0.00     0.000 HD 
HETATM    8  C   UNL     1      -6.664  10.185  64.524  1.00  0.00    -0.117 C  
HETATM    9  N   UNL     1      -8.640  14.363  68.313  1.00  0.00    -0.164 NA 
HETATM   10  C   UNL     1      -9.748  13.479  67.903  1.00  0.00    -0.225 C  
HETATM   11  N   UNL     1      -7.612   9.071  64.361  1.00  0.00    -0.108 NA 
HETATM   12  C   UNL     1      -9.824  13.297  66.379  1.00  0.00    -0.281 C  
HETATM   13  H   UNL     1      -7.758   8.575  65.240  1.00  0.00     0.000 HD 
HETATM   14  H   UNL     1     -10.753  11.731  63.886  1.00  0.00     0.000 HD 
HETATM   15  C   UNL     1     -10.722  12.133  65.917  1.00  0.00    -0.266 C  
HETATM   16  C   UNL     1      -8.890   9.526  63.778  1.00  0.00    -0.210 C  
HETATM   17  C   UNL     1      -9.886  10.106  64.817  1.00  0.00    -0.312 C  
HETATM   18  N   UNL     1     -10.155  11.543  64.690  1.00  0.00    -0.257 NA 
ENDBRANCH   1   2
BRANCH   1  19
HETATM   19  C   UNL     1      -7.814  10.109  68.897  1.00  0.00    -0.100 A  
HETATM   20  C   UNL     1      -7.010   9.003  69.108  1.00  0.00    -0.058 A  
HETATM   21  C   UNL     1      -7.584   7.921  69.725  1.00  0.00    -0.090 A  
HETATM   22  C   UNL     1      -8.965  10.332  69.635  1.00  0.00    -0.140 A  
HETATM   23  C   UNL     1      -8.807   8.060  70.378  1.00  0.00    -0.141 A  
HETATM   24  C   UNL     1      -9.515   9.272  70.321  1.00  0.00    -0.277 A  
BRANCH  23  25
HETATM   25  C   UNL     1      -9.406   6.947  71.156  1.00  0.00    -0.162 C  
BRANCH  25  26
HETATM   26  N   UNL     1     -10.848   6.782  71.107  1.00  0.00    -0.232 NA 
HETATM   27  C   UNL     1      -7.651   3.775  68.429  1.00  0.00    -0.061 C  
HETATM   28  H   UNL     1      -8.207   5.718  67.924  1.00  0.00     0.000 HD 
HETATM   29  N   UNL     1      -8.598   4.777  67.900  1.00  0.00    -0.103 NA 
HETATM   30  C   UNL     1      -6.981   4.185  69.766  1.00  0.00    -0.042 C  
HETATM   31  C   UNL     1      -9.884   4.701  68.612  1.00  0.00    -0.120 C  
HETATM   32  C   UNL     1     -11.467   6.345  69.826  1.00  0.00    -0.399 C  
HETATM   33  N   UNL     1      -7.380   3.360  70.908  1.00  0.00    -0.037 NA 
HETATM   34  H   UNL     1      -6.968   2.429  70.844  1.00  0.00     0.000 HD 
HETATM   35  C   UNL     1     -10.668   6.010  68.533  1.00  0.00    -0.354 C  
HETATM   36  C   UNL     1      -7.076   3.980  72.207  1.00  0.00    -0.051 C  
HETATM   37  C   UNL     1      -8.368   4.066  73.040  1.00  0.00    -0.093 C  
HETATM   38  C   UNL     1      -8.484   5.344  73.882  1.00  0.00    -0.113 C  
HETATM   39  N   UNL     1      -9.838   5.532  74.425  1.00  0.00    -0.190 NA 
HETATM   40  C   UNL     1     -10.762   6.414  73.671  1.00  0.00    -0.212 C  
HETATM   41  H   UNL     1     -10.131   5.073  75.288  1.00  0.00     0.000 HD 
HETATM   42  C   UNL     1     -11.294   5.968  72.263  1.00  0.00    -0.303 C  
ENDBRANCH  25  26
ENDBRANCH  23  25
ENDBRANCH   1  19
TORSDOF 4
ENDMDL
MODEL       41
REMARK 921   NORMALIZED FREE ENERGY PREDICTED BY IDOCK:   -4.68 KCAL/MOL
REMARK 922        TOTAL FREE ENERGY PREDICTED BY IDOCK:   -7.35 KCAL/MOL
REMARK 923 INTER-LIGAND FREE ENERGY PREDICTED BY IDOCK:   -5.95 KCAL/MOL
REMARK 924 INTRA-LIGAND FREE ENERGY PREDICTED BY IDOCK:   -1.40 KCAL/MOL
REMARK 927      BINDING AFFINITY PREDICTED BY RF-SCORE:    0.00 PKD
ROOT
HETATM    1  C   UNL     1      -9.098  13.630  67.206  1.00  0.00    -0.228 C  
ENDROOT
BRANCH   1   2
HETATM    2  N   UNL     1      -9.465  13.903  65.830  1.00  0.00    -0.131 NA 
HETATM    3  C   UNL     1      -9.818  15.335  65.706  1.00  0.00    -0.361 C  
HETATM    4  C   UNL     1      -8.756  16.336  66.280  1.00  0.00    -0.335 C  
HETATM    5  C   UNL     1     -10.471  13.012  65.182  1.00  0.00    -0.320 C  
HETATM    6  C   UNL     1     -11.125  11.761  65.847  1.00  0.00    -0.355 C  
HETATM    7  H   UNL     1      -9.257  18.187  67.344  1.00  0.00     0.000 HD 
HETATM    8  C   UNL     1     -12.147  12.065  66.945  1.00  0.00     0.215 C  
HETATM    9  N   UNL     1      -9.104  17.184  67.448  1.00  0.00    -0.223 NA 
HETATM   10  C   UNL     1      -9.220  16.527  68.763  1.00  0.00    -0.252 C  
HETATM   11  N   UNL     1     -11.992  11.193  68.121  1.00  0.00    -0.704 NA 
HETATM   12  C   UNL     1     -10.663  16.105  69.086  1.00  0.00    -0.292 C  
HETATM   13  H   UNL     1     -11.022  10.906  68.247  1.00  0.00     0.000 HD 
HETATM   14  H   UNL     1     -12.691  14.392  70.661  1.00  0.00     0.000 HD 
HETATM   15  C   UNL     1     -10.794  15.122  70.265  1.00  0.00    -0.231 C  
HETATM   16  C   UNL     1     -12.531  11.828  69.341  1.00  0.00     0.139 C  
HETATM   17  C   UNL     1     -11.539  12.796  70.039  1.00  0.00    -0.120 C  
HETATM   18  N   UNL     1     -11.926  14.211  70.012  1.00  0.00    -0.319 NA 
ENDBRANCH   1   2
BRANCH   1  19
HETATM   19  C   UNL     1      -8.379  12.354  67.504  1.00  0.00    -0.173 A  
HETATM   20  C   UNL     1      -7.661  11.703  66.516  1.00  0.00     0.016 A  
HETATM   21  C   UNL     1      -7.569  10.338  66.608  1.00  0.00    -0.110 A  
HETATM   22  C   UNL     1      -8.611  11.780  68.743  1.00  0.00     0.013 A  
HETATM   23  C   UNL     1      -7.909   9.694  67.796  1.00  0.00    -0.094 A  
HETATM   24  C   UNL     1      -8.451  10.418  68.871  1.00  0.00    -0.144 A  
BRANCH  23  25
HETATM   25  C   UNL     1      -7.712   8.235  67.976  1.00  0.00    -0.107 C  
BRANCH  25  26
HETATM   26  N   UNL     1      -6.427   7.778  68.475  1.00  0.00    -0.051 NA 
HETATM   27  C   UNL     1     -10.876   6.120  70.446  1.00  0.00    -0.310 C  
HETATM   28  H   UNL     1      -9.981   7.960  70.835  1.00  0.00     0.000 HD 
HETATM   29  N   UNL     1      -9.869   6.981  71.098  1.00  0.00    -0.177 NA 
HETATM   30  C   UNL     1     -11.048   6.388  68.929  1.00  0.00    -0.348 C  
HETATM   31  C   UNL     1      -8.509   6.492  70.818  1.00  0.00    -0.134 C  
HETATM   32  C   UNL     1      -6.295   7.483  69.927  1.00  0.00    -0.027 C  
HETATM   33  N   UNL     1     -10.598   5.286  68.076  1.00  0.00    -0.080 NA 
HETATM   34  H   UNL     1     -11.242   4.497  68.134  1.00  0.00     0.000 HD 
HETATM   35  C   UNL     1      -7.459   7.592  70.956  1.00  0.00    -0.075 C  
HETATM   36  C   UNL     1     -10.385   5.685  66.676  1.00  0.00    -0.256 C  
HETATM   37  C   UNL     1      -8.947   5.325  66.262  1.00  0.00    -0.133 C  
HETATM   38  C   UNL     1      -8.288   6.355  65.334  1.00  0.00    -0.141 C  
HETATM   39  N   UNL     1      -6.839   6.137  65.200  1.00  0.00    -0.050 NA 
HETATM   40  C   UNL     1      -5.943   6.933  66.073  1.00  0.00    -0.035 C  
HETATM   41  H   UNL     1      -6.464   5.463  64.531  1.00  0.00     0.000 HD 
HETATM   42  C   UNL     1      -5.927   6.674  67.621  1.00  0.00    -0.024 C  
ENDBRANCH  25  26
ENDBRANCH  23  25
ENDBRANCH   1  19
TORSDOF 4
ENDMDL
MODEL       42
REMARK 921   NORMALIZED FREE ENERGY PREDICTED BY IDOCK:   -4.66 KCAL/MOL
REMARK 922        TOTAL FREE ENERGY PREDICTED BY IDOCK:   -7.33 KCAL/MOL
REMARK 923 INTER-LIGAND FREE ENERGY PREDICTED BY IDOCK:   -6.20 KCAL/MOL
REMARK 924 INTRA-LIGAND FREE ENERGY PREDICTED BY IDOCK:   -1.13 KCAL/MOL
REMARK 927      BINDING AFFINITY PREDICTED BY RF-SCORE:    0.00 PKD
ROOT
HETATM    1  C   UNL     1      -8.951  11.768  67.824  1.00  0.00    -0.173 C  
ENDROOT
BRANCH   1   2
HETATM    2  N   UNL     1      -8.344  13.072  68.009  1.00  0.00    -0.159 NA 
HETATM    3  C   UNL     1      -9.089  14.065  67.202  1.00  0.00    -0.232 C  
HETATM    4  C   UNL     1     -10.643  14.064  67.414  1.00  0.00    -0.278 C  
HETATM    5  C   UNL     1      -6.867  13.189  67.831  1.00  0.00    -0.135 C  
HETATM    6  C   UNL     1      -5.902  12.004  67.518  1.00  0.00    -0.109 C  
HETATM    7  H   UNL     1     -12.104  14.379  65.808  1.00  0.00     0.000 HD 
HETATM    8  C   UNL     1      -5.997  11.444  66.097  1.00  0.00     0.027 C  
HETATM    9  N   UNL     1     -11.535  13.682  66.290  1.00  0.00    -0.323 NA 
HETATM   10  C   UNL     1     -11.571  12.262  65.893  1.00  0.00    -0.393 C  
HETATM   11  N   UNL     1      -5.979   9.972  66.066  1.00  0.00    -0.069 NA 
HETATM   12  C   UNL     1     -10.586  11.942  64.757  1.00  0.00    -0.346 C  
HETATM   13  H   UNL     1      -6.389   9.576  66.912  1.00  0.00     0.000 HD 
HETATM   14  H   UNL     1      -8.898   9.937  63.125  1.00  0.00     0.000 HD 
HETATM   15  C   UNL     1     -10.328  10.439  64.537  1.00  0.00    -0.085 C  
HETATM   16  C   UNL     1      -6.634   9.447  64.851  1.00  0.00    -0.082 C  
HETATM   17  C   UNL     1      -8.178   9.337  64.964  1.00  0.00    -0.145 C  
HETATM   18  N   UNL     1      -8.934  10.247  64.096  1.00  0.00    -0.216 NA 
ENDBRANCH   1   2
BRANCH   1  19
HETATM   19  C   UNL     1      -8.988  10.836  68.990  1.00  0.00    -0.141 A  
HETATM   20  C   UNL     1      -7.866  10.110  69.349  1.00  0.00    -0.150 A  
HETATM   21  C   UNL     1      -8.073   8.891  69.941  1.00  0.00    -0.112 A  
HETATM   22  C   UNL     1     -10.226  10.610  69.571  1.00  0.00    -0.190 A  
HETATM   23  C   UNL     1      -9.334   8.560  70.433  1.00  0.00    -0.179 A  
HETATM   24  C   UNL     1     -10.427   9.418  70.234  1.00  0.00    -0.298 A  
BRANCH  23  25
HETATM   25  C   UNL     1      -9.572   7.302  71.183  1.00  0.00    -0.160 C  
BRANCH  25  26
HETATM   26  N   UNL     1     -10.913   6.744  71.166  1.00  0.00    -0.248 NA 
HETATM   27  C   UNL     1      -7.148   4.919  68.178  1.00  0.00    -0.062 C  
HETATM   28  H   UNL     1      -8.244   6.657  67.834  1.00  0.00     0.000 HD 
HETATM   29  N   UNL     1      -8.361   5.647  67.753  1.00  0.00    -0.101 NA 
HETATM   30  C   UNL     1      -6.552   5.417  69.520  1.00  0.00    -0.047 C  
HETATM   31  C   UNL     1      -9.539   5.173  68.497  1.00  0.00    -0.140 C  
HETATM   32  C   UNL     1     -11.451   6.231  69.877  1.00  0.00    -0.389 C  
HETATM   33  N   UNL     1      -6.650   4.444  70.611  1.00  0.00    -0.034 NA 
HETATM   34  H   UNL     1      -6.001   3.671  70.467  1.00  0.00     0.000 HD 
HETATM   35  C   UNL     1     -10.656   6.213  68.538  1.00  0.00    -0.327 C  
HETATM   36  C   UNL     1      -6.464   5.044  71.942  1.00  0.00    -0.035 C  
HETATM   37  C   UNL     1      -7.686   4.714  72.819  1.00  0.00    -0.088 C  
HETATM   38  C   UNL     1      -8.109   5.855  73.754  1.00  0.00    -0.106 C  
HETATM   39  N   UNL     1      -9.433   5.624  74.351  1.00  0.00    -0.138 NA 
HETATM   40  C   UNL     1     -10.601   6.257  73.693  1.00  0.00    -0.263 C  
HETATM   41  H   UNL     1      -9.544   5.049  75.187  1.00  0.00     0.000 HD 
HETATM   42  C   UNL     1     -11.059   5.769  72.273  1.00  0.00    -0.276 C  
ENDBRANCH  25  26
ENDBRANCH  23  25
ENDBRANCH   1  19
TORSDOF 4
ENDMDL
MODEL       43
REMARK 921   NORMALIZED FREE ENERGY PREDICTED BY IDOCK:   -4.59 KCAL/MOL
REMARK 922        TOTAL FREE ENERGY PREDICTED BY IDOCK:   -7.24 KCAL/MOL
REMARK 923 INTER-LIGAND FREE ENERGY PREDICTED BY IDOCK:   -5.87 KCAL/MOL
REMARK 924 INTRA-LIGAND FREE ENERGY PREDICTED BY IDOCK:   -1.38 KCAL/MOL
REMARK 927      BINDING AFFINITY PREDICTED BY RF-SCORE:    0.00 PKD
ROOT
HETATM    1  C   UNL     1      -7.926  10.940  68.005  1.00  0.00    -0.109 C  
ENDROOT
BRANCH   1   2
HETATM    2  N   UNL     1      -7.503  10.319  66.764  1.00  0.00    -0.104 NA 
HETATM    3  C   UNL     1      -6.528  11.209  66.094  1.00  0.00    -0.038 C  
HETATM    4  C   UNL     1      -5.334  11.687  66.992  1.00  0.00    -0.116 C  
HETATM    5  C   UNL     1      -8.558   9.827  65.830  1.00  0.00    -0.137 C  
HETATM    6  C   UNL     1     -10.093   9.869  66.105  1.00  0.00    -0.315 C  
HETATM    7  H   UNL     1      -4.460  13.696  66.910  1.00  0.00     0.000 HD 
HETATM    8  C   UNL     1     -10.729  11.260  66.041  1.00  0.00    -0.242 C  
HETATM    9  N   UNL     1      -5.199  13.127  67.324  1.00  0.00    -0.338 NA 
HETATM   10  C   UNL     1      -6.167  13.709  68.272  1.00  0.00    -0.107 C  
HETATM   11  N   UNL     1     -11.679  11.500  67.139  1.00  0.00    -0.577 NA 
HETATM   12  C   UNL     1      -7.374  14.347  67.565  1.00  0.00    -0.208 C  
HETATM   13  H   UNL     1     -11.419  10.982  67.978  1.00  0.00     0.000 HD 
HETATM   14  H   UNL     1     -10.284  15.377  67.581  1.00  0.00     0.000 HD 
HETATM   15  C   UNL     1      -8.567  14.657  68.489  1.00  0.00    -0.170 C  
HETATM   16  C   UNL     1     -11.830  12.942  67.421  1.00  0.00    -0.360 C  
HETATM   17  C   UNL     1     -10.737  13.520  68.359  1.00  0.00    -0.259 C  
HETATM   18  N   UNL     1      -9.822  14.481  67.734  1.00  0.00    -0.218 NA 
ENDBRANCH   1   2
BRANCH   1  19
HETATM   19  C   UNL     1      -7.819  10.142  69.264  1.00  0.00    -0.134 A  
HETATM   20  C   UNL     1      -6.625  10.082  69.961  1.00  0.00    -0.102 A  
HETATM   21  C   UNL     1      -6.374   8.936  70.671  1.00  0.00    -0.045 A  
HETATM   22  C   UNL     1      -8.903   9.345  69.593  1.00  0.00    -0.178 A  
HETATM   23  C   UNL     1      -7.405   8.034  70.926  1.00  0.00    -0.058 A  
HETATM   24  C   UNL     1      -8.679   8.229  70.369  1.00  0.00    -0.139 A  
BRANCH  23  25
HETATM   25  C   UNL     1      -7.203   6.844  71.789  1.00  0.00    -0.079 C  
BRANCH  25  26
HETATM   26  N   UNL     1      -6.582   7.042  73.086  1.00  0.00    -0.065 NA 
HETATM   27  C   UNL     1     -11.639   6.281  72.560  1.00  0.00    -0.232 C  
HETATM   28  H   UNL     1     -10.630   8.065  72.192  1.00  0.00     0.000 HD 
HETATM   29  N   UNL     1     -10.955   7.517  72.988  1.00  0.00    -0.381 NA 
HETATM   30  C   UNL     1     -10.877   5.485  71.468  1.00  0.00    -0.194 C  
HETATM   31  C   UNL     1      -9.861   7.208  73.923  1.00  0.00    -0.304 C  
HETATM   32  C   UNL     1      -7.347   7.770  74.135  1.00  0.00    -0.141 C  
HETATM   33  N   UNL     1     -10.363   4.192  71.925  1.00  0.00    -0.102 NA 
HETATM   34  H   UNL     1     -11.123   3.525  72.055  1.00  0.00     0.000 HD 
HETATM   35  C   UNL     1      -8.798   8.304  73.952  1.00  0.00    -0.107 C  
HETATM   36  C   UNL     1      -9.323   3.637  71.045  1.00  0.00    -0.141 C  
HETATM   37  C   UNL     1      -8.058   3.352  71.875  1.00  0.00    -0.063 C  
HETATM   38  C   UNL     1      -6.746   3.649  71.135  1.00  0.00    -0.031 C  
HETATM   39  N   UNL     1      -5.586   3.651  72.038  1.00  0.00    -0.007 NA 
HETATM   40  C   UNL     1      -5.128   4.961  72.563  1.00  0.00    -0.005 C  
HETATM   41  H   UNL     1      -5.112   2.785  72.295  1.00  0.00     0.000 HD 
HETATM   42  C   UNL     1      -6.028   5.756  73.573  1.00  0.00    -0.059 C  
ENDBRANCH  25  26
ENDBRANCH  23  25
ENDBRANCH   1  19
TORSDOF 4
ENDMDL
MODEL       44
REMARK 921   NORMALIZED FREE ENERGY PREDICTED BY IDOCK:   -4.57 KCAL/MOL
REMARK 922        TOTAL FREE ENERGY PREDICTED BY IDOCK:   -7.22 KCAL/MOL
REMARK 923 INTER-LIGAND FREE ENERGY PREDICTED BY IDOCK:   -5.96 KCAL/MOL
REMARK 924 INTRA-LIGAND FREE ENERGY PREDICTED BY IDOCK:   -1.26 KCAL/MOL
REMARK 927      BINDING AFFINITY PREDICTED BY RF-SCORE:    0.00 PKD
ROOT
HETATM    1  C   UNL     1      -8.873   9.831  65.769  1.00  0.00    -0.153 C  
ENDROOT
BRANCH   1   2
HETATM    2  N   UNL     1      -9.880  10.372  64.875  1.00  0.00    -0.312 NA 
HETATM    3  C   UNL     1      -9.349  10.360  63.494  1.00  0.00    -0.297 C  
HETATM    4  C   UNL     1      -8.764   8.985  63.017  1.00  0.00    -0.116 C  
HETATM    5  C   UNL     1     -10.505  11.679  65.232  1.00  0.00    -0.273 C  
HETATM    6  C   UNL     1     -10.208  12.494  66.528  1.00  0.00    -0.255 C  
HETATM    7  H   UNL     1      -6.984   8.777  61.752  1.00  0.00     0.000 HD 
HETATM    8  C   UNL     1      -8.836  13.173  66.572  1.00  0.00     0.020 C  
HETATM    9  N   UNL     1      -7.315   8.871  62.713  1.00  0.00    -0.096 NA 
HETATM   10  C   UNL     1      -6.370   8.900  63.845  1.00  0.00    -0.086 C  
HETATM   11  N   UNL     1      -8.173  13.027  67.878  1.00  0.00    -0.152 NA 
HETATM   12  C   UNL     1      -5.839  10.313  64.134  1.00  0.00    -0.142 C  
HETATM   13  H   UNL     1      -8.443  12.158  68.338  1.00  0.00     0.000 HD 
HETATM   14  H   UNL     1      -4.526  12.375  66.020  1.00  0.00     0.000 HD 
HETATM   15  C   UNL     1      -5.134  10.465  65.495  1.00  0.00    -0.083 C  
HETATM   16  C   UNL     1      -6.705  13.139  67.756  1.00  0.00    -0.149 C  
HETATM   17  C   UNL     1      -6.003  11.816  67.350  1.00  0.00    -0.105 C  
HETATM   18  N   UNL     1      -5.383  11.821  66.020  1.00  0.00    -0.163 NA 
ENDBRANCH   1   2
BRANCH   1  19
HETATM   19  C   UNL     1      -9.328   9.206  67.047  1.00  0.00    -0.188 A  
HETATM   20  C   UNL     1      -8.903   9.704  68.266  1.00  0.00    -0.120 A  
HETATM   21  C   UNL     1      -8.798   8.812  69.303  1.00  0.00    -0.140 A  
HETATM   22  C   UNL     1     -10.039   8.021  66.944  1.00  0.00    -0.362 A  
HETATM   23  C   UNL     1      -9.391   7.555  69.204  1.00  0.00    -0.147 A  
HETATM   24  C   UNL     1     -10.005   7.146  68.009  1.00  0.00    -0.184 A  
BRANCH  23  25
HETATM   25  C   UNL     1      -9.402   6.606  70.345  1.00  0.00    -0.159 C  
BRANCH  25  26
HETATM   26  N   UNL     1     -10.115   5.352  70.179  1.00  0.00    -0.229 NA 
HETATM   27  C   UNL     1      -5.634   5.645  72.682  1.00  0.00    -0.026 C  
HETATM   28  H   UNL     1      -5.878   5.654  70.614  1.00  0.00     0.000 HD 
HETATM   29  N   UNL     1      -5.899   4.989  71.386  1.00  0.00    -0.012 NA 
HETATM   30  C   UNL     1      -6.439   6.951  72.904  1.00  0.00    -0.061 C  
HETATM   31  C   UNL     1      -7.168   4.244  71.431  1.00  0.00    -0.043 C  
HETATM   32  C   UNL     1      -9.324   4.103  70.012  1.00  0.00    -0.167 C  
HETATM   33  N   UNL     1      -7.441   6.858  73.968  1.00  0.00    -0.095 NA 
HETATM   34  H   UNL     1      -6.995   6.832  74.885  1.00  0.00     0.000 HD 
HETATM   35  C   UNL     1      -7.768   4.038  70.042  1.00  0.00    -0.052 C  
HETATM   36  C   UNL     1      -8.453   7.925  73.907  1.00  0.00    -0.259 C  
HETATM   37  C   UNL     1      -9.854   7.289  73.846  1.00  0.00    -0.322 C  
HETATM   38  C   UNL     1     -10.840   8.038  72.938  1.00  0.00    -0.330 C  
HETATM   39  N   UNL     1     -12.055   7.255  72.671  1.00  0.00    -0.520 NA 
HETATM   40  C   UNL     1     -12.102   6.471  71.412  1.00  0.00    -0.287 C  
HETATM   41  H   UNL     1     -12.838   7.250  73.325  1.00  0.00     0.000 HD 
HETATM   42  C   UNL     1     -11.156   5.232  71.228  1.00  0.00     0.108 C  
ENDBRANCH  25  26
ENDBRANCH  23  25
ENDBRANCH   1  19
TORSDOF 4
ENDMDL
MODEL       45
REMARK 921   NORMALIZED FREE ENERGY PREDICTED BY IDOCK:   -4.57 KCAL/MOL
REMARK 922        TOTAL FREE ENERGY PREDICTED BY IDOCK:   -7.22 KCAL/MOL
REMARK 923 INTER-LIGAND FREE ENERGY PREDICTED BY IDOCK:   -5.62 KCAL/MOL
REMARK 924 INTRA-LIGAND FREE ENERGY PREDICTED BY IDOCK:   -1.60 KCAL/MOL
REMARK 927      BINDING AFFINITY PREDICTED BY RF-SCORE:    0.00 PKD
ROOT
HETATM    1  C   UNL     1     -10.596   8.158  70.127  1.00  0.00    -0.237 C  
ENDROOT
BRANCH   1   2
HETATM    2  N   UNL     1     -10.028   7.928  71.441  1.00  0.00    -0.170 NA 
HETATM    3  C   UNL     1     -10.811   8.690  72.440  1.00  0.00    -0.242 C  
HETATM    4  C   UNL     1     -12.362   8.467  72.382  1.00  0.00    -0.359 C  
HETATM    5  C   UNL     1      -8.557   8.113  71.612  1.00  0.00    -0.140 C  
HETATM    6  C   UNL     1      -7.558   8.478  70.471  1.00  0.00    -0.074 C  
HETATM    7  H   UNL     1     -13.846  10.049  72.711  1.00  0.00     0.000 HD 
HETATM    8  C   UNL     1      -7.648   9.919  69.961  1.00  0.00    -0.172 C  
HETATM    9  N   UNL     1     -13.251   9.598  72.015  1.00  0.00    -0.429 NA 
HETATM   10  C   UNL     1     -13.247  10.049  70.611  1.00  0.00    -0.118 C  
HETATM   11  N   UNL     1      -7.585  10.006  68.493  1.00  0.00    -0.086 NA 
HETATM   12  C   UNL     1     -12.263  11.204  70.365  1.00  0.00    -0.457 C  
HETATM   13  H   UNL     1      -7.975   9.173  68.053  1.00  0.00     0.000 HD 
HETATM   14  H   UNL     1     -10.528  12.924  68.478  1.00  0.00     0.000 HD 
HETATM   15  C   UNL     1     -11.960  11.482  68.881  1.00  0.00    -0.299 C  
HETATM   16  C   UNL     1      -8.234  11.235  67.994  1.00  0.00    -0.134 C  
HETATM   17  C   UNL     1      -9.773  11.114  67.832  1.00  0.00    -0.174 C  
HETATM   18  N   UNL     1     -10.564  11.942  68.750  1.00  0.00    -0.219 NA 
ENDBRANCH   1   2
BRANCH   1  19
HETATM   19  C   UNL     1     -10.405   7.107  69.083  1.00  0.00    -0.205 A  
HETATM   20  C   UNL     1     -10.361   5.768  69.430  1.00  0.00    -0.332 A  
HETATM   21  C   UNL     1      -9.600   4.943  68.643  1.00  0.00    -0.215 A  
HETATM   22  C   UNL     1     -10.106   7.544  67.803  1.00  0.00    -0.235 A  
HETATM   23  C   UNL     1      -9.165   5.379  67.393  1.00  0.00    -0.112 A  
HETATM   24  C   UNL     1      -9.405   6.697  66.972  1.00  0.00    -0.160 A  
BRANCH  23  25
HETATM   25  C   UNL     1      -8.441   4.478  66.462  1.00  0.00    -0.109 C  
BRANCH  25  26
HETATM   26  N   UNL     1      -7.598   3.444  67.035  1.00  0.00    -0.078 NA 
HETATM   27  C   UNL     1      -9.902   2.885  62.473  1.00  0.00    -0.092 C  
HETATM   28  H   UNL     1     -10.816   2.683  64.333  1.00  0.00     0.000 HD 
HETATM   29  N   UNL     1     -10.193   2.155  63.722  1.00  0.00    -0.131 NA 
HETATM   30  C   UNL     1      -9.525   4.374  62.686  1.00  0.00    -0.118 C  
HETATM   31  C   UNL     1      -8.945   1.781  64.408  1.00  0.00    -0.111 C  
HETATM   32  C   UNL     1      -7.952   2.021  66.782  1.00  0.00    -0.075 C  
HETATM   33  N   UNL     1      -8.134   4.689  62.352  1.00  0.00    -0.068 NA 
HETATM   34  H   UNL     1      -7.991   4.669  61.342  1.00  0.00     0.000 HD 
HETATM   35  C   UNL     1      -9.151   1.556  65.904  1.00  0.00    -0.053 C  
HETATM   36  C   UNL     1      -7.675   5.965  62.921  1.00  0.00    -0.088 C  
HETATM   37  C   UNL     1      -6.411   5.716  63.764  1.00  0.00    -0.025 C  
HETATM   38  C   UNL     1      -6.332   6.569  65.038  1.00  0.00    -0.041 C  
HETATM   39  N   UNL     1      -5.282   6.101  65.957  1.00  0.00    -0.012 NA 
HETATM   40  C   UNL     1      -5.689   5.197  67.059  1.00  0.00    -0.017 C  
HETATM   41  H   UNL     1      -4.310   6.389  65.840  1.00  0.00     0.000 HD 
HETATM   42  C   UNL     1      -6.177   3.740  66.736  1.00  0.00    -0.028 C  
ENDBRANCH  25  26
ENDBRANCH  23  25
ENDBRANCH   1  19
TORSDOF 4
ENDMDL
MODEL       46
REMARK 921   NORMALIZED FREE ENERGY PREDICTED BY IDOCK:   -4.56 KCAL/MOL
REMARK 922        TOTAL FREE ENERGY PREDICTED BY IDOCK:   -7.20 KCAL/MOL
REMARK 923 INTER-LIGAND FREE ENERGY PREDICTED BY IDOCK:   -5.87 KCAL/MOL
REMARK 924 INTRA-LIGAND FREE ENERGY PREDICTED BY IDOCK:   -1.34 KCAL/MOL
REMARK 927      BINDING AFFINITY PREDICTED BY RF-SCORE:    0.00 PKD
ROOT
HETATM    1  C   UNL     1     -10.107   8.996  69.159  1.00  0.00    -0.195 C  
ENDROOT
BRANCH   1   2
HETATM    2  N   UNL     1      -9.650  10.348  68.898  1.00  0.00    -0.183 NA 
HETATM    3  C   UNL     1      -8.410  10.590  69.668  1.00  0.00     0.009 C  
HETATM    4  C   UNL     1      -7.290   9.506  69.487  1.00  0.00    -0.077 C  
HETATM    5  C   UNL     1     -10.634  11.461  69.042  1.00  0.00    -0.191 C  
HETATM    6  C   UNL     1     -12.143  11.286  69.395  1.00  0.00    -0.384 C  
HETATM    7  H   UNL     1      -5.984   8.803  71.102  1.00  0.00     0.000 HD 
HETATM    8  C   UNL     1     -12.433  10.885  70.843  1.00  0.00    -0.408 C  
HETATM    9  N   UNL     1      -6.886   8.670  70.644  1.00  0.00    -0.041 NA 
HETATM   10  C   UNL     1      -7.832   7.638  71.111  1.00  0.00    -0.090 C  
HETATM   11  N   UNL     1     -13.461   9.836  70.947  1.00  0.00    -0.569 NA 
HETATM   12  C   UNL     1      -8.742   8.142  72.243  1.00  0.00    -0.243 C  
HETATM   13  H   UNL     1     -13.455   9.226  70.129  1.00  0.00     0.000 HD 
HETATM   14  H   UNL     1     -11.313   7.939  73.939  1.00  0.00     0.000 HD 
HETATM   15  C   UNL     1      -9.961   7.246  72.532  1.00  0.00    -0.177 C  
HETATM   16  C   UNL     1     -13.324   9.064  72.198  1.00  0.00    -0.455 C  
HETATM   17  C   UNL     1     -12.285   7.914  72.119  1.00  0.00    -0.310 C  
HETATM   18  N   UNL     1     -11.093   8.091  72.956  1.00  0.00    -0.335 NA 
ENDBRANCH   1   2
BRANCH   1  19
HETATM   19  C   UNL     1     -10.112   8.024  68.025  1.00  0.00    -0.238 A  
HETATM   20  C   UNL     1     -10.298   6.672  68.257  1.00  0.00    -0.220 A  
HETATM   21  C   UNL     1      -9.699   5.800  67.383  1.00  0.00    -0.133 A  
HETATM   22  C   UNL     1      -9.754   8.513  66.779  1.00  0.00    -0.303 A  
HETATM   23  C   UNL     1      -9.208   6.263  66.164  1.00  0.00    -0.143 A  
HETATM   24  C   UNL     1      -9.219   7.634  65.863  1.00  0.00    -0.053 A  
BRANCH  23  25
HETATM   25  C   UNL     1      -8.661   5.336  65.142  1.00  0.00    -0.151 C  
BRANCH  25  26
HETATM   26  N   UNL     1      -7.701   5.865  64.190  1.00  0.00    -0.099 NA 
HETATM   27  C   UNL     1      -6.290   2.871  68.124  1.00  0.00    -0.032 C  
HETATM   28  H   UNL     1      -6.763   4.896  68.241  1.00  0.00     0.000 HD 
HETATM   29  N   UNL     1      -5.992   4.305  67.933  1.00  0.00    -0.026 NA 
HETATM   30  C   UNL     1      -7.696   2.448  67.627  1.00  0.00    -0.060 C  
HETATM   31  C   UNL     1      -5.622   4.576  66.534  1.00  0.00    -0.014 C  
HETATM   32  C   UNL     1      -6.342   6.224  64.678  1.00  0.00    -0.034 C  
HETATM   33  N   UNL     1      -7.672   1.554  66.467  1.00  0.00    -0.064 NA 
HETATM   34  H   UNL     1      -7.351   0.624  66.733  1.00  0.00     0.000 HD 
HETATM   35  C   UNL     1      -5.857   6.034  66.145  1.00  0.00    -0.027 C  
HETATM   36  C   UNL     1      -8.962   1.482  65.763  1.00  0.00    -0.107 C  
HETATM   37  C   UNL     1      -8.751   1.846  64.282  1.00  0.00    -0.095 C  
HETATM   38  C   UNL     1      -9.898   2.662  63.670  1.00  0.00    -0.136 C  
HETATM   39  N   UNL     1      -9.536   3.239  62.366  1.00  0.00    -0.093 NA 
HETATM   40  C   UNL     1      -9.052   4.641  62.348  1.00  0.00    -0.124 C  
HETATM   41  H   UNL     1      -9.616   2.696  61.506  1.00  0.00     0.000 HD 
HETATM   42  C   UNL     1      -7.664   4.997  62.989  1.00  0.00    -0.068 C  
ENDBRANCH  25  26
ENDBRANCH  23  25
ENDBRANCH   1  19
TORSDOF 4
ENDMDL
MODEL       47
REMARK 921   NORMALIZED FREE ENERGY PREDICTED BY IDOCK:   -4.56 KCAL/MOL
REMARK 922        TOTAL FREE ENERGY PREDICTED BY IDOCK:   -7.20 KCAL/MOL
REMARK 923 INTER-LIGAND FREE ENERGY PREDICTED BY IDOCK:   -5.83 KCAL/MOL
REMARK 924 INTRA-LIGAND FREE ENERGY PREDICTED BY IDOCK:   -1.37 KCAL/MOL
REMARK 927      BINDING AFFINITY PREDICTED BY RF-SCORE:    0.00 PKD
ROOT
HETATM    1  C   UNL     1      -9.194   6.579  70.546  1.00  0.00    -0.155 C  
ENDROOT
BRANCH   1   2
HETATM    2  N   UNL     1     -10.332   6.004  69.854  1.00  0.00    -0.206 NA 
HETATM    3  C   UNL     1     -11.542   6.191  70.686  1.00  0.00    -0.185 C  
HETATM    4  C   UNL     1     -11.788   7.658  71.184  1.00  0.00    -0.293 C  
HETATM    5  C   UNL     1     -10.208   4.610  69.337  1.00  0.00    -0.009 C  
HETATM    6  C   UNL     1      -8.924   3.729  69.428  1.00  0.00    -0.175 C  
HETATM    7  H   UNL     1     -12.573   8.170  73.167  1.00  0.00     0.000 HD 
HETATM    8  C   UNL     1      -8.587   3.207  70.827  1.00  0.00    -0.071 C  
HETATM    9  N   UNL     1     -11.727   7.959  72.636  1.00  0.00    -0.367 NA 
HETATM   10  C   UNL     1     -10.404   7.944  73.286  1.00  0.00    -0.212 C  
HETATM   11  N   UNL     1      -7.154   3.318  71.144  1.00  0.00    -0.032 NA 
HETATM   12  C   UNL     1     -10.071   6.580  73.914  1.00  0.00    -0.329 C  
HETATM   13  H   UNL     1      -6.726   4.110  70.663  1.00  0.00     0.000 HD 
HETATM   14  H   UNL     1      -8.039   4.530  75.007  1.00  0.00     0.000 HD 
HETATM   15  C   UNL     1      -8.590   6.396  74.297  1.00  0.00    -0.131 C  
HETATM   16  C   UNL     1      -6.924   3.383  72.601  1.00  0.00    -0.042 C  
HETATM   17  C   UNL     1      -7.076   4.806  73.202  1.00  0.00    -0.079 C  
HETATM   18  N   UNL     1      -8.215   4.981  74.110  1.00  0.00    -0.100 NA 
ENDBRANCH   1   2
BRANCH   1  19
HETATM   19  C   UNL     1      -8.460   7.699  69.886  1.00  0.00    -0.137 A  
HETATM   20  C   UNL     1      -8.468   8.970  70.436  1.00  0.00    -0.201 A  
HETATM   21  C   UNL     1      -8.363  10.027  69.569  1.00  0.00    -0.180 A  
HETATM   22  C   UNL     1      -7.929   7.446  68.631  1.00  0.00    -0.123 A  
HETATM   23  C   UNL     1      -7.952   9.812  68.255  1.00  0.00    -0.096 A  
HETATM   24  C   UNL     1      -7.747   8.509  67.773  1.00  0.00    -0.103 A  
BRANCH  23  25
HETATM   25  C   UNL     1      -7.712  10.939  67.320  1.00  0.00    -0.112 C  
BRANCH  25  26
HETATM   26  N   UNL     1      -6.379  11.514  67.276  1.00  0.00    -0.094 NA 
HETATM   27  C   UNL     1      -8.929  10.186  63.014  1.00  0.00    -0.250 C  
HETATM   28  H   UNL     1      -7.945   8.880  64.303  1.00  0.00     0.000 HD 
HETATM   29  N   UNL     1      -7.718   9.553  63.572  1.00  0.00    -0.118 NA 
HETATM   30  C   UNL     1      -9.933  10.680  64.089  1.00  0.00    -0.342 C  
HETATM   31  C   UNL     1      -6.769  10.574  64.045  1.00  0.00     0.104 C  
HETATM   32  C   UNL     1      -5.445  11.059  66.211  1.00  0.00    -0.133 C  
HETATM   33  N   UNL     1     -10.068  12.137  64.150  1.00  0.00    -0.429 NA 
HETATM   34  H   UNL     1     -10.574  12.489  63.338  1.00  0.00     0.000 HD 
HETATM   35  C   UNL     1      -5.812  10.029  65.103  1.00  0.00    -0.101 C  
HETATM   36  C   UNL     1     -10.686  12.610  65.399  1.00  0.00    -0.280 C  
HETATM   37  C   UNL     1      -9.748  13.628  66.073  1.00  0.00    -0.239 C  
HETATM   38  C   UNL     1      -9.721  13.532  67.605  1.00  0.00    -0.229 C  
HETATM   39  N   UNL     1      -8.612  14.301  68.191  1.00  0.00    -0.164 NA 
HETATM   40  C   UNL     1      -7.366  13.565  68.516  1.00  0.00    -0.114 C  
HETATM   41  H   UNL     1      -8.697  15.302  68.368  1.00  0.00     0.000 HD 
HETATM   42  C   UNL     1      -6.473  12.991  67.360  1.00  0.00    -0.098 C  
ENDBRANCH  25  26
ENDBRANCH  23  25
ENDBRANCH   1  19
TORSDOF 4
ENDMDL
MODEL       48
REMARK 921   NORMALIZED FREE ENERGY PREDICTED BY IDOCK:   -4.54 KCAL/MOL
REMARK 922        TOTAL FREE ENERGY PREDICTED BY IDOCK:   -7.19 KCAL/MOL
REMARK 923 INTER-LIGAND FREE ENERGY PREDICTED BY IDOCK:   -6.29 KCAL/MOL
REMARK 924 INTRA-LIGAND FREE ENERGY PREDICTED BY IDOCK:   -0.89 KCAL/MOL
REMARK 927      BINDING AFFINITY PREDICTED BY RF-SCORE:    0.00 PKD
ROOT
HETATM    1  C   UNL     1      -8.225  11.127  67.416  1.00  0.00    -0.132 C  
ENDROOT
BRANCH   1   2
HETATM    2  N   UNL     1      -7.547  12.367  67.742  1.00  0.00    -0.122 NA 
HETATM    3  C   UNL     1      -8.315  13.495  67.168  1.00  0.00    -0.139 C  
HETATM    4  C   UNL     1      -9.844  13.508  67.518  1.00  0.00    -0.227 C  
HETATM    5  C   UNL     1      -6.087  12.466  67.450  1.00  0.00    -0.158 C  
HETATM    6  C   UNL     1      -5.206  11.316  66.872  1.00  0.00    -0.088 C  
HETATM    7  H   UNL     1     -11.421  14.113  66.120  1.00  0.00     0.000 HD 
HETATM    8  C   UNL     1      -5.447  10.987  65.396  1.00  0.00    -0.008 C  
HETATM    9  N   UNL     1     -10.844  13.333  66.436  1.00  0.00    -0.286 NA 
HETATM   10  C   UNL     1     -10.977  11.994  65.832  1.00  0.00    -0.298 C  
HETATM   11  N   UNL     1      -5.496   9.538  65.139  1.00  0.00    -0.045 NA 
HETATM   12  C   UNL     1     -10.108  11.826  64.575  1.00  0.00    -0.312 C  
HETATM   13  H   UNL     1      -5.850   9.028  65.949  1.00  0.00     0.000 HD 
HETATM   14  H   UNL     1      -8.657  10.051  62.508  1.00  0.00     0.000 HD 
HETATM   15  C   UNL     1      -9.936  10.369  64.105  1.00  0.00    -0.267 C  
HETATM   16  C   UNL     1      -6.276   9.229  63.924  1.00  0.00    -0.089 C  
HETATM   17  C   UNL     1      -7.808   9.150  64.160  1.00  0.00    -0.128 C  
HETATM   18  N   UNL     1      -8.595  10.207  63.514  1.00  0.00    -0.183 NA 
ENDBRANCH   1   2
BRANCH   1  19
HETATM   19  C   UNL     1      -7.931   9.923  68.250  1.00  0.00    -0.100 A  
HETATM   20  C   UNL     1      -7.473   8.755  67.665  1.00  0.00    -0.093 A  
HETATM   21  C   UNL     1      -7.806   7.575  68.280  1.00  0.00    -0.122 A  
HETATM   22  C   UNL     1      -8.299   9.981  69.584  1.00  0.00    -0.188 A  
HETATM   23  C   UNL     1      -8.300   7.584  69.583  1.00  0.00    -0.131 A  
HETATM   24  C   UNL     1      -8.566   8.798  70.238  1.00  0.00    -0.158 A  
BRANCH  23  25
HETATM   25  C   UNL     1      -8.562   6.327  70.326  1.00  0.00    -0.138 C  
BRANCH  25  26
HETATM   26  N   UNL     1      -8.822   5.124  69.555  1.00  0.00    -0.098 NA 
HETATM   27  C   UNL     1      -7.641   4.972  74.557  1.00  0.00    -0.089 C  
HETATM   28  H   UNL     1      -6.295   5.261  72.995  1.00  0.00     0.000 HD 
HETATM   29  N   UNL     1      -6.820   4.500  73.424  1.00  0.00    -0.062 NA 
HETATM   30  C   UNL     1      -8.455   6.257  74.254  1.00  0.00    -0.122 C  
HETATM   31  C   UNL     1      -7.652   3.788  72.441  1.00  0.00    -0.066 C  
HETATM   32  C   UNL     1      -8.062   3.889  69.891  1.00  0.00    -0.054 C  
HETATM   33  N   UNL     1      -9.904   6.048  74.219  1.00  0.00    -0.212 NA 
HETATM   34  H   UNL     1     -10.271   5.890  75.157  1.00  0.00     0.000 HD 
HETATM   35  C   UNL     1      -7.026   3.782  71.048  1.00  0.00    -0.033 C  
HETATM   36  C   UNL     1     -10.632   7.138  73.549  1.00  0.00    -0.374 C  
HETATM   37  C   UNL     1     -11.484   6.550  72.409  1.00  0.00    -0.306 C  
HETATM   38  C   UNL     1     -11.548   7.437  71.158  1.00  0.00    -0.286 C  
HETATM   39  N   UNL     1     -12.112   6.726  70.000  1.00  0.00    -0.638 NA 
HETATM   40  C   UNL     1     -11.160   6.117  69.040  1.00  0.00    -0.367 C  
HETATM   41  H   UNL     1     -13.120   6.654  69.863  1.00  0.00     0.000 HD 
HETATM   42  C   UNL     1     -10.284   4.891  69.478  1.00  0.00    -0.177 C  
ENDBRANCH  25  26
ENDBRANCH  23  25
ENDBRANCH   1  19
TORSDOF 4
ENDMDL
MODEL       49
REMARK 921   NORMALIZED FREE ENERGY PREDICTED BY IDOCK:   -4.53 KCAL/MOL
REMARK 922        TOTAL FREE ENERGY PREDICTED BY IDOCK:   -7.17 KCAL/MOL
REMARK 923 INTER-LIGAND FREE ENERGY PREDICTED BY IDOCK:   -5.88 KCAL/MOL
REMARK 924 INTRA-LIGAND FREE ENERGY PREDICTED BY IDOCK:   -1.29 KCAL/MOL
REMARK 927      BINDING AFFINITY PREDICTED BY RF-SCORE:    0.00 PKD
ROOT
HETATM    1  C   UNL     1      -8.220   6.868  71.089  1.00  0.00    -0.118 C  
ENDROOT
BRANCH   1   2
HETATM    2  N   UNL     1      -7.155   7.413  71.909  1.00  0.00    -0.062 NA 
HETATM    3  C   UNL     1      -5.990   6.502  71.845  1.00  0.00    -0.038 C  
HETATM    4  C   UNL     1      -5.528   6.112  70.397  1.00  0.00    -0.014 C  
HETATM    5  C   UNL     1      -7.483   7.819  73.307  1.00  0.00    -0.115 C  
HETATM    6  C   UNL     1      -8.902   7.761  73.950  1.00  0.00    -0.329 C  
HETATM    7  H   UNL     1      -4.802   4.121  69.832  1.00  0.00     0.000 HD 
HETATM    8  C   UNL     1      -9.417   6.355  74.271  1.00  0.00    -0.213 C  
HETATM    9  N   UNL     1      -5.633   4.700  69.951  1.00  0.00    -0.012 NA 
HETATM   10  C   UNL     1      -6.981   4.162  69.684  1.00  0.00    -0.045 C  
HETATM   11  N   UNL     1     -10.828   6.168  73.894  1.00  0.00    -0.405 NA 
HETATM   12  C   UNL     1      -7.584   3.452  70.906  1.00  0.00    -0.040 C  
HETATM   13  H   UNL     1     -11.079   6.747  73.093  1.00  0.00     0.000 HD 
HETATM   14  H   UNL     1     -10.008   2.361  72.476  1.00  0.00     0.000 HD 
HETATM   15  C   UNL     1      -9.097   3.178  70.805  1.00  0.00    -0.116 C  
HETATM   16  C   UNL     1     -11.140   4.745  73.651  1.00  0.00    -0.304 C  
HETATM   17  C   UNL     1     -10.785   4.256  72.221  1.00  0.00     0.043 C  
HETATM   18  N   UNL     1      -9.697   3.275  72.149  1.00  0.00    -0.149 NA 
ENDBRANCH   1   2
BRANCH   1  19
HETATM   19  C   UNL     1      -8.819   7.744  70.037  1.00  0.00    -0.142 A  
HETATM   20  C   UNL     1      -8.878   7.324  68.720  1.00  0.00    -0.127 A  
HETATM   21  C   UNL     1      -8.824   8.293  67.752  1.00  0.00    -0.137 A  
HETATM   22  C   UNL     1      -9.143   9.038  70.411  1.00  0.00    -0.242 A  
HETATM   23  C   UNL     1      -9.019   9.630  68.093  1.00  0.00    -0.123 A  
HETATM   24  C   UNL     1      -9.165  10.012  69.436  1.00  0.00    -0.229 A  
BRANCH  23  25
HETATM   25  C   UNL     1      -9.085  10.696  67.062  1.00  0.00    -0.144 C  
BRANCH  25  26
HETATM   26  N   UNL     1      -8.316  10.511  65.844  1.00  0.00    -0.156 NA 
HETATM   27  C   UNL     1     -12.425  13.595  66.049  1.00  0.00    -0.426 C  
HETATM   28  H   UNL     1     -12.465  11.516  65.923  1.00  0.00     0.000 HD 
HETATM   29  N   UNL     1     -12.294  12.318  65.318  1.00  0.00    -0.553 NA 
HETATM   30  C   UNL     1     -11.689  13.618  67.414  1.00  0.00    -0.381 C  
HETATM   31  C   UNL     1     -10.982  12.232  64.655  1.00  0.00    -0.306 C  
HETATM   32  C   UNL     1      -9.035  10.536  64.541  1.00  0.00    -0.209 C  
HETATM   33  N   UNL     1     -10.548  14.534  67.458  1.00  0.00    -0.260 NA 
HETATM   34  H   UNL     1     -10.862  15.504  67.471  1.00  0.00     0.000 HD 
HETATM   35  C   UNL     1     -10.563  10.788  64.386  1.00  0.00    -0.246 C  
HETATM   36  C   UNL     1      -9.630  14.265  68.576  1.00  0.00    -0.220 C  
HETATM   37  C   UNL     1      -8.210  14.049  68.022  1.00  0.00    -0.155 C  
HETATM   38  C   UNL     1      -7.411  12.966  68.761  1.00  0.00    -0.066 C  
HETATM   39  N   UNL     1      -6.192  12.580  68.034  1.00  0.00    -0.076 NA 
HETATM   40  C   UNL     1      -6.263  11.380  67.165  1.00  0.00    -0.106 C  
HETATM   41  H   UNL     1      -5.329  13.118  68.124  1.00  0.00     0.000 HD 
HETATM   42  C   UNL     1      -7.137  11.409  65.862  1.00  0.00     0.343 C  
ENDBRANCH  25  26
ENDBRANCH  23  25
ENDBRANCH   1  19
TORSDOF 4
ENDMDL
MODEL       50
REMARK 921   NORMALIZED FREE ENERGY PREDICTED BY IDOCK:   -4.46 KCAL/MOL
REMARK 922        TOTAL FREE ENERGY PREDICTED BY IDOCK:   -7.08 KCAL/MOL
REMARK 923 INTER-LIGAND FREE ENERGY PREDICTED BY IDOCK:   -5.71 KCAL/MOL
REMARK 924 INTRA-LIGAND FREE ENERGY PREDICTED BY IDOCK:   -1.37 KCAL/MOL
REMARK 927      BINDING AFFINITY PREDICTED BY RF-SCORE:    0.00 PKD
ROOT
HETATM    1  C   UNL     1     -10.791  13.330  67.079  1.00  0.00    -0.269 C  
ENDROOT
BRANCH   1   2
HETATM    2  N   UNL     1     -12.155  13.265  67.567  1.00  0.00    -0.314 NA 
HETATM    3  C   UNL     1     -13.023  14.055  66.664  1.00  0.00     0.731 C  
HETATM    4  C   UNL     1     -12.888  13.711  65.140  1.00  0.00    -0.329 C  
HETATM    5  C   UNL     1     -12.401  13.575  69.006  1.00  0.00    -0.013 C  
HETATM    6  C   UNL     1     -11.297  13.908  70.055  1.00  0.00    -0.127 C  
HETATM    7  H   UNL     1     -12.966  15.200  63.531  1.00  0.00     0.000 HD 
HETATM    8  C   UNL     1     -10.645  15.285  69.902  1.00  0.00    -0.276 C  
HETATM    9  N   UNL     1     -12.356  14.733  64.203  1.00  0.00    -0.752 NA 
HETATM   10  C   UNL     1     -10.918  15.051  64.277  1.00  0.00     0.191 C  
HETATM   11  N   UNL     1      -9.182  15.241  70.064  1.00  0.00    -0.370 NA 
HETATM   12  C   UNL     1     -10.625  16.250  65.193  1.00  0.00    -0.327 C  
HETATM   13  H   UNL     1      -8.801  14.344  69.765  1.00  0.00     0.000 HD 
HETATM   14  H   UNL     1      -8.695  17.914  66.935  1.00  0.00     0.000 HD 
HETATM   15  C   UNL     1      -9.143  16.412  65.581  1.00  0.00     0.158 C  
HETATM   16  C   UNL     1      -8.526  16.366  69.368  1.00  0.00     0.030 C  
HETATM   17  C   UNL     1      -8.278  16.115  67.857  1.00  0.00    -0.153 C  
HETATM   18  N   UNL     1      -9.058  16.962  66.948  1.00  0.00    -0.222 NA 
ENDBRANCH   1   2
BRANCH   1  19
HETATM   19  C   UNL     1      -9.985  12.072  67.071  1.00  0.00    -0.218 A  
HETATM   20  C   UNL     1     -10.440  10.948  66.404  1.00  0.00    -0.307 A  
HETATM   21  C   UNL     1     -10.061   9.729  66.905  1.00  0.00    -0.287 A  
HETATM   22  C   UNL     1      -8.871  12.038  67.894  1.00  0.00    -0.174 A  
HETATM   23  C   UNL     1      -9.025   9.647  67.832  1.00  0.00    -0.120 A  
HETATM   24  C   UNL     1      -8.432  10.812  68.346  1.00  0.00    -0.137 A  
BRANCH  23  25
HETATM   25  C   UNL     1      -8.506   8.341  68.309  1.00  0.00    -0.136 C  
BRANCH  25  26
HETATM   26  N   UNL     1      -7.284   7.836  67.710  1.00  0.00    -0.091 NA 
HETATM   27  C   UNL     1      -8.565   6.826  72.585  1.00  0.00    -0.122 C  
HETATM   28  H   UNL     1      -7.758   8.613  71.881  1.00  0.00     0.000 HD 
HETATM   29  N   UNL     1      -7.450   7.666  72.104  1.00  0.00    -0.069 NA 
HETATM   30  C   UNL     1      -9.848   6.926  71.720  1.00  0.00    -0.163 C  
HETATM   31  C   UNL     1      -6.776   7.029  70.961  1.00  0.00    -0.053 C  
HETATM   32  C   UNL     1      -6.075   7.706  68.567  1.00  0.00    -0.032 C  
HETATM   33  N   UNL     1     -10.175   5.694  70.999  1.00  0.00    -0.209 NA 
HETATM   34  H   UNL     1     -10.515   4.977  71.640  1.00  0.00     0.000 HD 
HETATM   35  C   UNL     1      -6.036   8.040  70.088  1.00  0.00    -0.032 C  
HETATM   36  C   UNL     1     -11.126   5.902  69.895  1.00  0.00    -0.347 C  
HETATM   37  C   UNL     1     -10.509   5.369  68.590  1.00  0.00    -0.199 C  
HETATM   38  C   UNL     1     -10.835   6.218  67.353  1.00  0.00    -0.363 C  
HETATM   39  N   UNL     1     -10.001   5.858  66.196  1.00  0.00    -0.376 NA 
HETATM   40  C   UNL     1      -8.785   6.670  65.948  1.00  0.00    -0.137 C  
HETATM   41  H   UNL     1     -10.250   5.079  65.586  1.00  0.00     0.000 HD 
HETATM   42  C   UNL     1      -7.579   6.598  66.950  1.00  0.00    -0.095 C  
ENDBRANCH  25  26
ENDBRANCH  23  25
ENDBRANCH   1  19
TORSDOF 4
ENDMDL
MODEL       51
REMARK 921   NORMALIZED FREE ENERGY PREDICTED BY IDOCK:   -4.45 KCAL/MOL
REMARK 922        TOTAL FREE ENERGY PREDICTED BY IDOCK:   -7.07 KCAL/MOL
REMARK 923 INTER-LIGAND FREE ENERGY PREDICTED BY IDOCK:   -5.64 KCAL/MOL
REMARK 924 INTRA-LIGAND FREE ENERGY PREDICTED BY IDOCK:   -1.43 KCAL/MOL
REMARK 927      BINDING AFFINITY PREDICTED BY RF-SCORE:    0.00 PKD
ROOT
HETATM    1  C   UNL     1      -8.449   8.100  68.989  1.00  0.00    -0.129 C  
ENDROOT
BRANCH   1   2
HETATM    2  N   UNL     1      -7.145   7.525  68.721  1.00  0.00    -0.078 NA 
HETATM    3  C   UNL     1      -7.324   6.132  68.254  1.00  0.00    -0.086 C  
HETATM    4  C   UNL     1      -8.342   5.950  67.074  1.00  0.00    -0.105 C  
HETATM    5  C   UNL     1      -6.097   7.639  69.777  1.00  0.00    -0.027 C  
HETATM    6  C   UNL     1      -6.268   8.385  71.136  1.00  0.00    -0.038 C  
HETATM    7  H   UNL     1      -9.721   4.255  66.889  1.00  0.00     0.000 HD 
HETATM    8  C   UNL     1      -7.174   7.687  72.154  1.00  0.00    -0.071 C  
HETATM    9  N   UNL     1      -9.592   5.181  67.298  1.00  0.00    -0.134 NA 
HETATM   10  C   UNL     1     -10.641   5.800  68.130  1.00  0.00    -0.216 C  
HETATM   11  N   UNL     1      -8.091   8.618  72.830  1.00  0.00    -0.406 NA 
HETATM   12  C   UNL     1     -10.541   5.389  69.607  1.00  0.00    -0.328 C  
HETATM   13  H   UNL     1      -8.335   9.404  72.228  1.00  0.00     0.000 HD 
HETATM   14  H   UNL     1     -11.170   5.856  72.593  1.00  0.00     0.000 HD 
HETATM   15  C   UNL     1     -11.374   6.255  70.571  1.00  0.00    -0.361 C  
HETATM   16  C   UNL     1      -9.296   7.927  73.330  1.00  0.00    -0.282 C  
HETATM   17  C   UNL     1     -10.408   7.745  72.263  1.00  0.00    -0.237 C  
HETATM   18  N   UNL     1     -10.668   6.358  71.862  1.00  0.00    -0.218 NA 
ENDBRANCH   1   2
BRANCH   1  19
HETATM   19  C   UNL     1      -8.810   9.377  68.304  1.00  0.00    -0.128 A  
HETATM   20  C   UNL     1      -8.135  10.550  68.596  1.00  0.00    -0.127 A  
HETATM   21  C   UNL     1      -8.836  11.722  68.474  1.00  0.00    -0.122 A  
HETATM   22  C   UNL     1      -9.946   9.362  67.511  1.00  0.00    -0.250 A  
HETATM   23  C   UNL     1     -10.050  11.740  67.790  1.00  0.00    -0.199 A  
HETATM   24  C   UNL     1     -10.621  10.548  67.317  1.00  0.00    -0.317 A  
BRANCH  23  25
HETATM   25  C   UNL     1     -10.781  13.005  67.533  1.00  0.00    -0.238 C  
BRANCH  25  26
HETATM   26  N   UNL     1     -12.216  13.018  67.754  1.00  0.00    -0.167 NA 
HETATM   27  C   UNL     1      -9.152  16.784  69.444  1.00  0.00     0.113 C  
HETATM   28  H   UNL     1      -9.384  14.912  70.327  1.00  0.00     0.000 HD 
HETATM   29  N   UNL     1      -9.891  15.794  70.253  1.00  0.00     0.081 NA 
HETATM   30  C   UNL     1      -8.595  16.219  68.111  1.00  0.00    -0.183 C  
HETATM   31  C   UNL     1     -11.250  15.600  69.722  1.00  0.00    -0.321 C  
HETATM   32  C   UNL     1     -12.734  13.604  69.019  1.00  0.00     0.765 C  
HETATM   33  N   UNL     1      -9.231  16.780  66.917  1.00  0.00    -0.224 NA 
HETATM   34  H   UNL     1      -8.940  17.747  66.771  1.00  0.00     0.000 HD 
HETATM   35  C   UNL     1     -11.839  14.249  70.119  1.00  0.00    -0.379 C  
HETATM   36  C   UNL     1      -9.001  15.976  65.706  1.00  0.00    -0.062 C  
HETATM   37  C   UNL     1     -10.359  15.603  65.083  1.00  0.00    -0.366 C  
HETATM   38  C   UNL     1     -10.404  14.191  64.484  1.00  0.00    -0.101 C  
HETATM   39  N   UNL     1     -11.775  13.762  64.170  1.00  0.00    -0.547 NA 
HETATM   40  C   UNL     1     -12.481  12.932  65.177  1.00  0.00    -0.501 C  
HETATM   41  H   UNL     1     -12.225  14.026  63.293  1.00  0.00     0.000 HD 
HETATM   42  C   UNL     1     -12.898  13.559  66.554  1.00  0.00     0.351 C  
ENDBRANCH  25  26
ENDBRANCH  23  25
ENDBRANCH   1  19
TORSDOF 4
ENDMDL
MODEL       52
REMARK 921   NORMALIZED FREE ENERGY PREDICTED BY IDOCK:   -4.41 KCAL/MOL
REMARK 922        TOTAL FREE ENERGY PREDICTED BY IDOCK:   -7.02 KCAL/MOL
REMARK 923 INTER-LIGAND FREE ENERGY PREDICTED BY IDOCK:   -5.38 KCAL/MOL
REMARK 924 INTRA-LIGAND FREE ENERGY PREDICTED BY IDOCK:   -1.63 KCAL/MOL
REMARK 927      BINDING AFFINITY PREDICTED BY RF-SCORE:    0.00 PKD
ROOT
HETATM    1  C   UNL     1      -7.966   5.898  70.587  1.00  0.00    -0.110 C  
ENDROOT
BRANCH   1   2
HETATM    2  N   UNL     1      -6.691   5.209  70.518  1.00  0.00    -0.038 NA 
HETATM    3  C   UNL     1      -6.875   3.816  70.984  1.00  0.00    -0.032 C  
HETATM    4  C   UNL     1      -8.047   3.032  70.295  1.00  0.00    -0.041 C  
HETATM    5  C   UNL     1      -5.505   5.865  71.143  1.00  0.00    -0.017 C  
HETATM    6  C   UNL     1      -5.508   7.271  71.819  1.00  0.00    -0.036 C  
HETATM    7  H   UNL     1      -9.361   1.619  71.337  1.00  0.00     0.000 HD 
HETATM    8  C   UNL     1      -6.222   7.343  73.172  1.00  0.00    -0.059 C  
HETATM    9  N   UNL     1      -9.214   2.602  71.104  1.00  0.00    -0.113 NA 
HETATM   10  C   UNL     1     -10.156   3.642  71.560  1.00  0.00    -0.032 C  
HETATM   11  N   UNL     1      -7.070   8.539  73.302  1.00  0.00    -0.305 NA 
HETATM   12  C   UNL     1      -9.821   4.164  72.966  1.00  0.00    -0.178 C  
HETATM   13  H   UNL     1      -7.435   8.838  72.397  1.00  0.00     0.000 HD 
HETATM   14  H   UNL     1     -10.025   6.315  75.171  1.00  0.00     0.000 HD 
HETATM   15  C   UNL     1     -10.541   5.470  73.352  1.00  0.00    -0.258 C  
HETATM   16  C   UNL     1      -8.156   8.330  74.280  1.00  0.00    -0.217 C  
HETATM   17  C   UNL     1      -9.404   7.617  73.694  1.00  0.00    -0.287 C  
HETATM   18  N   UNL     1      -9.658   6.271  74.221  1.00  0.00    -0.201 NA 
ENDBRANCH   1   2
BRANCH   1  19
HETATM   19  C   UNL     1      -8.242   6.970  69.584  1.00  0.00    -0.131 A  
HETATM   20  C   UNL     1      -8.045   6.741  68.234  1.00  0.00    -0.115 A  
HETATM   21  C   UNL     1      -7.697   7.820  67.461  1.00  0.00    -0.117 A  
HETATM   22  C   UNL     1      -8.530   8.231  70.082  1.00  0.00    -0.126 A  
HETATM   23  C   UNL     1      -7.850   9.112  67.959  1.00  0.00    -0.100 A  
HETATM   24  C   UNL     1      -8.255   9.324  69.287  1.00  0.00    -0.108 A  
BRANCH  23  25
HETATM   25  C   UNL     1      -7.597  10.307  67.117  1.00  0.00    -0.092 C  
BRANCH  25  26
HETATM   26  N   UNL     1      -6.221  10.736  66.941  1.00  0.00    -0.068 NA 
HETATM   27  C   UNL     1      -9.506  10.392  63.002  1.00  0.00    -0.330 C  
HETATM   28  H   UNL     1      -8.525   8.797  63.914  1.00  0.00     0.000 HD 
HETATM   29  N   UNL     1      -8.320   9.552  63.259  1.00  0.00    -0.167 NA 
HETATM   30  C   UNL     1     -10.273  10.810  64.283  1.00  0.00    -0.354 C  
HETATM   31  C   UNL     1      -7.188  10.376  63.714  1.00  0.00     0.011 C  
HETATM   32  C   UNL     1      -5.517  10.363  65.685  1.00  0.00    -0.093 C  
HETATM   33  N   UNL     1     -10.207  12.244  64.573  1.00  0.00    -0.333 NA 
HETATM   34  H   UNL     1     -10.774  12.775  63.912  1.00  0.00     0.000 HD 
HETATM   35  C   UNL     1      -6.169   9.569  64.515  1.00  0.00    -0.084 C  
HETATM   36  C   UNL     1     -10.574  12.573  65.960  1.00  0.00    -0.263 C  
HETATM   37  C   UNL     1      -9.424  13.363  66.612  1.00  0.00    -0.264 C  
HETATM   38  C   UNL     1      -9.191  13.020  68.090  1.00  0.00    -0.212 C  
HETATM   39  N   UNL     1      -7.919  13.561  68.593  1.00  0.00    -0.271 NA 
HETATM   40  C   UNL     1      -6.746  12.654  68.604  1.00  0.00    -0.088 C  
HETATM   41  H   UNL     1      -7.847  14.524  68.923  1.00  0.00     0.000 HD 
HETATM   42  C   UNL     1      -6.110  12.182  67.249  1.00  0.00    -0.153 C  
ENDBRANCH  25  26
ENDBRANCH  23  25
ENDBRANCH   1  19
TORSDOF 4
ENDMDL
MODEL       53
REMARK 921   NORMALIZED FREE ENERGY PREDICTED BY IDOCK:   -4.37 KCAL/MOL
REMARK 922        TOTAL FREE ENERGY PREDICTED BY IDOCK:   -6.98 KCAL/MOL
REMARK 923 INTER-LIGAND FREE ENERGY PREDICTED BY IDOCK:   -5.55 KCAL/MOL
REMARK 924 INTRA-LIGAND FREE ENERGY PREDICTED BY IDOCK:   -1.43 KCAL/MOL
REMARK 927      BINDING AFFINITY PREDICTED BY RF-SCORE:    0.00 PKD
ROOT
HETATM    1  C   UNL     1      -8.535   5.599  69.338  1.00  0.00    -0.106 C  
ENDROOT
BRANCH   1   2
HETATM    2  N   UNL     1      -9.850   5.576  69.951  1.00  0.00    -0.178 NA 
HETATM    3  C   UNL     1     -10.026   4.285  70.654  1.00  0.00    -0.148 C  
HETATM    4  C   UNL     1      -8.870   3.900  71.641  1.00  0.00    -0.104 C  
HETATM    5  C   UNL     1     -11.026   5.927  69.102  1.00  0.00    -0.312 C  
HETATM    6  C   UNL     1     -10.956   6.378  67.611  1.00  0.00    -0.441 C  
HETATM    7  H   UNL     1      -8.116   1.858  71.916  1.00  0.00     0.000 HD 
HETATM    8  C   UNL     1     -10.602   5.274  66.611  1.00  0.00    -0.270 C  
HETATM    9  N   UNL     1      -8.032   2.708  71.357  1.00  0.00    -0.050 NA 
HETATM   10  C   UNL     1      -7.073   2.791  70.239  1.00  0.00    -0.033 C  
HETATM   11  N   UNL     1      -9.624   5.714  65.603  1.00  0.00    -0.366 NA 
HETATM   12  C   UNL     1      -7.656   2.258  68.920  1.00  0.00    -0.043 C  
HETATM   13  H   UNL     1      -8.999   6.428  65.977  1.00  0.00     0.000 HD 
HETATM   14  H   UNL     1      -7.652   2.077  65.839  1.00  0.00     0.000 HD 
HETATM   15  C   UNL     1      -6.846   2.632  67.664  1.00  0.00    -0.044 C  
HETATM   16  C   UNL     1      -8.869   4.574  65.045  1.00  0.00    -0.146 C  
HETATM   17  C   UNL     1      -7.653   4.140  65.907  1.00  0.00    -0.089 C  
HETATM   18  N   UNL     1      -7.770   2.817  66.530  1.00  0.00    -0.075 NA 
ENDBRANCH   1   2
BRANCH   1  19
HETATM   19  C   UNL     1      -7.931   6.927  69.017  1.00  0.00    -0.116 A  
HETATM   20  C   UNL     1      -8.244   8.045  69.770  1.00  0.00    -0.120 A  
HETATM   21  C   UNL     1      -8.212   9.258  69.131  1.00  0.00    -0.111 A  
HETATM   22  C   UNL     1      -7.195   7.012  67.846  1.00  0.00    -0.091 A  
HETATM   23  C   UNL     1      -7.591   9.375  67.889  1.00  0.00    -0.087 A  
HETATM   24  C   UNL     1      -7.091   8.240  67.230  1.00  0.00    -0.079 A  
BRANCH  23  25
HETATM   25  C   UNL     1      -7.431  10.689  67.219  1.00  0.00    -0.099 C  
BRANCH  25  26
HETATM   26  N   UNL     1      -6.095  11.253  67.138  1.00  0.00    -0.079 NA 
HETATM   27  C   UNL     1      -9.048  10.598  62.980  1.00  0.00    -0.280 C  
HETATM   28  H   UNL     1      -7.981   9.105  63.965  1.00  0.00     0.000 HD 
HETATM   29  N   UNL     1      -7.806   9.878  63.324  1.00  0.00    -0.140 NA 
HETATM   30  C   UNL     1      -9.940  10.935  64.204  1.00  0.00    -0.344 C  
HETATM   31  C   UNL     1      -6.795  10.808  63.852  1.00  0.00     0.396 C  
HETATM   32  C   UNL     1      -5.271  10.954  65.935  1.00  0.00    -0.131 C  
HETATM   33  N   UNL     1     -10.036  12.367  64.492  1.00  0.00    -0.487 NA 
HETATM   34  H   UNL     1     -10.605  12.841  63.791  1.00  0.00     0.000 HD 
HETATM   35  C   UNL     1      -5.759  10.103  64.725  1.00  0.00    -0.117 C  
HETATM   36  C   UNL     1     -10.529  12.654  65.849  1.00  0.00    -0.274 C  
HETATM   37  C   UNL     1      -9.511  13.552  66.576  1.00  0.00    -0.265 C  
HETATM   38  C   UNL     1      -9.349  13.229  68.068  1.00  0.00    -0.218 C  
HETATM   39  N   UNL     1      -8.174  13.891  68.657  1.00  0.00    -0.253 NA 
HETATM   40  C   UNL     1      -6.920  13.105  68.752  1.00  0.00    -0.103 C  
HETATM   41  H   UNL     1      -8.220  14.855  68.987  1.00  0.00     0.000 HD 
HETATM   42  C   UNL     1      -6.148  12.701  67.447  1.00  0.00    -0.141 C  
ENDBRANCH  25  26
ENDBRANCH  23  25
ENDBRANCH   1  19
TORSDOF 4
ENDMDL
MODEL       54
REMARK 921   NORMALIZED FREE ENERGY PREDICTED BY IDOCK:   -4.33 KCAL/MOL
REMARK 922        TOTAL FREE ENERGY PREDICTED BY IDOCK:   -6.93 KCAL/MOL
REMARK 923 INTER-LIGAND FREE ENERGY PREDICTED BY IDOCK:   -5.47 KCAL/MOL
REMARK 924 INTRA-LIGAND FREE ENERGY PREDICTED BY IDOCK:   -1.46 KCAL/MOL
REMARK 927      BINDING AFFINITY PREDICTED BY RF-SCORE:    0.00 PKD
ROOT
HETATM    1  C   UNL     1      -8.929  10.116  67.385  1.00  0.00    -0.134 C  
ENDROOT
BRANCH   1   2
HETATM    2  N   UNL     1     -10.079  10.413  66.551  1.00  0.00    -0.220 NA 
HETATM    3  C   UNL     1      -9.696  10.243  65.132  1.00  0.00    -0.300 C  
HETATM    4  C   UNL     1      -9.008   8.877  64.785  1.00  0.00    -0.036 C  
HETATM    5  C   UNL     1     -10.810  11.691  66.794  1.00  0.00    -0.277 C  
HETATM    6  C   UNL     1     -10.475  12.718  67.919  1.00  0.00    -0.226 C  
HETATM    7  H   UNL     1      -7.358   8.656  63.358  1.00  0.00     0.000 HD 
HETATM    8  C   UNL     1      -9.194  13.528  67.703  1.00  0.00    -0.214 C  
HETATM    9  N   UNL     1      -7.596   8.862  64.329  1.00  0.00    -0.110 NA 
HETATM   10  C   UNL     1      -6.548   9.155  65.325  1.00  0.00    -0.069 C  
HETATM   11  N   UNL     1      -8.386  13.648  68.927  1.00  0.00    -0.352 NA 
HETATM   12  C   UNL     1      -6.157  10.641  65.349  1.00  0.00    -0.090 C  
HETATM   13  H   UNL     1      -8.506  12.837  69.534  1.00  0.00     0.000 HD 
HETATM   14  H   UNL     1      -4.902  13.085  66.756  1.00  0.00     0.000 HD 
HETATM   15  C   UNL     1      -5.336  11.068  66.581  1.00  0.00    -0.092 C  
HETATM   16  C   UNL     1      -6.962  13.885  68.617  1.00  0.00    -0.108 C  
HETATM   17  C   UNL     1      -6.158  12.592  68.318  1.00  0.00    -0.065 C  
HETATM   18  N   UNL     1      -5.684  12.456  66.936  1.00  0.00    -0.301 NA 
ENDBRANCH   1   2
BRANCH   1  19
HETATM   19  C   UNL     1      -9.172   9.538  68.741  1.00  0.00    -0.140 A  
HETATM   20  C   UNL     1      -8.529  10.053  69.853  1.00  0.00    -0.171 A  
HETATM   21  C   UNL     1      -8.269   9.186  70.882  1.00  0.00    -0.220 A  
HETATM   22  C   UNL     1      -9.922   8.374  68.799  1.00  0.00    -0.197 A  
HETATM   23  C   UNL     1      -8.904   7.946  70.925  1.00  0.00    -0.141 A  
HETATM   24  C   UNL     1      -9.726   7.526  69.867  1.00  0.00    -0.171 A  
BRANCH  23  25
HETATM   25  C   UNL     1      -8.742   7.027  72.080  1.00  0.00    -0.123 C  
BRANCH  25  26
HETATM   26  N   UNL     1      -9.604   7.225  73.232  1.00  0.00    -0.190 NA 
HETATM   27  C   UNL     1      -8.601   2.554  71.332  1.00  0.00    -0.064 C  
HETATM   28  H   UNL     1      -9.940   3.935  70.531  1.00  0.00     0.000 HD 
HETATM   29  N   UNL     1      -9.889   3.277  71.309  1.00  0.00    -0.151 NA 
HETATM   30  C   UNL     1      -7.362   3.468  71.147  1.00  0.00    -0.033 C  
HETATM   31  C   UNL     1     -10.135   3.939  72.601  1.00  0.00    -0.165 C  
HETATM   32  C   UNL     1     -10.762   6.310  73.416  1.00  0.00    -0.259 C  
HETATM   33  N   UNL     1      -6.512   3.564  72.335  1.00  0.00    -0.014 NA 
HETATM   34  H   UNL     1      -6.001   2.695  72.487  1.00  0.00     0.000 HD 
HETATM   35  C   UNL     1     -11.098   5.117  72.473  1.00  0.00    -0.257 C  
HETATM   36  C   UNL     1      -5.592   4.712  72.299  1.00  0.00    -0.008 C  
HETATM   37  C   UNL     1      -5.806   5.570  73.560  1.00  0.00    -0.032 C  
HETATM   38  C   UNL     1      -5.689   7.081  73.313  1.00  0.00    -0.046 C  
HETATM   39  N   UNL     1      -6.185   7.871  74.451  1.00  0.00    -0.094 NA 
HETATM   40  C   UNL     1      -7.581   8.366  74.384  1.00  0.00    -0.204 C  
HETATM   41  H   UNL     1      -5.591   8.071  75.256  1.00  0.00     0.000 HD 
HETATM   42  C   UNL     1      -8.776   7.350  74.455  1.00  0.00    -0.195 C  
ENDBRANCH  25  26
ENDBRANCH  23  25
ENDBRANCH   1  19
TORSDOF 4
ENDMDL
MODEL       55
REMARK 921   NORMALIZED FREE ENERGY PREDICTED BY IDOCK:   -4.33 KCAL/MOL
REMARK 922        TOTAL FREE ENERGY PREDICTED BY IDOCK:   -6.92 KCAL/MOL
REMARK 923 INTER-LIGAND FREE ENERGY PREDICTED BY IDOCK:   -6.14 KCAL/MOL
REMARK 924 INTRA-LIGAND FREE ENERGY PREDICTED BY IDOCK:   -0.78 KCAL/MOL
REMARK 927      BINDING AFFINITY PREDICTED BY RF-SCORE:    0.00 PKD
ROOT
HETATM    1  C   UNL     1      -8.862   6.777  69.089  1.00  0.00    -0.134 C  
ENDROOT
BRANCH   1   2
HETATM    2  N   UNL     1      -9.525   5.683  69.772  1.00  0.00    -0.144 NA 
HETATM    3  C   UNL     1      -8.652   5.204  70.867  1.00  0.00    -0.123 C  
HETATM    4  C   UNL     1      -8.128   6.320  71.838  1.00  0.00    -0.109 C  
HETATM    5  C   UNL     1     -10.063   4.563  68.944  1.00  0.00     0.022 C  
HETATM    6  C   UNL     1     -10.025   4.498  67.386  1.00  0.00    -0.171 C  
HETATM    7  H   UNL     1      -6.115   6.349  72.707  1.00  0.00     0.000 HD 
HETATM    8  C   UNL     1      -8.643   4.244  66.777  1.00  0.00    -0.108 C  
HETATM    9  N   UNL     1      -6.675   6.616  71.896  1.00  0.00    -0.058 NA 
HETATM   10  C   UNL     1      -6.067   7.309  70.745  1.00  0.00    -0.035 C  
HETATM   11  N   UNL     1      -8.371   5.100  65.611  1.00  0.00    -0.119 NA 
HETATM   12  C   UNL     1      -5.468   6.334  69.719  1.00  0.00    -0.013 C  
HETATM   13  H   UNL     1      -8.855   5.995  65.685  1.00  0.00     0.000 HD 
HETATM   14  H   UNL     1      -4.467   5.681  66.873  1.00  0.00     0.000 HD 
HETATM   15  C   UNL     1      -5.136   6.966  68.354  1.00  0.00    -0.015 C  
HETATM   16  C   UNL     1      -6.921   5.286  65.401  1.00  0.00    -0.065 C  
HETATM   17  C   UNL     1      -6.298   6.415  66.265  1.00  0.00    -0.042 C  
HETATM   18  N   UNL     1      -5.352   5.965  67.292  1.00  0.00    -0.005 NA 
ENDBRANCH   1   2
BRANCH   1  19
HETATM   19  C   UNL     1      -9.696   7.926  68.624  1.00  0.00    -0.162 A  
HETATM   20  C   UNL     1     -10.034   8.057  67.289  1.00  0.00    -0.282 A  
HETATM   21  C   UNL     1     -10.215   9.330  66.812  1.00  0.00    -0.325 A  
HETATM   22  C   UNL     1      -9.958   8.923  69.550  1.00  0.00    -0.191 A  
HETATM   23  C   UNL     1     -10.360  10.394  67.701  1.00  0.00    -0.260 A  
HETATM   24  C   UNL     1     -10.216  10.194  69.084  1.00  0.00    -0.229 A  
BRANCH  23  25
HETATM   25  C   UNL     1     -10.675  11.765  67.231  1.00  0.00    -0.237 C  
BRANCH  25  26
HETATM   26  N   UNL     1      -9.989  12.876  67.868  1.00  0.00    -0.226 NA 
HETATM   27  C   UNL     1      -7.956  10.313  63.901  1.00  0.00    -0.126 C  
HETATM   28  H   UNL     1      -8.002   9.662  65.879  1.00  0.00     0.000 HD 
HETATM   29  N   UNL     1      -7.486  10.325  65.301  1.00  0.00    -0.145 NA 
HETATM   30  C   UNL     1      -9.499  10.360  63.755  1.00  0.00    -0.305 C  
HETATM   31  C   UNL     1      -7.536  11.688  65.855  1.00  0.00     0.536 C  
HETATM   32  C   UNL     1      -8.504  12.834  67.959  1.00  0.00    -0.177 C  
HETATM   33  N   UNL     1     -10.003  11.601  63.162  1.00  0.00    -0.536 NA 
HETATM   34  H   UNL     1      -9.784  11.642  62.167  1.00  0.00     0.000 HD 
HETATM   35  C   UNL     1      -7.621  11.690  67.380  1.00  0.00    -0.139 C  
HETATM   36  C   UNL     1     -11.441  11.811  63.391  1.00  0.00    -0.327 C  
HETATM   37  C   UNL     1     -11.649  13.177  64.070  1.00  0.00    -0.481 C  
HETATM   38  C   UNL     1     -12.767  13.187  65.122  1.00  0.00    -0.405 C  
HETATM   39  N   UNL     1     -12.742  14.403  65.950  1.00  0.00    -0.373 NA 
HETATM   40  C   UNL     1     -12.049  14.326  67.259  1.00  0.00    -0.355 C  
HETATM   41  H   UNL     1     -13.185  15.266  65.636  1.00  0.00     0.000 HD 
HETATM   42  C   UNL     1     -10.490  14.154  67.309  1.00  0.00    -0.272 C  
ENDBRANCH  25  26
ENDBRANCH  23  25
ENDBRANCH   1  19
TORSDOF 4
ENDMDL
MODEL       56
REMARK 921   NORMALIZED FREE ENERGY PREDICTED BY IDOCK:   -4.31 KCAL/MOL
REMARK 922        TOTAL FREE ENERGY PREDICTED BY IDOCK:   -6.90 KCAL/MOL
REMARK 923 INTER-LIGAND FREE ENERGY PREDICTED BY IDOCK:   -5.98 KCAL/MOL
REMARK 924 INTRA-LIGAND FREE ENERGY PREDICTED BY IDOCK:   -0.92 KCAL/MOL
REMARK 927      BINDING AFFINITY PREDICTED BY RF-SCORE:    0.00 PKD
ROOT
HETATM    1  C   UNL     1     -10.074  11.414  67.214  1.00  0.00    -0.192 C  
ENDROOT
BRANCH   1   2
HETATM    2  N   UNL     1     -10.213  11.113  65.802  1.00  0.00    -0.249 NA 
HETATM    3  C   UNL     1      -8.885  11.219  65.158  1.00  0.00     0.029 C  
HETATM    4  C   UNL     1      -7.737  10.410  65.859  1.00  0.00    -0.145 C  
HETATM    5  C   UNL     1     -11.275  11.827  65.035  1.00  0.00    -0.257 C  
HETATM    6  C   UNL     1     -12.298  12.836  65.641  1.00  0.00    -0.444 C  
HETATM    7  H   UNL     1      -5.672  11.121  66.052  1.00  0.00     0.000 HD 
HETATM    8  C   UNL     1     -11.716  14.195  66.040  1.00  0.00    -0.382 C  
HETATM    9  N   UNL     1      -6.600  11.138  66.476  1.00  0.00    -0.131 NA 
HETATM   10  C   UNL     1      -6.856  11.886  67.721  1.00  0.00    -0.094 C  
HETATM   11  N   UNL     1     -12.212  14.664  67.344  1.00  0.00    -0.556 NA 
HETATM   12  C   UNL     1      -7.201  13.362  67.461  1.00  0.00    -0.163 C  
HETATM   13  H   UNL     1     -12.429  13.882  67.963  1.00  0.00     0.000 HD 
HETATM   14  H   UNL     1      -8.438  16.046  68.351  1.00  0.00     0.000 HD 
HETATM   15  C   UNL     1      -7.808  14.099  68.670  1.00  0.00    -0.137 C  
HETATM   16  C   UNL     1     -11.268  15.607  67.976  1.00  0.00    -0.339 C  
HETATM   17  C   UNL     1     -10.118  14.920  68.760  1.00  0.00    -0.241 C  
HETATM   18  N   UNL     1      -8.779  15.100  68.188  1.00  0.00    -0.163 NA 
ENDBRANCH   1   2
BRANCH   1  19
HETATM   19  C   UNL     1     -10.087  10.276  68.182  1.00  0.00    -0.175 A  
HETATM   20  C   UNL     1      -9.842  10.491  69.527  1.00  0.00    -0.170 A  
HETATM   21  C   UNL     1      -9.257   9.467  70.227  1.00  0.00    -0.303 A  
HETATM   22  C   UNL     1     -10.179   9.001  67.646  1.00  0.00    -0.300 A  
HETATM   23  C   UNL     1      -9.211   8.186  69.681  1.00  0.00    -0.155 A  
HETATM   24  C   UNL     1      -9.662   7.950  68.372  1.00  0.00    -0.170 A  
BRANCH  23  25
HETATM   25  C   UNL     1      -8.694   7.028  70.452  1.00  0.00    -0.147 C  
BRANCH  25  26
HETATM   26  N   UNL     1      -9.177   6.845  71.809  1.00  0.00    -0.143 NA 
HETATM   27  C   UNL     1      -7.950   2.877  68.779  1.00  0.00    -0.056 C  
HETATM   28  H   UNL     1      -9.706   3.992  68.676  1.00  0.00     0.000 HD 
HETATM   29  N   UNL     1      -9.293   3.262  69.256  1.00  0.00    -0.161 NA 
HETATM   30  C   UNL     1      -7.025   4.081  68.460  1.00  0.00    -0.048 C  
HETATM   31  C   UNL     1      -9.247   3.653  70.675  1.00  0.00    -0.134 C  
HETATM   32  C   UNL     1     -10.027   5.660  72.105  1.00  0.00    -0.178 C  
HETATM   33  N   UNL     1      -5.883   4.208  69.367  1.00  0.00    -0.017 NA 
HETATM   34  H   UNL     1      -5.196   3.476  69.190  1.00  0.00     0.000 HD 
HETATM   35  C   UNL     1     -10.407   4.569  71.061  1.00  0.00    -0.082 C  
HETATM   36  C   UNL     1      -5.253   5.538  69.324  1.00  0.00    -0.004 C  
HETATM   37  C   UNL     1      -5.225   6.129  70.745  1.00  0.00    -0.014 C  
HETATM   38  C   UNL     1      -5.477   7.642  70.797  1.00  0.00    -0.026 C  
HETATM   39  N   UNL     1      -5.735   8.117  72.165  1.00  0.00    -0.037 NA 
HETATM   40  C   UNL     1      -7.151   8.264  72.583  1.00  0.00    -0.097 C  
HETATM   41  H   UNL     1      -4.970   8.338  72.802  1.00  0.00     0.000 HD 
HETATM   42  C   UNL     1      -8.050   6.990  72.761  1.00  0.00    -0.107 C  
ENDBRANCH  25  26
ENDBRANCH  23  25
ENDBRANCH   1  19
TORSDOF 4
ENDMDL
MODEL       57
REMARK 921   NORMALIZED FREE ENERGY PREDICTED BY IDOCK:   -4.31 KCAL/MOL
REMARK 922        TOTAL FREE ENERGY PREDICTED BY IDOCK:   -6.90 KCAL/MOL
REMARK 923 INTER-LIGAND FREE ENERGY PREDICTED BY IDOCK:   -5.26 KCAL/MOL
REMARK 924 INTRA-LIGAND FREE ENERGY PREDICTED BY IDOCK:   -1.64 KCAL/MOL
REMARK 927      BINDING AFFINITY PREDICTED BY RF-SCORE:    0.00 PKD
ROOT
HETATM    1  C   UNL     1      -8.171   6.763  71.098  1.00  0.00    -0.119 C  
ENDROOT
BRANCH   1   2
HETATM    2  N   UNL     1      -8.934   7.061  72.295  1.00  0.00    -0.133 NA 
HETATM    3  C   UNL     1      -8.866   5.898  73.208  1.00  0.00    -0.127 C  
HETATM    4  C   UNL     1      -7.420   5.368  73.505  1.00  0.00    -0.095 C  
HETATM    5  C   UNL     1     -10.327   7.573  72.129  1.00  0.00    -0.210 C  
HETATM    6  C   UNL     1     -11.018   7.872  70.764  1.00  0.00    -0.259 C  
HETATM    7  H   UNL     1      -6.906   3.246  73.716  1.00  0.00     0.000 HD 
HETATM    8  C   UNL     1     -11.406   6.639  69.944  1.00  0.00    -0.364 C  
HETATM    9  N   UNL     1      -7.030   4.010  73.050  1.00  0.00    -0.055 NA 
HETATM   10  C   UNL     1      -6.827   3.801  71.604  1.00  0.00    -0.027 C  
HETATM   11  N   UNL     1     -11.083   6.783  68.515  1.00  0.00    -0.502 NA 
HETATM   12  C   UNL     1      -8.094   3.290  70.899  1.00  0.00    -0.062 C  
HETATM   13  H   UNL     1     -10.269   7.383  68.375  1.00  0.00     0.000 HD 
HETATM   14  H   UNL     1      -9.781   2.852  68.352  1.00  0.00     0.000 HD 
HETATM   15  C   UNL     1      -8.052   3.381  69.362  1.00  0.00    -0.052 C  
HETATM   16  C   UNL     1     -10.903   5.469  67.865  1.00  0.00     0.018 C  
HETATM   17  C   UNL     1      -9.481   4.870  68.036  1.00  0.00    -0.136 C  
HETATM   18  N   UNL     1      -9.411   3.656  68.857  1.00  0.00    -0.161 NA 
ENDBRANCH   1   2
BRANCH   1  19
HETATM   19  C   UNL     1      -7.657   7.907  70.286  1.00  0.00    -0.086 A  
HETATM   20  C   UNL     1      -7.379   9.125  70.881  1.00  0.00    -0.129 A  
HETATM   21  C   UNL     1      -7.529  10.247  70.107  1.00  0.00    -0.084 A  
HETATM   22  C   UNL     1      -7.642   7.740  68.911  1.00  0.00    -0.101 A  
HETATM   23  C   UNL     1      -7.644  10.129  68.724  1.00  0.00    -0.089 A  
HETATM   24  C   UNL     1      -7.717   8.864  68.117  1.00  0.00    -0.100 A  
BRANCH  23  25
HETATM   25  C   UNL     1      -7.689  11.321  67.841  1.00  0.00    -0.110 C  
BRANCH  25  26
HETATM   26  N   UNL     1      -6.467  12.084  67.667  1.00  0.00    -0.094 NA 
HETATM   27  C   UNL     1      -8.916   9.894  63.712  1.00  0.00    -0.250 C  
HETATM   28  H   UNL     1      -7.694   8.913  65.085  1.00  0.00     0.000 HD 
HETATM   29  N   UNL     1      -7.601   9.523  64.273  1.00  0.00    -0.117 NA 
HETATM   30  C   UNL     1      -9.949  10.350  64.776  1.00  0.00    -0.339 C  
HETATM   31  C   UNL     1      -6.810  10.726  64.582  1.00  0.00     0.318 C  
HETATM   32  C   UNL     1      -5.509  11.657  66.611  1.00  0.00    -0.107 C  
HETATM   33  N   UNL     1     -10.310  11.766  64.684  1.00  0.00    -0.275 NA 
HETATM   34  H   UNL     1     -10.892  11.939  63.865  1.00  0.00     0.000 HD 
HETATM   35  C   UNL     1      -5.744  10.461  65.643  1.00  0.00    -0.105 C  
HETATM   36  C   UNL     1     -10.954  12.281  65.903  1.00  0.00    -0.302 C  
HETATM   37  C   UNL     1     -10.166  13.502  66.412  1.00  0.00    -0.291 C  
HETATM   38  C   UNL     1     -10.073  13.591  67.942  1.00  0.00    -0.248 C  
HETATM   39  N   UNL     1      -9.081  14.583  68.383  1.00  0.00    -0.186 NA 
HETATM   40  C   UNL     1      -7.724  14.090  68.722  1.00  0.00    -0.112 C  
HETATM   41  H   UNL     1      -9.317  15.573  68.453  1.00  0.00     0.000 HD 
HETATM   42  C   UNL     1      -6.790  13.529  67.592  1.00  0.00    -0.170 C  
ENDBRANCH  25  26
ENDBRANCH  23  25
ENDBRANCH   1  19
TORSDOF 4
ENDMDL
MODEL       58
REMARK 921   NORMALIZED FREE ENERGY PREDICTED BY IDOCK:   -4.31 KCAL/MOL
REMARK 922        TOTAL FREE ENERGY PREDICTED BY IDOCK:   -6.89 KCAL/MOL
REMARK 923 INTER-LIGAND FREE ENERGY PREDICTED BY IDOCK:   -5.49 KCAL/MOL
REMARK 924 INTRA-LIGAND FREE ENERGY PREDICTED BY IDOCK:   -1.41 KCAL/MOL
REMARK 927      BINDING AFFINITY PREDICTED BY RF-SCORE:    0.00 PKD
ROOT
HETATM    1  C   UNL     1     -10.728  13.316  66.516  1.00  0.00    -0.285 C  
ENDROOT
BRANCH   1   2
HETATM    2  N   UNL     1     -12.068  13.058  67.006  1.00  0.00    -0.361 NA 
HETATM    3  C   UNL     1     -13.012  13.969  66.321  1.00  0.00     0.245 C  
HETATM    4  C   UNL     1     -12.910  13.979  64.755  1.00  0.00    -0.080 C  
HETATM    5  C   UNL     1     -12.281  13.026  68.483  1.00  0.00    -0.001 C  
HETATM    6  C   UNL     1     -11.162  13.190  69.557  1.00  0.00    -0.151 C  
HETATM    7  H   UNL     1     -13.131  15.777  63.519  1.00  0.00     0.000 HD 
HETATM    8  C   UNL     1     -10.598  14.606  69.700  1.00  0.00    -0.104 C  
HETATM    9  N   UNL     1     -12.472  15.214  64.058  1.00  0.00    -0.738 NA 
HETATM   10  C   UNL     1     -11.053  15.601  64.170  1.00  0.00     0.255 C  
HETATM   11  N   UNL     1      -9.130  14.623  69.817  1.00  0.00    -0.258 NA 
HETATM   12  C   UNL     1     -10.799  16.584  65.324  1.00  0.00    -0.233 C  
HETATM   13  H   UNL     1      -8.708  13.840  69.317  1.00  0.00     0.000 HD 
HETATM   14  H   UNL     1      -8.910  17.945  67.350  1.00  0.00     0.000 HD 
HETATM   15  C   UNL     1      -9.317  16.753  65.706  1.00  0.00     0.003 C  
HETATM   16  C   UNL     1      -8.565  15.913  69.374  1.00  0.00    -0.195 C  
HETATM   17  C   UNL     1      -8.356  16.018  67.840  1.00  0.00    -0.153 C  
HETATM   18  N   UNL     1      -9.216  16.992  67.158  1.00  0.00    -0.230 NA 
ENDBRANCH   1   2
BRANCH   1  19
HETATM   19  C   UNL     1      -9.813  12.152  66.318  1.00  0.00    -0.250 A  
HETATM   20  C   UNL     1     -10.205  11.070  65.549  1.00  0.00    -0.327 A  
HETATM   21  C   UNL     1      -9.685   9.846  65.882  1.00  0.00    -0.326 A  
HETATM   22  C   UNL     1      -8.650  12.135  67.072  1.00  0.00    -0.191 A  
HETATM   23  C   UNL     1      -8.589   9.763  66.738  1.00  0.00    -0.133 A  
HETATM   24  C   UNL     1      -8.074  10.916  67.353  1.00  0.00    -0.114 A  
BRANCH  23  25
HETATM   25  C   UNL     1      -7.924   8.469  67.031  1.00  0.00    -0.100 C  
BRANCH  25  26
HETATM   26  N   UNL     1      -6.776   8.481  67.919  1.00  0.00    -0.065 NA 
HETATM   27  C   UNL     1     -11.114   5.977  69.081  1.00  0.00    -0.335 C  
HETATM   28  H   UNL     1     -10.813   8.033  69.235  1.00  0.00     0.000 HD 
HETATM   29  N   UNL     1     -10.566   7.181  69.738  1.00  0.00    -0.228 NA 
HETATM   30  C   UNL     1     -10.885   5.937  67.548  1.00  0.00    -0.242 C  
HETATM   31  C   UNL     1      -9.111   7.057  69.920  1.00  0.00    -0.141 C  
HETATM   32  C   UNL     1      -7.016   8.474  69.388  1.00  0.00    -0.049 C  
HETATM   33  N   UNL     1      -9.966   4.883  67.112  1.00  0.00    -0.192 NA 
HETATM   34  H   UNL     1     -10.402   3.965  67.195  1.00  0.00     0.000 HD 
HETATM   35  C   UNL     1      -8.425   8.416  70.047  1.00  0.00    -0.125 C  
HETATM   36  C   UNL     1      -9.444   5.094  65.752  1.00  0.00    -0.141 C  
HETATM   37  C   UNL     1      -7.905   5.092  65.796  1.00  0.00    -0.092 C  
HETATM   38  C   UNL     1      -7.252   6.101  64.842  1.00  0.00    -0.063 C  
HETATM   39  N   UNL     1      -5.818   6.282  65.119  1.00  0.00    -0.025 NA 
HETATM   40  C   UNL     1      -5.425   7.429  65.973  1.00  0.00    -0.028 C  
HETATM   41  H   UNL     1      -5.121   5.642  64.739  1.00  0.00     0.000 HD 
HETATM   42  C   UNL     1      -5.810   7.439  67.495  1.00  0.00    -0.034 C  
ENDBRANCH  25  26
ENDBRANCH  23  25
ENDBRANCH   1  19
TORSDOF 4
ENDMDL
MODEL       59
REMARK 921   NORMALIZED FREE ENERGY PREDICTED BY IDOCK:   -4.28 KCAL/MOL
REMARK 922        TOTAL FREE ENERGY PREDICTED BY IDOCK:   -6.86 KCAL/MOL
REMARK 923 INTER-LIGAND FREE ENERGY PREDICTED BY IDOCK:   -5.75 KCAL/MOL
REMARK 924 INTRA-LIGAND FREE ENERGY PREDICTED BY IDOCK:   -1.11 KCAL/MOL
REMARK 927      BINDING AFFINITY PREDICTED BY RF-SCORE:    0.00 PKD
ROOT
HETATM    1  C   UNL     1      -7.516   8.291  68.368  1.00  0.00    -0.096 C  
ENDROOT
BRANCH   1   2
HETATM    2  N   UNL     1      -6.275   7.652  68.762  1.00  0.00    -0.035 NA 
HETATM    3  C   UNL     1      -6.036   6.487  67.882  1.00  0.00    -0.027 C  
HETATM    4  C   UNL     1      -6.125   6.784  66.344  1.00  0.00    -0.033 C  
HETATM    5  C   UNL     1      -6.083   7.323  70.205  1.00  0.00    -0.024 C  
HETATM    6  C   UNL     1      -7.090   7.664  71.346  1.00  0.00    -0.058 C  
HETATM    7  H   UNL     1      -6.989   5.407  64.872  1.00  0.00     0.000 HD 
HETATM    8  C   UNL     1      -8.372   6.828  71.357  1.00  0.00    -0.119 C  
HETATM    9  N   UNL     1      -7.199   6.152  65.537  1.00  0.00    -0.072 NA 
HETATM   10  C   UNL     1      -8.578   6.638  65.727  1.00  0.00    -0.140 C  
HETATM   11  N   UNL     1      -9.576   7.638  71.605  1.00  0.00    -0.152 NA 
HETATM   12  C   UNL     1      -9.357   5.812  66.763  1.00  0.00    -0.140 C  
HETATM   13  H   UNL     1      -9.465   8.588  71.251  1.00  0.00     0.000 HD 
HETATM   14  H   UNL     1     -11.686   5.483  68.762  1.00  0.00     0.000 HD 
HETATM   15  C   UNL     1     -10.662   6.467  67.255  1.00  0.00    -0.356 C  
HETATM   16  C   UNL     1     -10.786   6.995  71.054  1.00  0.00    -0.233 C  
HETATM   17  C   UNL     1     -11.017   7.273  69.545  1.00  0.00    -0.164 C  
HETATM   18  N   UNL     1     -10.883   6.104  68.667  1.00  0.00    -0.309 NA 
ENDBRANCH   1   2
BRANCH   1  19
HETATM   19  C   UNL     1      -7.558   9.784  68.327  1.00  0.00    -0.081 A  
HETATM   20  C   UNL     1      -8.216  10.498  69.313  1.00  0.00    -0.151 A  
HETATM   21  C   UNL     1      -8.764  11.702  68.952  1.00  0.00     0.078 A  
HETATM   22  C   UNL     1      -7.066  10.392  67.183  1.00  0.00    -0.090 A  
HETATM   23  C   UNL     1      -8.398  12.302  67.748  1.00  0.00    -0.162 A  
HETATM   24  C   UNL     1      -7.553  11.636  66.845  1.00  0.00    -0.138 A  
BRANCH  23  25
HETATM   25  C   UNL     1      -8.877  13.656  67.375  1.00  0.00    -0.221 C  
BRANCH  25  26
HETATM   26  N   UNL     1      -9.246  13.888  65.990  1.00  0.00    -0.023 NA 
HETATM   27  C   UNL     1     -12.629  12.220  69.484  1.00  0.00     0.440 C  
HETATM   28  H   UNL     1     -11.180  11.060  68.539  1.00  0.00     0.000 HD 
HETATM   29  N   UNL     1     -12.087  11.476  68.330  1.00  0.00    -0.575 NA 
HETATM   30  C   UNL     1     -11.602  13.163  70.164  1.00  0.00    -0.074 C  
HETATM   31  C   UNL     1     -12.032  12.337  67.137  1.00  0.00    -0.137 C  
HETATM   32  C   UNL     1     -10.266  13.000  65.370  1.00  0.00    -0.288 C  
HETATM   33  N   UNL     1     -11.913  14.586  70.012  1.00  0.00    -0.310 NA 
HETATM   34  H   UNL     1     -12.715  14.846  70.585  1.00  0.00     0.000 HD 
HETATM   35  C   UNL     1     -11.002  11.850  66.119  1.00  0.00    -0.352 C  
HETATM   36  C   UNL     1     -10.765  15.464  70.291  1.00  0.00    -0.298 C  
HETATM   37  C   UNL     1     -10.515  16.371  69.072  1.00  0.00    -0.288 C  
HETATM   38  C   UNL     1      -9.030  16.630  68.782  1.00  0.00    -0.253 C  
HETATM   39  N   UNL     1      -8.820  17.242  67.461  1.00  0.00    -0.217 NA 
HETATM   40  C   UNL     1      -8.478  16.340  66.334  1.00  0.00    -0.330 C  
HETATM   41  H   UNL     1      -8.906  18.249  67.324  1.00  0.00     0.000 HD 
HETATM   42  C   UNL     1      -9.547  15.326  65.792  1.00  0.00    -0.324 C  
ENDBRANCH  25  26
ENDBRANCH  23  25
ENDBRANCH   1  19
TORSDOF 4
ENDMDL
MODEL       60
REMARK 921   NORMALIZED FREE ENERGY PREDICTED BY IDOCK:   -4.22 KCAL/MOL
REMARK 922        TOTAL FREE ENERGY PREDICTED BY IDOCK:   -6.78 KCAL/MOL
REMARK 923 INTER-LIGAND FREE ENERGY PREDICTED BY IDOCK:   -5.22 KCAL/MOL
REMARK 924 INTRA-LIGAND FREE ENERGY PREDICTED BY IDOCK:   -1.56 KCAL/MOL
REMARK 927      BINDING AFFINITY PREDICTED BY RF-SCORE:    0.00 PKD
ROOT
HETATM    1  C   UNL     1      -7.662   5.409  71.670  1.00  0.00    -0.106 C  
ENDROOT
BRANCH   1   2
HETATM    2  N   UNL     1      -6.588   5.878  72.524  1.00  0.00    -0.065 NA 
HETATM    3  C   UNL     1      -6.350   4.877  73.588  1.00  0.00    -0.059 C  
HETATM    4  C   UNL     1      -6.150   3.405  73.085  1.00  0.00    -0.008 C  
HETATM    5  C   UNL     1      -6.675   7.268  73.061  1.00  0.00    -0.064 C  
HETATM    6  C   UNL     1      -7.807   8.290  72.732  1.00  0.00    -0.181 C  
HETATM    7  H   UNL     1      -6.921   1.634  74.123  1.00  0.00     0.000 HD 
HETATM    8  C   UNL     1      -9.164   7.989  73.373  1.00  0.00    -0.263 C  
HETATM    9  N   UNL     1      -7.145   2.365  73.448  1.00  0.00    -0.031 NA 
HETATM   10  C   UNL     1      -8.469   2.424  72.800  1.00  0.00    -0.063 C  
HETATM   11  N   UNL     1     -10.286   8.179  72.439  1.00  0.00    -0.285 NA 
HETATM   12  C   UNL     1      -9.499   3.202  73.635  1.00  0.00    -0.119 C  
HETATM   13  H   UNL     1     -10.006   7.991  71.476  1.00  0.00     0.000 HD 
HETATM   14  H   UNL     1     -12.146   4.770  73.887  1.00  0.00     0.000 HD 
HETATM   15  C   UNL     1     -10.779   3.592  72.872  1.00  0.00    -0.094 C  
HETATM   16  C   UNL     1     -11.458   7.368  72.828  1.00  0.00    -0.265 C  
HETATM   17  C   UNL     1     -11.405   5.900  72.327  1.00  0.00    -0.298 C  
HETATM   18  N   UNL     1     -11.270   4.887  73.379  1.00  0.00    -0.339 NA 
ENDBRANCH   1   2
BRANCH   1  19
HETATM   19  C   UNL     1      -7.750   5.955  70.283  1.00  0.00    -0.096 A  
HETATM   20  C   UNL     1      -6.605   6.303  69.588  1.00  0.00    -0.047 A  
HETATM   21  C   UNL     1      -6.714   7.318  68.673  1.00  0.00    -0.060 A  
HETATM   22  C   UNL     1      -9.017   6.252  69.807  1.00  0.00    -0.140 A  
HETATM   23  C   UNL     1      -7.972   7.744  68.250  1.00  0.00    -0.122 A  
HETATM   24  C   UNL     1      -9.137   7.219  68.832  1.00  0.00    -0.132 A  
BRANCH  23  25
HETATM   25  C   UNL     1      -8.132   8.755  67.176  1.00  0.00    -0.100 C  
BRANCH  25  26
HETATM   26  N   UNL     1      -9.125   8.502  66.147  1.00  0.00    -0.183 NA 
HETATM   27  C   UNL     1      -8.374  13.183  68.136  1.00  0.00    -0.161 C  
HETATM   28  H   UNL     1      -9.424  11.628  69.040  1.00  0.00     0.000 HD 
HETATM   29  N   UNL     1      -9.558  12.315  68.300  1.00  0.00    -0.215 NA 
HETATM   30  C   UNL     1      -7.029  12.413  68.097  1.00  0.00    -0.087 C  
HETATM   31  C   UNL     1      -9.915  11.679  67.022  1.00  0.00    -0.204 C  
HETATM   32  C   UNL     1     -10.391   9.283  66.176  1.00  0.00    -0.048 C  
HETATM   33  N   UNL     1      -6.354  12.460  66.798  1.00  0.00    -0.484 NA 
HETATM   34  H   UNL     1      -5.969  13.388  66.623  1.00  0.00     0.000 HD 
HETATM   35  C   UNL     1     -10.715  10.393  67.219  1.00  0.00    -0.331 C  
HETATM   36  C   UNL     1      -5.319  11.426  66.643  1.00  0.00    -0.132 C  
HETATM   37  C   UNL     1      -5.619  10.597  65.381  1.00  0.00    -0.140 C  
HETATM   38  C   UNL     1      -5.303   9.102  65.527  1.00  0.00    -0.037 C  
HETATM   39  N   UNL     1      -5.869   8.303  64.429  1.00  0.00    -0.059 NA 
HETATM   40  C   UNL     1      -7.178   7.647  64.664  1.00  0.00    -0.075 C  
HETATM   41  H   UNL     1      -5.380   8.204  63.540  1.00  0.00     0.000 HD 
HETATM   42  C   UNL     1      -8.474   8.520  64.815  1.00  0.00    -0.127 C  
ENDBRANCH  25  26
ENDBRANCH  23  25
ENDBRANCH   1  19
TORSDOF 4
ENDMDL
MODEL       61
REMARK 921   NORMALIZED FREE ENERGY PREDICTED BY IDOCK:   -4.21 KCAL/MOL
REMARK 922        TOTAL FREE ENERGY PREDICTED BY IDOCK:   -6.78 KCAL/MOL
REMARK 923 INTER-LIGAND FREE ENERGY PREDICTED BY IDOCK:   -6.12 KCAL/MOL
REMARK 924 INTRA-LIGAND FREE ENERGY PREDICTED BY IDOCK:   -0.66 KCAL/MOL
REMARK 927      BINDING AFFINITY PREDICTED BY RF-SCORE:    0.00 PKD
ROOT
HETATM    1  C   UNL     1      -9.383  16.793  66.800  1.00  0.00    -0.245 C  
ENDROOT
BRANCH   1   2
HETATM    2  N   UNL     1     -10.661  17.140  67.393  1.00  0.00    -0.326 NA 
HETATM    3  C   UNL     1     -10.775  18.614  67.453  1.00  0.00    -0.402 C  
HETATM    4  C   UNL     1     -10.489  19.361  66.103  1.00  0.00    -0.508 C  
HETATM    5  C   UNL     1     -11.036  16.488  68.682  1.00  0.00    -0.344 C  
HETATM    6  C   UNL     1     -10.188  15.409  69.424  1.00  0.00    -0.262 C  
HETATM    7  H   UNL     1      -9.432  21.276  65.956  1.00  0.00     0.000 HD 
HETATM    8  C   UNL     1      -8.912  15.928  70.093  1.00  0.00     0.823 C  
HETATM    9  N   UNL     1      -9.316  20.263  65.999  1.00  0.00    -0.226 NA 
HETATM   10  C   UNL     1      -7.976  19.648  65.962  1.00  0.00    -0.328 C  
HETATM   11  N   UNL     1      -7.756  15.044  69.873  1.00  0.00    -0.351 NA 
HETATM   12  C   UNL     1      -7.333  19.549  67.354  1.00  0.00    -0.261 C  
HETATM   13  H   UNL     1      -7.827  14.553  68.981  1.00  0.00     0.000 HD 
HETATM   14  H   UNL     1      -5.281  18.318  69.305  1.00  0.00     0.000 HD 
HETATM   15  C   UNL     1      -6.107  18.619  67.430  1.00  0.00    -0.174 C  
HETATM   16  C   UNL     1      -6.481  15.780  69.984  1.00  0.00    -0.068 C  
HETATM   17  C   UNL     1      -6.058  16.510  68.682  1.00  0.00    -0.134 C  
HETATM   18  N   UNL     1      -6.069  17.975  68.756  1.00  0.00    -0.195 NA 
ENDBRANCH   1   2
BRANCH   1  19
HETATM   19  C   UNL     1      -9.165  15.378  66.375  1.00  0.00    -0.339 A  
HETATM   20  C   UNL     1     -10.143  14.692  65.675  1.00  0.00    -0.389 A  
HETATM   21  C   UNL     1     -10.201  13.334  65.852  1.00  0.00    -0.295 A  
HETATM   22  C   UNL     1      -8.030  14.747  66.860  1.00  0.00    -0.022 A  
HETATM   23  C   UNL     1      -9.137  12.662  66.450  1.00  0.00    -0.114 A  
HETATM   24  C   UNL     1      -8.046  13.374  66.974  1.00  0.00    -0.018 A  
BRANCH  23  25
HETATM   25  C   UNL     1      -9.109  11.182  66.553  1.00  0.00    -0.182 C  
BRANCH  25  26
HETATM   26  N   UNL     1     -10.162  10.434  65.890  1.00  0.00    -0.251 NA 
HETATM   27  C   UNL     1      -5.185   9.659  64.858  1.00  0.00    -0.050 C  
HETATM   28  H   UNL     1      -6.345  11.241  64.155  1.00  0.00     0.000 HD 
HETATM   29  N   UNL     1      -6.207  10.247  63.969  1.00  0.00    -0.132 NA 
HETATM   30  C   UNL     1      -5.353  10.042  66.351  1.00  0.00    -0.044 C  
HETATM   31  C   UNL     1      -7.469   9.495  64.060  1.00  0.00    -0.122 C  
HETATM   32  C   UNL     1      -9.963  10.038  64.470  1.00  0.00    -0.081 C  
HETATM   33  N   UNL     1      -5.722   8.919  67.215  1.00  0.00    -0.042 NA 
HETATM   34  H   UNL     1      -4.934   8.283  67.339  1.00  0.00     0.000 HD 
HETATM   35  C   UNL     1      -8.676  10.336  63.646  1.00  0.00    -0.211 C  
HETATM   36  C   UNL     1      -6.265   9.340  68.516  1.00  0.00    -0.049 C  
HETATM   37  C   UNL     1      -7.653   8.703  68.714  1.00  0.00    -0.096 C  
HETATM   38  C   UNL     1      -8.664   9.619  69.418  1.00  0.00    -0.171 C  
HETATM   39  N   UNL     1     -10.039   9.104  69.326  1.00  0.00    -0.187 NA 
HETATM   40  C   UNL     1     -10.901   9.640  68.244  1.00  0.00    -0.182 C  
HETATM   41  H   UNL     1     -10.388   8.404  69.981  1.00  0.00     0.000 HD 
HETATM   42  C   UNL     1     -10.579   9.298  66.746  1.00  0.00    -0.137 C  
ENDBRANCH  25  26
ENDBRANCH  23  25
ENDBRANCH   1  19
TORSDOF 4
ENDMDL
MODEL       62
REMARK 921   NORMALIZED FREE ENERGY PREDICTED BY IDOCK:   -4.20 KCAL/MOL
REMARK 922        TOTAL FREE ENERGY PREDICTED BY IDOCK:   -6.76 KCAL/MOL
REMARK 923 INTER-LIGAND FREE ENERGY PREDICTED BY IDOCK:   -6.22 KCAL/MOL
REMARK 924 INTRA-LIGAND FREE ENERGY PREDICTED BY IDOCK:   -0.54 KCAL/MOL
REMARK 927      BINDING AFFINITY PREDICTED BY RF-SCORE:    0.00 PKD
ROOT
HETATM    1  C   UNL     1      -9.071  17.962  67.142  1.00  0.00    -0.251 C  
ENDROOT
BRANCH   1   2
HETATM    2  N   UNL     1     -10.333  18.463  67.654  1.00  0.00    -0.386 NA 
HETATM    3  C   UNL     1     -10.115  19.810  68.226  1.00  0.00    -0.458 C  
HETATM    4  C   UNL     1      -9.377  20.824  67.284  1.00  0.00    -0.278 C  
HETATM    5  C   UNL     1     -11.121  17.580  68.563  1.00  0.00     0.178 C  
HETATM    6  C   UNL     1     -10.727  16.125  68.967  1.00  0.00    -0.287 C  
HETATM    7  H   UNL     1      -7.901  22.293  67.971  1.00  0.00     0.000 HD 
HETATM    8  C   UNL     1      -9.545  16.014  69.933  1.00  0.00     0.140 C  
HETATM    9  N   UNL     1      -8.033  21.330  67.661  1.00  0.00    -0.065 NA 
HETATM   10  C   UNL     1      -6.896  20.395  67.573  1.00  0.00    -0.285 C  
HETATM   11  N   UNL     1      -8.604  14.946  69.557  1.00  0.00    -0.431 NA 
HETATM   12  C   UNL     1      -6.615  19.683  68.906  1.00  0.00    -0.346 C  
HETATM   13  H   UNL     1      -8.589  14.801  68.547  1.00  0.00     0.000 HD 
HETATM   14  H   UNL     1      -5.379  17.362  70.524  1.00  0.00     0.000 HD 
HETATM   15  C   UNL     1      -5.683  18.461  68.795  1.00  0.00    -0.196 C  
HETATM   16  C   UNL     1      -7.250  15.204  70.086  1.00  0.00     0.108 C  
HETATM   17  C   UNL     1      -6.395  16.148  69.199  1.00  0.00    -0.159 C  
HETATM   18  N   UNL     1      -6.085  17.453  69.794  1.00  0.00    -0.248 NA 
ENDBRANCH   1   2
BRANCH   1  19
HETATM   19  C   UNL     1      -9.094  16.740  66.284  1.00  0.00    -0.320 A  
HETATM   20  C   UNL     1     -10.134  16.520  65.397  1.00  0.00    -0.098 A  
HETATM   21  C   UNL     1     -10.459  15.216  65.126  1.00  0.00    -0.437 A  
HETATM   22  C   UNL     1      -8.134  15.775  66.543  1.00  0.00    -0.231 A  
HETATM   23  C   UNL     1      -9.583  14.191  65.478  1.00  0.00    -0.053 A  
HETATM   24  C   UNL     1      -8.416  14.469  66.208  1.00  0.00     0.497 A  
BRANCH  23  25
HETATM   25  C   UNL     1      -9.841  12.780  65.099  1.00  0.00    -0.078 C  
BRANCH  25  26
HETATM   26  N   UNL     1     -11.047  12.489  64.344  1.00  0.00    -0.318 NA 
HETATM   27  C   UNL     1      -7.179   9.124  64.734  1.00  0.00    -0.097 C  
HETATM   28  H   UNL     1      -7.222  10.793  63.489  1.00  0.00     0.000 HD 
HETATM   29  N   UNL     1      -7.618   9.854  63.528  1.00  0.00    -0.139 NA 
HETATM   30  C   UNL     1      -7.285   9.948  66.043  1.00  0.00    -0.106 C  
HETATM   31  C   UNL     1      -9.087   9.877  63.440  1.00  0.00    -0.261 C  
HETATM   32  C   UNL     1     -10.930  11.659  63.114  1.00  0.00    -0.164 C  
HETATM   33  N   UNL     1      -8.294   9.448  66.980  1.00  0.00    -0.126 NA 
HETATM   34  H   UNL     1      -7.990   8.575  67.409  1.00  0.00     0.000 HD 
HETATM   35  C   UNL     1      -9.599  11.041  62.595  1.00  0.00    -0.285 C  
HETATM   36  C   UNL     1      -8.672  10.433  68.006  1.00  0.00    -0.123 C  
HETATM   37  C   UNL     1     -10.197  10.642  67.968  1.00  0.00    -0.202 C  
HETATM   38  C   UNL     1     -10.634  12.092  68.220  1.00  0.00    -0.212 C  
HETATM   39  N   UNL     1     -12.049  12.313  67.887  1.00  0.00    -0.434 NA 
HETATM   40  C   UNL     1     -12.359  12.867  66.547  1.00  0.00    -0.018 C  
HETATM   41  H   UNL     1     -12.791  12.093  68.553  1.00  0.00     0.000 HD 
HETATM   42  C   UNL     1     -12.101  12.000  65.263  1.00  0.00    -0.052 C  
ENDBRANCH  25  26
ENDBRANCH  23  25
ENDBRANCH   1  19
TORSDOF 4
ENDMDL
MODEL       63
REMARK 921   NORMALIZED FREE ENERGY PREDICTED BY IDOCK:   -4.18 KCAL/MOL
REMARK 922        TOTAL FREE ENERGY PREDICTED BY IDOCK:   -6.74 KCAL/MOL
REMARK 923 INTER-LIGAND FREE ENERGY PREDICTED BY IDOCK:   -5.16 KCAL/MOL
REMARK 924 INTRA-LIGAND FREE ENERGY PREDICTED BY IDOCK:   -1.57 KCAL/MOL
REMARK 927      BINDING AFFINITY PREDICTED BY RF-SCORE:    0.00 PKD
ROOT
HETATM    1  C   UNL     1      -8.852   9.529  66.342  1.00  0.00    -0.144 C  
ENDROOT
BRANCH   1   2
HETATM    2  N   UNL     1      -9.889   9.866  65.386  1.00  0.00    -0.311 NA 
HETATM    3  C   UNL     1      -9.280   9.988  64.043  1.00  0.00    -0.272 C  
HETATM    4  C   UNL     1      -8.393   8.773  63.600  1.00  0.00    -0.143 C  
HETATM    5  C   UNL     1     -10.794  11.010  65.706  1.00  0.00    -0.097 C  
HETATM    6  C   UNL     1     -10.755  11.845  67.022  1.00  0.00    -0.280 C  
HETATM    7  H   UNL     1      -6.531   8.959  62.456  1.00  0.00     0.000 HD 
HETATM    8  C   UNL     1      -9.559  12.792  67.160  1.00  0.00    -0.219 C  
HETATM    9  N   UNL     1      -6.936   8.966  63.392  1.00  0.00    -0.089 NA 
HETATM   10  C   UNL     1      -6.092   9.168  64.585  1.00  0.00    -0.070 C  
HETATM   11  N   UNL     1      -8.965  12.762  68.506  1.00  0.00    -0.369 NA 
HETATM   12  C   UNL     1      -5.885  10.655  64.915  1.00  0.00    -0.053 C  
HETATM   13  H   UNL     1      -9.079  11.848  68.944  1.00  0.00     0.000 HD 
HETATM   14  H   UNL     1      -5.151  12.910  66.892  1.00  0.00     0.000 HD 
HETATM   15  C   UNL     1      -5.315  10.926  66.321  1.00  0.00    -0.109 C  
HETATM   16  C   UNL     1      -7.548  13.177  68.483  1.00  0.00    -0.122 C  
HETATM   17  C   UNL     1      -6.562  12.035  68.119  1.00  0.00    -0.055 C  
HETATM   18  N   UNL     1      -5.873  12.191  66.833  1.00  0.00    -0.272 NA 
ENDBRANCH   1   2
BRANCH   1  19
HETATM   19  C   UNL     1      -9.128   8.440  67.326  1.00  0.00    -0.156 A  
HETATM   20  C   UNL     1      -9.473   8.740  68.633  1.00  0.00    -0.143 A  
HETATM   21  C   UNL     1      -9.110   7.836  69.598  1.00  0.00    -0.146 A  
HETATM   22  C   UNL     1      -8.855   7.144  66.918  1.00  0.00    -0.132 A  
HETATM   23  C   UNL     1      -8.706   6.553  69.235  1.00  0.00    -0.130 A  
HETATM   24  C   UNL     1      -8.561   6.205  67.882  1.00  0.00    -0.114 A  
BRANCH  23  25
HETATM   25  C   UNL     1      -8.419   5.510  70.251  1.00  0.00    -0.121 C  
BRANCH  25  26
HETATM   26  N   UNL     1      -7.103   4.895  70.241  1.00  0.00    -0.048 NA 
HETATM   27  C   UNL     1      -8.569   8.174  73.920  1.00  0.00    -0.222 C  
HETATM   28  H   UNL     1      -7.957   8.692  71.997  1.00  0.00     0.000 HD 
HETATM   29  N   UNL     1      -7.544   8.390  72.879  1.00  0.00    -0.289 NA 
HETATM   30  C   UNL     1      -9.792   7.352  73.439  1.00  0.00    -0.294 C  
HETATM   31  C   UNL     1      -6.716   7.185  72.708  1.00  0.00    -0.067 C  
HETATM   32  C   UNL     1      -5.949   5.685  70.748  1.00  0.00    -0.029 C  
HETATM   33  N   UNL     1      -9.905   6.033  74.065  1.00  0.00    -0.188 NA 
HETATM   34  H   UNL     1     -10.190   6.118  75.041  1.00  0.00     0.000 HD 
HETATM   35  C   UNL     1      -6.058   7.125  71.331  1.00  0.00    -0.037 C  
HETATM   36  C   UNL     1     -10.798   5.118  73.336  1.00  0.00    -0.302 C  
HETATM   37  C   UNL     1     -10.029   3.830  72.992  1.00  0.00    -0.201 C  
HETATM   38  C   UNL     1     -10.379   3.243  71.618  1.00  0.00     0.270 C  
HETATM   39  N   UNL     1      -9.429   2.200  71.199  1.00  0.00    -0.133 NA 
HETATM   40  C   UNL     1      -8.316   2.605  70.307  1.00  0.00    -0.041 C  
HETATM   41  H   UNL     1      -9.531   1.234  71.512  1.00  0.00     0.000 HD 
HETATM   42  C   UNL     1      -7.182   3.546  70.848  1.00  0.00    -0.033 C  
ENDBRANCH  25  26
ENDBRANCH  23  25
ENDBRANCH   1  19
TORSDOF 4
ENDMDL
MODEL       64
REMARK 921   NORMALIZED FREE ENERGY PREDICTED BY IDOCK:   -4.13 KCAL/MOL
REMARK 922        TOTAL FREE ENERGY PREDICTED BY IDOCK:   -6.68 KCAL/MOL
REMARK 923 INTER-LIGAND FREE ENERGY PREDICTED BY IDOCK:   -5.20 KCAL/MOL
REMARK 924 INTRA-LIGAND FREE ENERGY PREDICTED BY IDOCK:   -1.47 KCAL/MOL
REMARK 927      BINDING AFFINITY PREDICTED BY RF-SCORE:    0.00 PKD
ROOT
HETATM    1  C   UNL     1      -7.255   9.583  68.067  1.00  0.00    -0.081 C  
ENDROOT
BRANCH   1   2
HETATM    2  N   UNL     1      -5.823   9.359  68.129  1.00  0.00    -0.038 NA 
HETATM    3  C   UNL     1      -5.494   8.150  67.342  1.00  0.00    -0.037 C  
HETATM    4  C   UNL     1      -6.068   8.127  65.882  1.00  0.00    -0.041 C  
HETATM    5  C   UNL     1      -5.170   9.359  69.471  1.00  0.00    -0.035 C  
HETATM    6  C   UNL     1      -5.895   9.640  70.823  1.00  0.00    -0.072 C  
HETATM    7  H   UNL     1      -6.846   6.331  64.893  1.00  0.00     0.000 HD 
HETATM    8  C   UNL     1      -6.824   8.526  71.310  1.00  0.00    -0.068 C  
HETATM    9  N   UNL     1      -7.082   7.110  65.510  1.00  0.00    -0.063 NA 
HETATM   10  C   UNL     1      -8.442   7.260  66.060  1.00  0.00    -0.145 C  
HETATM   11  N   UNL     1      -8.103   9.040  71.827  1.00  0.00    -0.350 NA 
HETATM   12  C   UNL     1      -8.642   6.470  67.363  1.00  0.00    -0.118 C  
HETATM   13  H   UNL     1      -8.373   9.906  71.361  1.00  0.00     0.000 HD 
HETATM   14  H   UNL     1     -10.159   5.940  69.999  1.00  0.00     0.000 HD 
HETATM   15  C   UNL     1      -9.904   6.855  68.159  1.00  0.00    -0.136 C  
HETATM   16  C   UNL     1      -9.171   8.024  71.740  1.00  0.00    -0.161 C  
HETATM   17  C   UNL     1      -9.863   7.952  70.352  1.00  0.00    -0.183 C  
HETATM   18  N   UNL     1      -9.628   6.714  69.601  1.00  0.00    -0.151 NA 
ENDBRANCH   1   2
BRANCH   1  19
HETATM   19  C   UNL     1      -7.742  10.897  67.550  1.00  0.00    -0.109 A  
HETATM   20  C   UNL     1      -7.775  12.010  68.371  1.00  0.00    -0.138 A  
HETATM   21  C   UNL     1      -8.743  12.947  68.115  1.00  0.00    -0.190 A  
HETATM   22  C   UNL     1      -8.309  10.899  66.286  1.00  0.00    -0.164 A  
HETATM   23  C   UNL     1      -9.435  12.921  66.906  1.00  0.00    -0.237 A  
HETATM   24  C   UNL     1      -9.230  11.880  65.987  1.00  0.00    -0.176 A  
BRANCH  23  25
HETATM   25  C   UNL     1     -10.405  13.983  66.541  1.00  0.00    -0.285 C  
BRANCH  25  26
HETATM   26  N   UNL     1     -11.711  13.573  66.057  1.00  0.00    -0.343 NA 
HETATM   27  C   UNL     1     -10.964  15.220  70.870  1.00  0.00    -0.246 C  
HETATM   28  H   UNL     1     -10.487  13.328  70.140  1.00  0.00     0.000 HD 
HETATM   29  N   UNL     1     -11.312  13.854  70.430  1.00  0.00     0.009 NA 
HETATM   30  C   UNL     1     -10.000  15.965  69.910  1.00  0.00    -0.142 C  
HETATM   31  C   UNL     1     -12.334  13.893  69.372  1.00  0.00    -0.197 C  
HETATM   32  C   UNL     1     -12.639  12.900  67.006  1.00  0.00     0.762 C  
HETATM   33  N   UNL     1     -10.609  17.109  69.228  1.00  0.00    -0.340 NA 
HETATM   34  H   UNL     1     -10.757  17.882  69.877  1.00  0.00     0.000 HD 
HETATM   35  C   UNL     1     -12.321  12.635  68.507  1.00  0.00     0.275 C  
HETATM   36  C   UNL     1      -9.848  17.554  68.049  1.00  0.00    -0.299 C  
HETATM   37  C   UNL     1     -10.774  17.549  66.820  1.00  0.00    -0.109 C  
HETATM   38  C   UNL     1     -10.087  17.099  65.523  1.00  0.00     0.034 C  
HETATM   39  N   UNL     1     -11.053  16.824  64.448  1.00  0.00    -1.260 NA 
HETATM   40  C   UNL     1     -11.475  15.416  64.250  1.00  0.00    -0.171 C  
HETATM   41  H   UNL     1     -11.419  17.574  63.860  1.00  0.00     0.000 HD 
HETATM   42  C   UNL     1     -12.351  14.702  65.339  1.00  0.00    -0.195 C  
ENDBRANCH  25  26
ENDBRANCH  23  25
ENDBRANCH   1  19
TORSDOF 4
ENDMDL
MODEL       65
REMARK 921   NORMALIZED FREE ENERGY PREDICTED BY IDOCK:   -4.11 KCAL/MOL
REMARK 922        TOTAL FREE ENERGY PREDICTED BY IDOCK:   -6.65 KCAL/MOL
REMARK 923 INTER-LIGAND FREE ENERGY PREDICTED BY IDOCK:   -5.25 KCAL/MOL
REMARK 924 INTRA-LIGAND FREE ENERGY PREDICTED BY IDOCK:   -1.40 KCAL/MOL
REMARK 927      BINDING AFFINITY PREDICTED BY RF-SCORE:    0.00 PKD
ROOT
HETATM    1  C   UNL     1      -7.624   6.371  70.755  1.00  0.00    -0.096 C  
ENDROOT
BRANCH   1   2
HETATM    2  N   UNL     1      -6.223   6.397  71.131  1.00  0.00    -0.039 NA 
HETATM    3  C   UNL     1      -5.686   5.019  71.068  1.00  0.00    -0.016 C  
HETATM    4  C   UNL     1      -5.958   4.259  69.723  1.00  0.00    -0.018 C  
HETATM    5  C   UNL     1      -5.850   7.095  72.396  1.00  0.00    -0.037 C  
HETATM    6  C   UNL     1      -6.840   7.858  73.328  1.00  0.00    -0.109 C  
HETATM    7  H   UNL     1      -6.435   2.122  69.592  1.00  0.00     0.000 HD 
HETATM    8  C   UNL     1      -7.792   6.971  74.135  1.00  0.00    -0.111 C  
HETATM    9  N   UNL     1      -6.826   3.055  69.725  1.00  0.00    -0.034 NA 
HETATM   10  C   UNL     1      -8.275   3.252  69.926  1.00  0.00    -0.051 C  
HETATM   11  N   UNL     1      -9.171   7.484  74.148  1.00  0.00    -0.399 NA 
HETATM   12  C   UNL     1      -8.689   3.121  71.400  1.00  0.00    -0.118 C  
HETATM   13  H   UNL     1      -9.386   7.998  73.294  1.00  0.00     0.000 HD 
HETATM   14  H   UNL     1     -10.669   3.645  73.709  1.00  0.00     0.000 HD 
HETATM   15  C   UNL     1     -10.100   3.650  71.718  1.00  0.00    -0.090 C  
HETATM   16  C   UNL     1     -10.150   6.404  74.389  1.00  0.00    -0.348 C  
HETATM   17  C   UNL     1     -10.549   5.618  73.113  1.00  0.00    -0.247 C  
HETATM   18  N   UNL     1     -10.109   4.218  73.079  1.00  0.00    -0.146 NA 
ENDBRANCH   1   2
BRANCH   1  19
HETATM   19  C   UNL     1      -8.091   7.328  69.708  1.00  0.00    -0.128 A  
HETATM   20  C   UNL     1      -7.699   7.177  68.389  1.00  0.00    -0.120 A  
HETATM   21  C   UNL     1      -7.596   8.316  67.633  1.00  0.00    -0.098 A  
HETATM   22  C   UNL     1      -8.776   8.449  70.146  1.00  0.00    -0.136 A  
HETATM   23  C   UNL     1      -8.162   9.507  68.085  1.00  0.00    -0.114 A  
HETATM   24  C   UNL     1      -8.744   9.581  69.361  1.00  0.00    -0.166 A  
BRANCH  23  25
HETATM   25  C   UNL     1      -8.176  10.731  67.248  1.00  0.00    -0.121 C  
BRANCH  25  26
HETATM   26  N   UNL     1      -7.165  11.742  67.504  1.00  0.00    -0.113 NA 
HETATM   27  C   UNL     1      -7.565   9.356  62.967  1.00  0.00    -0.107 C  
HETATM   28  H   UNL     1      -6.708   8.561  64.691  1.00  0.00     0.000 HD 
HETATM   29  N   UNL     1      -6.476   9.230  63.957  1.00  0.00    -0.089 NA 
HETATM   30  C   UNL     1      -8.973   9.517  63.596  1.00  0.00    -0.173 C  
HETATM   31  C   UNL     1      -6.122  10.547  64.510  1.00  0.00    -0.031 C  
HETATM   32  C   UNL     1      -5.834  11.593  66.856  1.00  0.00    -0.143 C  
HETATM   33  N   UNL     1      -9.580  10.830  63.368  1.00  0.00    -0.306 NA 
HETATM   34  H   UNL     1      -9.867  10.932  62.395  1.00  0.00     0.000 HD 
HETATM   35  C   UNL     1      -5.456  10.440  65.880  1.00  0.00    -0.086 C  
HETATM   36  C   UNL     1     -10.699  11.119  64.278  1.00  0.00    -0.333 C  
HETATM   37  C   UNL     1     -10.420  12.440  65.017  1.00  0.00    -0.324 C  
HETATM   38  C   UNL     1     -10.882  12.445  66.482  1.00  0.00    -0.250 C  
HETATM   39  N   UNL     1     -10.343  13.590  67.231  1.00  0.00    -0.241 NA 
HETATM   40  C   UNL     1      -9.112  13.369  68.030  1.00  0.00    -0.205 C  
HETATM   41  H   UNL     1     -10.797  14.503  67.203  1.00  0.00     0.000 HD 
HETATM   42  C   UNL     1      -7.749  13.089  67.304  1.00  0.00    -0.105 C  
ENDBRANCH  25  26
ENDBRANCH  23  25
ENDBRANCH   1  19
TORSDOF 4
ENDMDL
MODEL       66
REMARK 921   NORMALIZED FREE ENERGY PREDICTED BY IDOCK:   -4.11 KCAL/MOL
REMARK 922        TOTAL FREE ENERGY PREDICTED BY IDOCK:   -6.65 KCAL/MOL
REMARK 923 INTER-LIGAND FREE ENERGY PREDICTED BY IDOCK:   -5.52 KCAL/MOL
REMARK 924 INTRA-LIGAND FREE ENERGY PREDICTED BY IDOCK:   -1.13 KCAL/MOL
REMARK 927      BINDING AFFINITY PREDICTED BY RF-SCORE:    0.00 PKD
ROOT
HETATM    1  C   UNL     1      -7.802   5.716  66.039  1.00  0.00    -0.100 C  
ENDROOT
BRANCH   1   2
HETATM    2  N   UNL     1      -8.566   4.618  65.480  1.00  0.00    -0.123 NA 
HETATM    3  C   UNL     1      -8.509   4.698  64.003  1.00  0.00    -0.125 C  
HETATM    4  C   UNL     1      -7.067   4.828  63.398  1.00  0.00    -0.048 C  
HETATM    5  C   UNL     1      -9.955   4.401  65.983  1.00  0.00    -0.240 C  
HETATM    6  C   UNL     1     -10.640   5.229  67.114  1.00  0.00    -0.227 C  
HETATM    7  H   UNL     1      -6.569   6.069  61.660  1.00  0.00     0.000 HD 
HETATM    8  C   UNL     1     -11.035   6.657  66.729  1.00  0.00    -0.216 C  
HETATM    9  N   UNL     1      -6.685   6.066  62.674  1.00  0.00    -0.039 NA 
HETATM   10  C   UNL     1      -6.480   7.292  63.469  1.00  0.00    -0.052 C  
HETATM   11  N   UNL     1     -10.707   7.638  67.777  1.00  0.00    -0.448 NA 
HETATM   12  C   UNL     1      -7.749   8.155  63.558  1.00  0.00    -0.143 C  
HETATM   13  H   UNL     1      -9.889   7.350  68.314  1.00  0.00     0.000 HD 
HETATM   14  H   UNL     1      -9.432  10.355  64.920  1.00  0.00     0.000 HD 
HETATM   15  C   UNL     1      -7.703   9.251  64.640  1.00  0.00    -0.116 C  
HETATM   16  C   UNL     1     -10.534   8.993  67.217  1.00  0.00    -0.273 C  
HETATM   17  C   UNL     1      -9.118   9.264  66.643  1.00  0.00    -0.143 C  
HETATM   18  N   UNL     1      -9.058   9.446  65.189  1.00  0.00    -0.222 NA 
ENDBRANCH   1   2
BRANCH   1  19
HETATM   19  C   UNL     1      -7.379   5.625  67.468  1.00  0.00    -0.077 A  
HETATM   20  C   UNL     1      -7.167   4.394  68.064  1.00  0.00    -0.064 A  
HETATM   21  C   UNL     1      -7.404   4.303  69.411  1.00  0.00    -0.051 A  
HETATM   22  C   UNL     1      -7.380   6.803  68.197  1.00  0.00    -0.097 A  
HETATM   23  C   UNL     1      -7.538   5.460  70.175  1.00  0.00    -0.073 A  
HETATM   24  C   UNL     1      -7.543   6.724  69.563  1.00  0.00    -0.099 A  
BRANCH  23  25
HETATM   25  C   UNL     1      -7.678   5.408  71.652  1.00  0.00    -0.106 C  
BRANCH  25  26
HETATM   26  N   UNL     1      -6.602   5.961  72.456  1.00  0.00    -0.065 NA 
HETATM   27  C   UNL     1     -11.442   7.660  72.812  1.00  0.00    -0.332 C  
HETATM   28  H   UNL     1     -10.089   8.139  71.302  1.00  0.00     0.000 HD 
HETATM   29  N   UNL     1     -10.272   8.383  72.275  1.00  0.00    -0.306 NA 
HETATM   30  C   UNL     1     -11.446   6.142  72.493  1.00  0.00    -0.276 C  
HETATM   31  C   UNL     1      -9.090   8.162  73.124  1.00  0.00    -0.265 C  
HETATM   32  C   UNL     1      -6.640   7.411  72.789  1.00  0.00    -0.060 C  
HETATM   33  N   UNL     1     -11.276   5.287  73.670  1.00  0.00    -0.449 NA 
HETATM   34  H   UNL     1     -12.117   5.293  74.247  1.00  0.00     0.000 HD 
HETATM   35  C   UNL     1      -7.783   8.380  72.366  1.00  0.00    -0.145 C  
HETATM   36  C   UNL     1     -10.881   3.910  73.334  1.00  0.00    -0.225 C  
HETATM   37  C   UNL     1      -9.580   3.562  74.082  1.00  0.00    -0.126 C  
HETATM   38  C   UNL     1      -8.607   2.695  73.271  1.00  0.00    -0.075 C  
HETATM   39  N   UNL     1      -7.273   2.630  73.886  1.00  0.00    -0.036 NA 
HETATM   40  C   UNL     1      -6.240   3.568  73.382  1.00  0.00    -0.019 C  
HETATM   41  H   UNL     1      -7.065   1.966  74.632  1.00  0.00     0.000 HD 
HETATM   42  C   UNL     1      -6.385   5.108  73.648  1.00  0.00    -0.057 C  
ENDBRANCH  25  26
ENDBRANCH  23  25
ENDBRANCH   1  19
TORSDOF 4
ENDMDL
MODEL       67
REMARK 921   NORMALIZED FREE ENERGY PREDICTED BY IDOCK:   -4.11 KCAL/MOL
REMARK 922        TOTAL FREE ENERGY PREDICTED BY IDOCK:   -6.65 KCAL/MOL
REMARK 923 INTER-LIGAND FREE ENERGY PREDICTED BY IDOCK:   -5.13 KCAL/MOL
REMARK 924 INTRA-LIGAND FREE ENERGY PREDICTED BY IDOCK:   -1.51 KCAL/MOL
REMARK 927      BINDING AFFINITY PREDICTED BY RF-SCORE:    0.00 PKD
ROOT
HETATM    1  C   UNL     1      -7.760   5.812  66.292  1.00  0.00    -0.099 C  
ENDROOT
BRANCH   1   2
HETATM    2  N   UNL     1      -8.495   4.870  65.470  1.00  0.00    -0.125 NA 
HETATM    3  C   UNL     1      -8.298   5.224  64.046  1.00  0.00    -0.125 C  
HETATM    4  C   UNL     1      -6.803   5.406  63.605  1.00  0.00    -0.042 C  
HETATM    5  C   UNL     1      -9.929   4.621  65.800  1.00  0.00    -0.230 C  
HETATM    6  C   UNL     1     -10.696   5.249  67.004  1.00  0.00    -0.172 C  
HETATM    7  H   UNL     1      -6.115   6.930  62.186  1.00  0.00     0.000 HD 
HETATM    8  C   UNL     1     -11.019   6.739  66.866  1.00  0.00    -0.300 C  
HETATM    9  N   UNL     1      -6.326   6.741  63.167  1.00  0.00    -0.042 NA 
HETATM   10  C   UNL     1      -6.166   7.786  64.195  1.00  0.00    -0.056 C  
HETATM   11  N   UNL     1     -10.767   7.491  68.106  1.00  0.00    -0.399 NA 
HETATM   12  C   UNL     1      -7.416   8.669  64.337  1.00  0.00    -0.108 C  
HETATM   13  H   UNL     1     -10.010   7.073  68.648  1.00  0.00     0.000 HD 
HETATM   14  H   UNL     1      -9.166  10.642  65.942  1.00  0.00     0.000 HD 
HETATM   15  C   UNL     1      -7.445   9.539  65.608  1.00  0.00    -0.094 C  
HETATM   16  C   UNL     1     -10.510   8.919  67.832  1.00  0.00    -0.223 C  
HETATM   17  C   UNL     1      -9.040   9.234  67.446  1.00  0.00    -0.126 C  
HETATM   18  N   UNL     1      -8.840   9.683  66.064  1.00  0.00    -0.147 NA 
ENDBRANCH   1   2
BRANCH   1  19
HETATM   19  C   UNL     1      -7.478   5.438  67.711  1.00  0.00    -0.080 A  
HETATM   20  C   UNL     1      -7.453   4.110  68.099  1.00  0.00    -0.067 A  
HETATM   21  C   UNL     1      -7.818   3.829  69.390  1.00  0.00    -0.052 A  
HETATM   22  C   UNL     1      -7.420   6.473  68.631  1.00  0.00    -0.088 A  
HETATM   23  C   UNL     1      -7.897   4.854  70.331  1.00  0.00    -0.066 A  
HETATM   24  C   UNL     1      -7.712   6.192  69.948  1.00  0.00    -0.100 A  
BRANCH  23  25
HETATM   25  C   UNL     1      -8.173   4.578  71.763  1.00  0.00    -0.103 C  
BRANCH  25  26
HETATM   26  N   UNL     1      -7.483   3.462  72.385  1.00  0.00    -0.055 NA 
HETATM   27  C   UNL     1      -6.746   8.322  73.892  1.00  0.00    -0.128 C  
HETATM   28  H   UNL     1      -5.924   7.433  72.197  1.00  0.00     0.000 HD 
HETATM   29  N   UNL     1      -5.782   7.437  73.207  1.00  0.00    -0.045 NA 
HETATM   30  C   UNL     1      -8.213   8.140  73.423  1.00  0.00    -0.206 C  
HETATM   31  C   UNL     1      -5.835   6.078  73.771  1.00  0.00    -0.057 C  
HETATM   32  C   UNL     1      -6.091   3.670  72.869  1.00  0.00    -0.012 C  
HETATM   33  N   UNL     1      -9.097   7.576  74.445  1.00  0.00    -0.431 NA 
HETATM   34  H   UNL     1      -9.287   8.259  75.178  1.00  0.00     0.000 HD 
HETATM   35  C   UNL     1      -5.327   5.024  72.790  1.00  0.00    -0.009 C  
HETATM   36  C   UNL     1     -10.351   7.037  73.894  1.00  0.00    -0.348 C  
HETATM   37  C   UNL     1     -10.499   5.565  74.322  1.00  0.00    -0.275 C  
HETATM   38  C   UNL     1     -11.113   4.661  73.244  1.00  0.00    -0.321 C  
HETATM   39  N   UNL     1     -10.968   3.233  73.566  1.00  0.00    -0.218 NA 
HETATM   40  C   UNL     1      -9.823   2.508  72.964  1.00  0.00    -0.112 C  
HETATM   41  H   UNL     1     -11.630   2.759  74.180  1.00  0.00     0.000 HD 
HETATM   42  C   UNL     1      -8.358   2.849  73.413  1.00  0.00    -0.072 C  
ENDBRANCH  25  26
ENDBRANCH  23  25
ENDBRANCH   1  19
TORSDOF 4
ENDMDL
MODEL       68
REMARK 921   NORMALIZED FREE ENERGY PREDICTED BY IDOCK:   -4.09 KCAL/MOL
REMARK 922        TOTAL FREE ENERGY PREDICTED BY IDOCK:   -6.63 KCAL/MOL
REMARK 923 INTER-LIGAND FREE ENERGY PREDICTED BY IDOCK:   -5.06 KCAL/MOL
REMARK 924 INTRA-LIGAND FREE ENERGY PREDICTED BY IDOCK:   -1.57 KCAL/MOL
REMARK 927      BINDING AFFINITY PREDICTED BY RF-SCORE:    0.00 PKD
ROOT
HETATM    1  C   UNL     1      -8.079   8.188  67.343  1.00  0.00    -0.122 C  
ENDROOT
BRANCH   1   2
HETATM    2  N   UNL     1      -6.728   8.290  67.862  1.00  0.00    -0.064 NA 
HETATM    3  C   UNL     1      -5.934   7.149  67.353  1.00  0.00    -0.029 C  
HETATM    4  C   UNL     1      -5.993   6.935  65.800  1.00  0.00    -0.035 C  
HETATM    5  C   UNL     1      -6.554   8.494  69.330  1.00  0.00    -0.041 C  
HETATM    6  C   UNL     1      -7.714   8.668  70.358  1.00  0.00    -0.081 C  
HETATM    7  H   UNL     1      -6.045   4.970  64.830  1.00  0.00     0.000 HD 
HETATM    8  C   UNL     1      -8.514   7.398  70.660  1.00  0.00    -0.136 C  
HETATM    9  N   UNL     1      -6.614   5.703  65.254  1.00  0.00    -0.039 NA 
HETATM   10  C   UNL     1      -8.080   5.573  65.344  1.00  0.00    -0.123 C  
HETATM   11  N   UNL     1      -9.965   7.638  70.704  1.00  0.00    -0.183 NA 
HETATM   12  C   UNL     1      -8.529   4.817  66.605  1.00  0.00    -0.106 C  
HETATM   13  H   UNL     1     -10.236   8.402  70.083  1.00  0.00     0.000 HD 
HETATM   14  H   UNL     1     -10.677   4.083  68.697  1.00  0.00     0.000 HD 
HETATM   15  C   UNL     1     -10.029   4.949  66.931  1.00  0.00    -0.217 C  
HETATM   16  C   UNL     1     -10.728   6.408  70.410  1.00  0.00    -0.262 C  
HETATM   17  C   UNL     1     -10.910   6.124  68.895  1.00  0.00    -0.340 C  
HETATM   18  N   UNL     1     -10.209   4.937  68.395  1.00  0.00    -0.080 NA 
ENDBRANCH   1   2
BRANCH   1  19
HETATM   19  C   UNL     1      -8.753   9.438  66.881  1.00  0.00    -0.137 A  
HETATM   20  C   UNL     1      -8.010  10.561  66.556  1.00  0.00    -0.132 A  
HETATM   21  C   UNL     1      -8.604  11.781  66.754  1.00  0.00    -0.185 A  
HETATM   22  C   UNL     1     -10.136   9.470  66.961  1.00  0.00    -0.297 A  
HETATM   23  C   UNL     1      -9.979  11.861  66.964  1.00  0.00    -0.219 A  
HETATM   24  C   UNL     1     -10.753  10.696  67.085  1.00  0.00    -0.327 A  
BRANCH  23  25
HETATM   25  C   UNL     1     -10.677  13.167  67.064  1.00  0.00    -0.262 C  
BRANCH  25  26
HETATM   26  N   UNL     1     -12.032  13.175  67.588  1.00  0.00    -0.346 NA 
HETATM   27  C   UNL     1      -8.431  16.444  69.254  1.00  0.00    -0.092 C  
HETATM   28  H   UNL     1      -8.605  14.441  69.798  1.00  0.00     0.000 HD 
HETATM   29  N   UNL     1      -9.054  15.334  70.003  1.00  0.00     0.084 NA 
HETATM   30  C   UNL     1      -8.202  16.141  67.751  1.00  0.00    -0.152 C  
HETATM   31  C   UNL     1     -10.503  15.287  69.751  1.00  0.00    -0.275 C  
HETATM   32  C   UNL     1     -12.235  13.512  69.023  1.00  0.00    -0.186 C  
HETATM   33  N   UNL     1      -9.030  16.945  66.849  1.00  0.00    -0.215 NA 
HETATM   34  H   UNL     1      -8.709  17.913  66.829  1.00  0.00     0.000 HD 
HETATM   35  C   UNL     1     -11.090  13.900  70.004  1.00  0.00     0.083 C  
HETATM   36  C   UNL     1      -9.112  16.391  65.488  1.00  0.00     0.425 C  
HETATM   37  C   UNL     1     -10.591  16.187  65.115  1.00  0.00    -0.366 C  
HETATM   38  C   UNL     1     -10.856  14.924  64.284  1.00  0.00     0.297 C  
HETATM   39  N   UNL     1     -12.290  14.604  64.199  1.00  0.00    -0.900 NA 
HETATM   40  C   UNL     1     -12.828  13.610  65.160  1.00  0.00    -0.329 C  
HETATM   41  H   UNL     1     -12.892  15.049  63.506  1.00  0.00     0.000 HD 
HETATM   42  C   UNL     1     -12.907  13.963  66.687  1.00  0.00     0.333 C  
ENDBRANCH  25  26
ENDBRANCH  23  25
ENDBRANCH   1  19
TORSDOF 4
ENDMDL
MODEL       69
REMARK 921   NORMALIZED FREE ENERGY PREDICTED BY IDOCK:   -4.04 KCAL/MOL
REMARK 922        TOTAL FREE ENERGY PREDICTED BY IDOCK:   -6.57 KCAL/MOL
REMARK 923 INTER-LIGAND FREE ENERGY PREDICTED BY IDOCK:   -4.86 KCAL/MOL
REMARK 924 INTRA-LIGAND FREE ENERGY PREDICTED BY IDOCK:   -1.71 KCAL/MOL
REMARK 927      BINDING AFFINITY PREDICTED BY RF-SCORE:    0.00 PKD
ROOT
HETATM    1  C   UNL     1      -8.847   4.422  66.387  1.00  0.00    -0.114 C  
ENDROOT
BRANCH   1   2
HETATM    2  N   UNL     1     -10.259   4.490  66.062  1.00  0.00    -0.264 NA 
HETATM    3  C   UNL     1     -10.434   4.183  64.625  1.00  0.00    -0.168 C  
HETATM    4  C   UNL     1      -9.745   2.861  64.137  1.00  0.00    -0.153 C  
HETATM    5  C   UNL     1     -11.016   5.707  66.480  1.00  0.00    -0.062 C  
HETATM    6  C   UNL     1     -10.425   6.898  67.296  1.00  0.00    -0.357 C  
HETATM    7  H   UNL     1      -8.761   2.633  62.191  1.00  0.00     0.000 HD 
HETATM    8  C   UNL     1      -9.458   7.801  66.525  1.00  0.00    -0.201 C  
HETATM    9  N   UNL     1      -8.632   2.934  63.157  1.00  0.00    -0.085 NA 
HETATM   10  C   UNL     1      -7.335   3.457  63.626  1.00  0.00    -0.054 C  
HETATM   11  N   UNL     1      -8.266   8.158  67.312  1.00  0.00    -0.120 NA 
HETATM   12  C   UNL     1      -7.184   4.967  63.379  1.00  0.00    -0.049 C  
HETATM   13  H   UNL     1      -8.023   7.422  67.975  1.00  0.00     0.000 HD 
HETATM   14  H   UNL     1      -5.850   7.685  63.978  1.00  0.00     0.000 HD 
HETATM   15  C   UNL     1      -6.022   5.628  64.144  1.00  0.00    -0.025 C  
HETATM   16  C   UNL     1      -7.123   8.498  66.440  1.00  0.00    -0.079 C  
HETATM   17  C   UNL     1      -6.319   7.267  65.944  1.00  0.00    -0.041 C  
HETATM   18  N   UNL     1      -6.402   7.007  64.503  1.00  0.00    -0.036 NA 
ENDBRANCH   1   2
BRANCH   1  19
HETATM   19  C   UNL     1      -8.461   4.072  67.787  1.00  0.00    -0.102 A  
HETATM   20  C   UNL     1      -9.250   3.223  68.544  1.00  0.00    -0.233 A  
HETATM   21  C   UNL     1      -9.249   3.415  69.902  1.00  0.00    -0.222 A  
HETATM   22  C   UNL     1      -7.393   4.764  68.333  1.00  0.00    -0.065 A  
HETATM   23  C   UNL     1      -8.266   4.206  70.493  1.00  0.00    -0.071 A  
HETATM   24  C   UNL     1      -7.337   4.902  69.703  1.00  0.00    -0.056 A  
BRANCH  23  25
HETATM   25  C   UNL     1      -8.158   4.344  71.967  1.00  0.00    -0.099 C  
BRANCH  25  26
HETATM   26  N   UNL     1      -7.451   3.307  72.696  1.00  0.00    -0.049 NA 
HETATM   27  C   UNL     1      -6.765   8.305  73.685  1.00  0.00    -0.122 C  
HETATM   28  H   UNL     1      -5.943   7.255  72.085  1.00  0.00     0.000 HD 
HETATM   29  N   UNL     1      -5.795   7.365  73.088  1.00  0.00    -0.048 NA 
HETATM   30  C   UNL     1      -8.233   8.058  73.249  1.00  0.00    -0.198 C  
HETATM   31  C   UNL     1      -5.827   6.072  73.791  1.00  0.00    -0.057 C  
HETATM   32  C   UNL     1      -6.058   3.580  73.145  1.00  0.00    -0.011 C  
HETATM   33  N   UNL     1      -9.103   7.592  74.330  1.00  0.00    -0.431 NA 
HETATM   34  H   UNL     1      -9.297   8.346  74.990  1.00  0.00     0.000 HD 
HETATM   35  C   UNL     1      -5.312   4.928  72.920  1.00  0.00    -0.009 C  
HETATM   36  C   UNL     1     -10.354   6.985  73.848  1.00  0.00    -0.348 C  
HETATM   37  C   UNL     1     -10.480   5.564  74.427  1.00  0.00    -0.236 C  
HETATM   38  C   UNL     1     -11.090   4.545  73.454  1.00  0.00    -0.322 C  
HETATM   39  N   UNL     1     -10.925   3.160  73.921  1.00  0.00    -0.209 NA 
HETATM   40  C   UNL     1      -9.774   2.390  73.388  1.00  0.00    -0.095 C  
HETATM   41  H   UNL     1     -11.577   2.744  74.587  1.00  0.00     0.000 HD 
HETATM   42  C   UNL     1      -8.311   2.793  73.789  1.00  0.00    -0.072 C  
ENDBRANCH  25  26
ENDBRANCH  23  25
ENDBRANCH   1  19
TORSDOF 4
ENDMDL
MODEL       70
REMARK 921   NORMALIZED FREE ENERGY PREDICTED BY IDOCK:   -4.03 KCAL/MOL
REMARK 922        TOTAL FREE ENERGY PREDICTED BY IDOCK:   -6.55 KCAL/MOL
REMARK 923 INTER-LIGAND FREE ENERGY PREDICTED BY IDOCK:   -5.56 KCAL/MOL
REMARK 924 INTRA-LIGAND FREE ENERGY PREDICTED BY IDOCK:   -1.00 KCAL/MOL
REMARK 927      BINDING AFFINITY PREDICTED BY RF-SCORE:    0.00 PKD
ROOT
HETATM    1  C   UNL     1      -9.872  13.365  68.294  1.00  0.00    -0.235 C  
ENDROOT
BRANCH   1   2
HETATM    2  N   UNL     1     -10.991  13.132  69.187  1.00  0.00    -0.193 NA 
HETATM    3  C   UNL     1     -12.157  12.693  68.387  1.00  0.00    -0.087 C  
HETATM    4  C   UNL     1     -11.881  11.499  67.407  1.00  0.00    -0.027 C  
HETATM    5  C   UNL     1     -11.345  14.205  70.163  1.00  0.00    -0.087 C  
HETATM    6  C   UNL     1     -10.567  15.544  70.348  1.00  0.00    -0.294 C  
HETATM    7  H   UNL     1     -12.752  11.327  65.402  1.00  0.00     0.000 HD 
HETATM    8  C   UNL     1     -10.740  16.560  69.216  1.00  0.00    -0.331 C  
HETATM    9  N   UNL     1     -11.979  11.717  65.942  1.00  0.00    -0.330 NA 
HETATM   10  C   UNL     1     -10.923  12.517  65.293  1.00  0.00    -0.293 C  
HETATM   11  N   UNL     1      -9.472  17.200  68.829  1.00  0.00    -0.273 NA 
HETATM   12  C   UNL     1     -11.294  14.004  65.183  1.00  0.00    -0.328 C  
HETATM   13  H   UNL     1      -8.679  16.576  68.979  1.00  0.00     0.000 HD 
HETATM   14  H   UNL     1     -10.507  16.967  64.823  1.00  0.00     0.000 HD 
HETATM   15  C   UNL     1     -10.115  14.934  64.838  1.00  0.00    -0.165 C  
HETATM   16  C   UNL     1      -9.516  17.693  67.438  1.00  0.00    -0.256 C  
HETATM   17  C   UNL     1      -9.192  16.610  66.374  1.00  0.00    -0.287 C  
HETATM   18  N   UNL     1     -10.313  16.235  65.505  1.00  0.00    -0.509 NA 
ENDBRANCH   1   2
BRANCH   1  19
HETATM   19  C   UNL     1      -8.847  12.288  68.154  1.00  0.00    -0.187 A  
HETATM   20  C   UNL     1      -7.917  12.328  67.130  1.00  0.00    -0.161 A  
HETATM   21  C   UNL     1      -7.454  11.127  66.658  1.00  0.00    -0.146 A  
HETATM   22  C   UNL     1      -8.985  11.182  68.978  1.00  0.00    -0.027 A  
HETATM   23  C   UNL     1      -7.674   9.960  67.388  1.00  0.00    -0.091 A  
HETATM   24  C   UNL     1      -8.460   9.982  68.552  1.00  0.00    -0.115 A  
BRANCH  23  25
HETATM   25  C   UNL     1      -7.090   8.660  66.974  1.00  0.00    -0.075 C  
BRANCH  25  26
HETATM   26  N   UNL     1      -5.659   8.475  67.137  1.00  0.00    -0.038 NA 
HETATM   27  C   UNL     1      -9.097   5.571  69.622  1.00  0.00    -0.128 C  
HETATM   28  H   UNL     1      -8.550   7.516  70.129  1.00  0.00     0.000 HD 
HETATM   29  N   UNL     1      -8.177   6.569  70.201  1.00  0.00    -0.127 NA 
HETATM   30  C   UNL     1      -9.657   5.963  68.230  1.00  0.00    -0.121 C  
HETATM   31  C   UNL     1      -6.842   6.461  69.591  1.00  0.00    -0.065 C  
HETATM   32  C   UNL     1      -5.146   8.056  68.469  1.00  0.00    -0.031 C  
HETATM   33  N   UNL     1      -9.186   5.109  67.138  1.00  0.00    -0.115 NA 
HETATM   34  H   UNL     1      -9.616   4.185  67.188  1.00  0.00     0.000 HD 
HETATM   35  C   UNL     1      -6.046   7.759  69.704  1.00  0.00    -0.030 C  
HETATM   36  C   UNL     1      -9.380   5.706  65.807  1.00  0.00    -0.060 C  
HETATM   37  C   UNL     1      -8.028   5.755  65.073  1.00  0.00    -0.121 C  
HETATM   38  C   UNL     1      -7.828   7.015  64.218  1.00  0.00    -0.111 C  
HETATM   39  N   UNL     1      -6.433   7.171  63.776  1.00  0.00    -0.044 NA 
HETATM   40  C   UNL     1      -5.555   8.055  64.581  1.00  0.00    -0.044 C  
HETATM   41  H   UNL     1      -6.083   6.691  62.947  1.00  0.00     0.000 HD 
HETATM   42  C   UNL     1      -5.140   7.631  66.034  1.00  0.00    -0.025 C  
ENDBRANCH  25  26
ENDBRANCH  23  25
ENDBRANCH   1  19
TORSDOF 4
ENDMDL
MODEL       71
REMARK 921   NORMALIZED FREE ENERGY PREDICTED BY IDOCK:   -4.02 KCAL/MOL
REMARK 922        TOTAL FREE ENERGY PREDICTED BY IDOCK:   -6.55 KCAL/MOL
REMARK 923 INTER-LIGAND FREE ENERGY PREDICTED BY IDOCK:   -5.07 KCAL/MOL
REMARK 924 INTRA-LIGAND FREE ENERGY PREDICTED BY IDOCK:   -1.48 KCAL/MOL
REMARK 927      BINDING AFFINITY PREDICTED BY RF-SCORE:    0.00 PKD
ROOT
HETATM    1  C   UNL     1      -8.850  11.000  67.448  1.00  0.00    -0.138 C  
ENDROOT
BRANCH   1   2
HETATM    2  N   UNL     1      -8.156  12.120  68.054  1.00  0.00    -0.145 NA 
HETATM    3  C   UNL     1      -8.869  13.370  67.705  1.00  0.00    -0.200 C  
HETATM    4  C   UNL     1     -10.411  13.360  67.992  1.00  0.00    -0.239 C  
HETATM    5  C   UNL     1      -6.682  12.230  67.844  1.00  0.00    -0.093 C  
HETATM    6  C   UNL     1      -5.806  11.199  67.069  1.00  0.00    -0.079 C  
HETATM    7  H   UNL     1     -11.911  14.298  66.697  1.00  0.00     0.000 HD 
HETATM    8  C   UNL     1      -5.991  11.196  65.549  1.00  0.00     0.201 C  
HETATM    9  N   UNL     1     -11.368  13.450  66.861  1.00  0.00    -0.311 NA 
HETATM   10  C   UNL     1     -11.507  12.274  65.982  1.00  0.00    -0.381 C  
HETATM   11  N   UNL     1      -6.065   9.837  64.989  1.00  0.00    -0.085 NA 
HETATM   12  C   UNL     1     -10.589  12.346  64.751  1.00  0.00    -0.331 C  
HETATM   13  H   UNL     1      -6.465   9.179  65.658  1.00  0.00     0.000 HD 
HETATM   14  H   UNL     1      -9.094  10.998  62.411  1.00  0.00     0.000 HD 
HETATM   15  C   UNL     1     -10.434  11.015  63.990  1.00  0.00    -0.366 C  
HETATM   16  C   UNL     1      -6.799   9.817  63.708  1.00  0.00    -0.119 C  
HETATM   17  C   UNL     1      -8.341   9.742  63.865  1.00  0.00    -0.173 C  
HETATM   18  N   UNL     1      -9.072  10.936  63.428  1.00  0.00    -0.224 NA 
ENDBRANCH   1   2
BRANCH   1  19
HETATM   19  C   UNL     1      -8.874   9.703  68.187  1.00  0.00    -0.119 A  
HETATM   20  C   UNL     1      -9.498   9.604  69.418  1.00  0.00    -0.201 A  
HETATM   21  C   UNL     1      -8.995   8.685  70.302  1.00  0.00    -0.162 A  
HETATM   22  C   UNL     1      -8.104   8.673  67.669  1.00  0.00    -0.107 A  
HETATM   23  C   UNL     1      -8.116   7.699  69.858  1.00  0.00    -0.124 A  
HETATM   24  C   UNL     1      -7.651   7.700  68.533  1.00  0.00    -0.110 A  
BRANCH  23  25
HETATM   25  C   UNL     1      -7.641   6.616  70.755  1.00  0.00    -0.092 C  
BRANCH  25  26
HETATM   26  N   UNL     1      -6.258   6.656  71.195  1.00  0.00    -0.040 NA 
HETATM   27  C   UNL     1     -10.185   6.494  74.510  1.00  0.00    -0.249 C  
HETATM   28  H   UNL     1      -9.537   8.177  73.468  1.00  0.00     0.000 HD 
HETATM   29  N   UNL     1      -9.255   7.616  74.271  1.00  0.00    -0.110 NA 
HETATM   30  C   UNL     1     -10.550   5.695  73.231  1.00  0.00    -0.250 C  
HETATM   31  C   UNL     1      -7.873   7.125  74.137  1.00  0.00    -0.114 C  
HETATM   32  C   UNL     1      -5.934   7.391  72.448  1.00  0.00    -0.040 C  
HETATM   33  N   UNL     1     -10.032   4.326  73.218  1.00  0.00    -0.134 NA 
HETATM   34  H   UNL     1     -10.541   3.739  73.879  1.00  0.00     0.000 HD 
HETATM   35  C   UNL     1      -6.989   8.093  73.353  1.00  0.00    -0.152 C  
HETATM   36  C   UNL     1     -10.025   3.720  71.877  1.00  0.00    -0.160 C  
HETATM   37  C   UNL     1      -8.600   3.242  71.546  1.00  0.00    -0.104 C  
HETATM   38  C   UNL     1      -8.200   3.442  70.078  1.00  0.00    -0.048 C  
HETATM   39  N   UNL     1      -6.757   3.255  69.863  1.00  0.00    -0.033 NA 
HETATM   40  C   UNL     1      -5.903   4.468  69.852  1.00  0.00    -0.017 C  
HETATM   41  H   UNL     1      -6.357   2.326  69.728  1.00  0.00     0.000 HD 
HETATM   42  C   UNL     1      -5.690   5.287  71.174  1.00  0.00    -0.016 C  
ENDBRANCH  25  26
ENDBRANCH  23  25
ENDBRANCH   1  19
TORSDOF 4
ENDMDL
MODEL       72
REMARK 921   NORMALIZED FREE ENERGY PREDICTED BY IDOCK:   -4.02 KCAL/MOL
REMARK 922        TOTAL FREE ENERGY PREDICTED BY IDOCK:   -6.54 KCAL/MOL
REMARK 923 INTER-LIGAND FREE ENERGY PREDICTED BY IDOCK:   -6.02 KCAL/MOL
REMARK 924 INTRA-LIGAND FREE ENERGY PREDICTED BY IDOCK:   -0.52 KCAL/MOL
REMARK 927      BINDING AFFINITY PREDICTED BY RF-SCORE:    0.00 PKD
ROOT
HETATM    1  C   UNL     1     -10.558  11.618  66.791  1.00  0.00    -0.244 C  
ENDROOT
BRANCH   1   2
HETATM    2  N   UNL     1     -10.323  12.842  67.531  1.00  0.00    -0.222 NA 
HETATM    3  C   UNL     1     -10.912  13.975  66.781  1.00  0.00    -0.297 C  
HETATM    4  C   UNL     1     -12.408  13.783  66.351  1.00  0.00    -0.412 C  
HETATM    5  C   UNL     1      -8.931  13.128  67.990  1.00  0.00    -0.195 C  
HETATM    6  C   UNL     1      -7.707  12.182  67.791  1.00  0.00    -0.139 C  
HETATM    7  H   UNL     1     -13.236  14.466  64.438  1.00  0.00     0.000 HD 
HETATM    8  C   UNL     1      -7.181  12.088  66.356  1.00  0.00     0.434 C  
HETATM    9  N   UNL     1     -12.750  13.701  64.909  1.00  0.00    -0.677 NA 
HETATM   10  C   UNL     1     -12.366  12.479  64.178  1.00  0.00    -0.462 C  
HETATM   11  N   UNL     1      -6.867  10.707  65.957  1.00  0.00    -0.133 NA 
HETATM   12  C   UNL     1     -11.001  12.611  63.485  1.00  0.00    -0.413 C  
HETATM   13  H   UNL     1      -7.465  10.034  66.437  1.00  0.00     0.000 HD 
HETATM   14  H   UNL     1      -8.488  11.360  62.200  1.00  0.00     0.000 HD 
HETATM   15  C   UNL     1     -10.394  11.278  63.006  1.00  0.00    -0.191 C  
HETATM   16  C   UNL     1      -6.934  10.538  64.491  1.00  0.00     0.091 C  
HETATM   17  C   UNL     1      -8.364  10.275  63.951  1.00  0.00    -0.165 C  
HETATM   18  N   UNL     1      -8.925  11.347  63.121  1.00  0.00    -0.131 NA 
ENDBRANCH   1   2
BRANCH   1  19
HETATM   19  C   UNL     1     -10.321  10.317  67.486  1.00  0.00    -0.276 A  
HETATM   20  C   UNL     1     -10.363  10.238  68.867  1.00  0.00    -0.221 A  
HETATM   21  C   UNL     1      -9.571   9.291  69.463  1.00  0.00    -0.178 A  
HETATM   22  C   UNL     1      -9.892   9.258  66.702  1.00  0.00    -0.311 A  
HETATM   23  C   UNL     1      -9.010   8.269  68.699  1.00  0.00    -0.137 A  
HETATM   24  C   UNL     1      -9.156   8.259  67.302  1.00  0.00    -0.157 A  
BRANCH  23  25
HETATM   25  C   UNL     1      -8.245   7.160  69.321  1.00  0.00    -0.128 C  
BRANCH  25  26
HETATM   26  N   UNL     1      -8.801   6.532  70.506  1.00  0.00    -0.150 NA 
HETATM   27  C   UNL     1      -9.936   4.915  65.759  1.00  0.00    -0.170 C  
HETATM   28  H   UNL     1     -10.736   6.593  66.700  1.00  0.00     0.000 HD 
HETATM   29  N   UNL     1     -10.837   5.579  66.723  1.00  0.00    -0.245 NA 
HETATM   30  C   UNL     1      -8.478   5.442  65.794  1.00  0.00    -0.131 C  
HETATM   31  C   UNL     1     -10.634   5.040  68.078  1.00  0.00     0.144 C  
HETATM   32  C   UNL     1     -10.186   5.993  70.438  1.00  0.00    -0.204 C  
HETATM   33  N   UNL     1      -7.505   4.464  66.285  1.00  0.00    -0.084 NA 
HETATM   34  H   UNL     1      -7.353   3.727  65.597  1.00  0.00     0.000 HD 
HETATM   35  C   UNL     1     -11.078   6.020  69.162  1.00  0.00    -0.405 C  
HETATM   36  C   UNL     1      -6.228   5.070  66.694  1.00  0.00    -0.032 C  
HETATM   37  C   UNL     1      -5.925   4.674  68.151  1.00  0.00    -0.027 C  
HETATM   38  C   UNL     1      -5.270   5.789  68.978  1.00  0.00    -0.004 C  
HETATM   39  N   UNL     1      -5.267   5.487  70.417  1.00  0.00    -0.004 NA 
HETATM   40  C   UNL     1      -6.361   6.058  71.240  1.00  0.00    -0.044 C  
HETATM   41  H   UNL     1      -4.539   4.906  70.835  1.00  0.00     0.000 HD 
HETATM   42  C   UNL     1      -7.833   5.549  71.046  1.00  0.00    -0.105 C  
ENDBRANCH  25  26
ENDBRANCH  23  25
ENDBRANCH   1  19
TORSDOF 4
ENDMDL
MODEL       73
REMARK 921   NORMALIZED FREE ENERGY PREDICTED BY IDOCK:   -4.02 KCAL/MOL
REMARK 922        TOTAL FREE ENERGY PREDICTED BY IDOCK:   -6.54 KCAL/MOL
REMARK 923 INTER-LIGAND FREE ENERGY PREDICTED BY IDOCK:   -5.31 KCAL/MOL
REMARK 924 INTRA-LIGAND FREE ENERGY PREDICTED BY IDOCK:   -1.23 KCAL/MOL
REMARK 927      BINDING AFFINITY PREDICTED BY RF-SCORE:    0.00 PKD
ROOT
HETATM    1  C   UNL     1      -9.746  10.797  69.284  1.00  0.00    -0.120 C  
ENDROOT
BRANCH   1   2
HETATM    2  N   UNL     1     -11.095  10.553  68.810  1.00  0.00    -0.249 NA 
HETATM    3  C   UNL     1     -11.028  10.034  67.425  1.00  0.00    -0.191 C  
HETATM    4  C   UNL     1     -10.062   8.816  67.215  1.00  0.00    -0.236 C  
HETATM    5  C   UNL     1     -12.100  11.646  68.959  1.00  0.00    -0.225 C  
HETATM    6  C   UNL     1     -11.835  13.023  69.642  1.00  0.00    -0.385 C  
HETATM    7  H   UNL     1      -8.811   8.530  65.437  1.00  0.00     0.000 HD 
HETATM    8  C   UNL     1     -10.950  13.987  68.847  1.00  0.00    -0.259 C  
HETATM    9  N   UNL     1      -8.863   8.973  66.354  1.00  0.00    -0.139 NA 
HETATM   10  C   UNL     1      -7.748   9.790  66.870  1.00  0.00    -0.098 C  
HETATM   11  N   UNL     1      -9.950  14.663  69.689  1.00  0.00    -0.429 NA 
HETATM   12  C   UNL     1      -7.832  11.255  66.414  1.00  0.00    -0.109 C  
HETATM   13  H   UNL     1      -9.669  14.079  70.477  1.00  0.00     0.000 HD 
HETATM   14  H   UNL     1      -7.080  14.233  66.731  1.00  0.00     0.000 HD 
HETATM   15  C   UNL     1      -6.911  12.220  67.186  1.00  0.00    -0.101 C  
HETATM   16  C   UNL     1      -8.781  15.100  68.899  1.00  0.00    -0.205 C  
HETATM   17  C   UNL     1      -7.718  13.991  68.679  1.00  0.00    -0.135 C  
HETATM   18  N   UNL     1      -7.568  13.536  67.292  1.00  0.00    -0.116 NA 
ENDBRANCH   1   2
BRANCH   1  19
HETATM   19  C   UNL     1      -9.123   9.785  70.189  1.00  0.00    -0.240 A  
HETATM   20  C   UNL     1      -7.746   9.674  70.280  1.00  0.00    -0.184 A  
HETATM   21  C   UNL     1      -7.238   8.434  70.571  1.00  0.00    -0.042 A  
HETATM   22  C   UNL     1      -9.976   8.869  70.783  1.00  0.00    -0.282 A  
HETATM   23  C   UNL     1      -8.077   7.433  71.057  1.00  0.00    -0.101 A  
HETATM   24  C   UNL     1      -9.462   7.644  71.150  1.00  0.00    -0.163 A  
BRANCH  23  25
HETATM   25  C   UNL     1      -7.549   6.117  71.494  1.00  0.00    -0.099 C  
BRANCH  25  26
HETATM   26  N   UNL     1      -6.398   6.107  72.380  1.00  0.00    -0.053 NA 
HETATM   27  C   UNL     1     -10.978   4.264  73.816  1.00  0.00    -0.266 C  
HETATM   28  H   UNL     1     -10.448   6.276  73.721  1.00  0.00     0.000 HD 
HETATM   29  N   UNL     1     -10.293   5.469  74.325  1.00  0.00    -0.271 NA 
HETATM   30  C   UNL     1     -10.769   4.013  72.300  1.00  0.00     0.114 C  
HETATM   31  C   UNL     1      -8.859   5.206  74.527  1.00  0.00    -0.110 C  
HETATM   32  C   UNL     1      -6.624   6.305  73.837  1.00  0.00    -0.071 C  
HETATM   33  N   UNL     1      -9.977   2.818  71.999  1.00  0.00    -0.168 NA 
HETATM   34  H   UNL     1     -10.512   1.971  72.191  1.00  0.00     0.000 HD 
HETATM   35  C   UNL     1      -8.025   6.484  74.493  1.00  0.00    -0.121 C  
HETATM   36  C   UNL     1      -9.447   2.804  70.626  1.00  0.00    -0.141 C  
HETATM   37  C   UNL     1      -7.918   2.634  70.678  1.00  0.00    -0.049 C  
HETATM   38  C   UNL     1      -7.164   3.442  69.612  1.00  0.00    -0.041 C  
HETATM   39  N   UNL     1      -5.717   3.493  69.871  1.00  0.00    -0.017 NA 
HETATM   40  C   UNL     1      -5.190   4.683  70.582  1.00  0.00     0.000 C  
HETATM   41  H   UNL     1      -5.099   2.738  69.574  1.00  0.00     0.000 HD 
HETATM   42  C   UNL     1      -5.558   4.921  72.089  1.00  0.00    -0.008 C  
ENDBRANCH  25  26
ENDBRANCH  23  25
ENDBRANCH   1  19
TORSDOF 4
ENDMDL
MODEL       74
REMARK 921   NORMALIZED FREE ENERGY PREDICTED BY IDOCK:   -3.99 KCAL/MOL
REMARK 922        TOTAL FREE ENERGY PREDICTED BY IDOCK:   -6.51 KCAL/MOL
REMARK 923 INTER-LIGAND FREE ENERGY PREDICTED BY IDOCK:   -5.86 KCAL/MOL
REMARK 924 INTRA-LIGAND FREE ENERGY PREDICTED BY IDOCK:   -0.64 KCAL/MOL
REMARK 927      BINDING AFFINITY PREDICTED BY RF-SCORE:    0.00 PKD
ROOT
HETATM    1  C   UNL     1      -8.216   6.991  70.862  1.00  0.00    -0.121 C  
ENDROOT
BRANCH   1   2
HETATM    2  N   UNL     1      -8.988   6.901  72.086  1.00  0.00    -0.132 NA 
HETATM    3  C   UNL     1      -8.630   5.646  72.786  1.00  0.00    -0.119 C  
HETATM    4  C   UNL     1      -7.093   5.418  72.998  1.00  0.00    -0.089 C  
HETATM    5  C   UNL     1     -10.465   7.101  72.001  1.00  0.00    -0.207 C  
HETATM    6  C   UNL     1     -11.249   7.462  70.702  1.00  0.00    -0.292 C  
HETATM    7  H   UNL     1      -6.106   3.465  72.844  1.00  0.00     0.000 HD 
HETATM    8  C   UNL     1     -11.375   6.330  69.679  1.00  0.00    -0.422 C  
HETATM    9  N   UNL     1      -6.421   4.282  72.319  1.00  0.00    -0.021 NA 
HETATM   10  C   UNL     1      -6.222   4.372  70.860  1.00  0.00    -0.018 C  
HETATM   11  N   UNL     1     -11.138   6.784  68.299  1.00  0.00    -0.515 NA 
HETATM   12  C   UNL     1      -7.363   3.713  70.068  1.00  0.00    -0.041 C  
HETATM   13  H   UNL     1     -10.487   7.568  68.271  1.00  0.00     0.000 HD 
HETATM   14  H   UNL     1      -8.988   3.340  67.471  1.00  0.00     0.000 HD 
HETATM   15  C   UNL     1      -7.392   4.070  68.570  1.00  0.00    -0.055 C  
HETATM   16  C   UNL     1     -10.687   5.676  67.433  1.00  0.00    -0.198 C  
HETATM   17  C   UNL     1      -9.163   5.396  67.509  1.00  0.00    -0.112 C  
HETATM   18  N   UNL     1      -8.793   4.110  68.110  1.00  0.00    -0.104 NA 
ENDBRANCH   1   2
BRANCH   1  19
HETATM   19  C   UNL     1      -8.149   8.312  70.167  1.00  0.00    -0.112 A  
HETATM   20  C   UNL     1      -8.705   9.441  70.743  1.00  0.00    -0.216 A  
HETATM   21  C   UNL     1      -9.179  10.407  69.893  1.00  0.00     0.097 A  
HETATM   22  C   UNL     1      -7.666   8.311  68.868  1.00  0.00    -0.102 A  
HETATM   23  C   UNL     1      -8.825  10.384  68.545  1.00  0.00    -0.142 A  
HETATM   24  C   UNL     1      -8.074   9.319  68.021  1.00  0.00    -0.104 A  
BRANCH  23  25
HETATM   25  C   UNL     1      -9.217  11.473  67.617  1.00  0.00    -0.171 C  
BRANCH  25  26
HETATM   26  N   UNL     1      -8.980  12.843  68.038  1.00  0.00    -0.190 NA 
HETATM   27  C   UNL     1      -5.629  10.253  65.123  1.00  0.00    -0.122 C  
HETATM   28  H   UNL     1      -5.881  10.034  67.179  1.00  0.00     0.000 HD 
HETATM   29  N   UNL     1      -5.455  10.689  66.523  1.00  0.00    -0.060 NA 
HETATM   30  C   UNL     1      -7.073   9.806  64.777  1.00  0.00    -0.126 C  
HETATM   31  C   UNL     1      -5.964  12.057  66.709  1.00  0.00     0.025 C  
HETATM   32  C   UNL     1      -7.582  13.265  68.323  1.00  0.00    -0.139 C  
HETATM   33  N   UNL     1      -7.760  10.693  63.836  1.00  0.00    -0.354 NA 
HETATM   34  H   UNL     1      -7.373  10.595  62.897  1.00  0.00     0.000 HD 
HETATM   35  C   UNL     1      -6.337  12.344  68.162  1.00  0.00    -0.065 C  
HETATM   36  C   UNL     1      -9.220  10.507  63.823  1.00  0.00    -0.263 C  
HETATM   37  C   UNL     1      -9.903  11.857  64.108  1.00  0.00    -0.233 C  
HETATM   38  C   UNL     1     -11.165  11.746  64.975  1.00  0.00    -0.257 C  
HETATM   39  N   UNL     1     -11.617  13.056  65.470  1.00  0.00    -0.332 NA 
HETATM   40  C   UNL     1     -11.191  13.457  66.833  1.00  0.00    -0.308 C  
HETATM   41  H   UNL     1     -12.201  13.665  64.898  1.00  0.00     0.000 HD 
HETATM   42  C   UNL     1      -9.680  13.772  67.119  1.00  0.00    -0.244 C  
ENDBRANCH  25  26
ENDBRANCH  23  25
ENDBRANCH   1  19
TORSDOF 4
ENDMDL
MODEL       75
REMARK 921   NORMALIZED FREE ENERGY PREDICTED BY IDOCK:   -3.99 KCAL/MOL
REMARK 922        TOTAL FREE ENERGY PREDICTED BY IDOCK:   -6.50 KCAL/MOL
REMARK 923 INTER-LIGAND FREE ENERGY PREDICTED BY IDOCK:   -6.19 KCAL/MOL
REMARK 924 INTRA-LIGAND FREE ENERGY PREDICTED BY IDOCK:   -0.31 KCAL/MOL
REMARK 927      BINDING AFFINITY PREDICTED BY RF-SCORE:    0.00 PKD
ROOT
HETATM    1  C   UNL     1      -9.269  16.563  66.840  1.00  0.00    -0.226 C  
ENDROOT
BRANCH   1   2
HETATM    2  N   UNL     1     -10.633  16.763  67.287  1.00  0.00    -0.306 NA 
HETATM    3  C   UNL     1     -10.910  18.216  67.342  1.00  0.00    -0.235 C  
HETATM    4  C   UNL     1     -10.558  19.011  66.037  1.00  0.00    -0.423 C  
HETATM    5  C   UNL     1     -11.078  16.053  68.523  1.00  0.00    -0.347 C  
HETATM    6  C   UNL     1     -10.207  15.057  69.349  1.00  0.00    -0.229 C  
HETATM    7  H   UNL     1      -9.700  21.030  66.019  1.00  0.00     0.000 HD 
HETATM    8  C   UNL     1      -9.076  15.695  70.160  1.00  0.00     0.566 C  
HETATM    9  N   UNL     1      -9.483  20.034  66.070  1.00  0.00    -0.362 NA 
HETATM   10  C   UNL     1      -8.089  19.564  66.180  1.00  0.00    -0.333 C  
HETATM   11  N   UNL     1      -7.816  14.941  70.066  1.00  0.00    -0.333 NA 
HETATM   12  C   UNL     1      -7.598  19.509  67.635  1.00  0.00    -0.301 C  
HETATM   13  H   UNL     1      -7.734  14.461  69.170  1.00  0.00     0.000 HD 
HETATM   14  H   UNL     1      -5.655  18.467  69.797  1.00  0.00     0.000 HD 
HETATM   15  C   UNL     1      -6.296  18.712  67.842  1.00  0.00    -0.204 C  
HETATM   16  C   UNL     1      -6.646  15.805  70.324  1.00  0.00     0.173 C  
HETATM   17  C   UNL     1      -6.161  16.599  69.081  1.00  0.00    -0.184 C  
HETATM   18  N   UNL     1      -6.337  18.053  69.162  1.00  0.00    -0.238 NA 
ENDBRANCH   1   2
BRANCH   1  19
HETATM   19  C   UNL     1      -8.813  15.166  66.572  1.00  0.00    -0.312 A  
HETATM   20  C   UNL     1      -9.713  14.195  66.169  1.00  0.00    -0.310 A  
HETATM   21  C   UNL     1      -9.441  12.901  66.532  1.00  0.00    -0.251 A  
HETATM   22  C   UNL     1      -7.504  14.859  66.910  1.00  0.00     0.238 A  
HETATM   23  C   UNL     1      -8.173  12.560  66.998  1.00  0.00    -0.125 A  
HETATM   24  C   UNL     1      -7.197  13.549  67.205  1.00  0.00    -0.006 A  
BRANCH  23  25
HETATM   25  C   UNL     1      -7.802  11.153  67.289  1.00  0.00    -0.137 C  
BRANCH  25  26
HETATM   26  N   UNL     1      -6.605  10.622  66.661  1.00  0.00    -0.093 NA 
HETATM   27  C   UNL     1      -8.299   8.919  71.207  1.00  0.00    -0.169 C  
HETATM   28  H   UNL     1      -7.260  10.695  70.880  1.00  0.00     0.000 HD 
HETATM   29  N   UNL     1      -7.071   9.694  70.937  1.00  0.00    -0.304 NA 
HETATM   30  C   UNL     1      -9.506   9.321  70.320  1.00  0.00    -0.238 C  
HETATM   31  C   UNL     1      -6.397   9.195  69.727  1.00  0.00    -0.039 C  
HETATM   32  C   UNL     1      -5.475  10.200  67.532  1.00  0.00    -0.041 C  
HETATM   33  N   UNL     1      -9.917   8.284  69.371  1.00  0.00    -0.184 NA 
HETATM   34  H   UNL     1     -10.372   7.510  69.854  1.00  0.00     0.000 HD 
HETATM   35  C   UNL     1      -5.498  10.251  69.088  1.00  0.00    -0.038 C  
HETATM   36  C   UNL     1     -10.767   8.796  68.284  1.00  0.00    -0.067 C  
HETATM   37  C   UNL     1     -10.128   8.434  66.931  1.00  0.00    -0.364 C  
HETATM   38  C   UNL     1     -10.280   9.522  65.858  1.00  0.00    -0.115 C  
HETATM   39  N   UNL     1      -9.417   9.278  64.692  1.00  0.00    -0.409 NA 
HETATM   40  C   UNL     1      -8.107   9.972  64.651  1.00  0.00    -0.155 C  
HETATM   41  H   UNL     1      -9.709   8.655  63.939  1.00  0.00     0.000 HD 
HETATM   42  C   UNL     1      -6.983   9.582  65.674  1.00  0.00    -0.092 C  
ENDBRANCH  25  26
ENDBRANCH  23  25
ENDBRANCH   1  19
TORSDOF 4
ENDMDL
MODEL       76
REMARK 921   NORMALIZED FREE ENERGY PREDICTED BY IDOCK:   -3.97 KCAL/MOL
REMARK 922        TOTAL FREE ENERGY PREDICTED BY IDOCK:   -6.48 KCAL/MOL
REMARK 923 INTER-LIGAND FREE ENERGY PREDICTED BY IDOCK:   -5.38 KCAL/MOL
REMARK 924 INTRA-LIGAND FREE ENERGY PREDICTED BY IDOCK:   -1.10 KCAL/MOL
REMARK 927      BINDING AFFINITY PREDICTED BY RF-SCORE:    0.00 PKD
ROOT
HETATM    1  C   UNL     1      -8.049  11.200  67.549  1.00  0.00    -0.119 C  
ENDROOT
BRANCH   1   2
HETATM    2  N   UNL     1      -7.290  12.422  67.727  1.00  0.00    -0.110 NA 
HETATM    3  C   UNL     1      -8.097  13.562  67.236  1.00  0.00    -0.130 C  
HETATM    4  C   UNL     1      -9.554  13.643  67.809  1.00  0.00    -0.224 C  
HETATM    5  C   UNL     1      -5.887  12.458  67.217  1.00  0.00    -0.125 C  
HETATM    6  C   UNL     1      -5.141  11.259  66.554  1.00  0.00    -0.121 C  
HETATM    7  H   UNL     1     -11.304  14.266  66.643  1.00  0.00     0.000 HD 
HETATM    8  C   UNL     1      -5.613  10.896  65.143  1.00  0.00    -0.009 C  
HETATM    9  N   UNL     1     -10.712  13.474  66.896  1.00  0.00    -0.273 NA 
HETATM   10  C   UNL     1     -10.978  12.123  66.364  1.00  0.00    -0.288 C  
HETATM   11  N   UNL     1      -5.748   9.443  64.947  1.00  0.00    -0.062 NA 
HETATM   12  C   UNL     1     -10.314  11.886  64.998  1.00  0.00    -0.330 C  
HETATM   13  H   UNL     1      -5.992   8.970  65.817  1.00  0.00     0.000 HD 
HETATM   14  H   UNL     1      -9.249   9.997  62.801  1.00  0.00     0.000 HD 
HETATM   15  C   UNL     1     -10.263  10.410  64.559  1.00  0.00    -0.210 C  
HETATM   16  C   UNL     1      -6.711   9.128  63.873  1.00  0.00    -0.089 C  
HETATM   17  C   UNL     1      -8.192   9.114  64.338  1.00  0.00    -0.158 C  
HETATM   18  N   UNL     1      -9.032  10.180  63.780  1.00  0.00    -0.223 NA 
ENDBRANCH   1   2
BRANCH   1  19
HETATM   19  C   UNL     1      -7.697  10.022  68.398  1.00  0.00    -0.084 A  
HETATM   20  C   UNL     1      -7.518   8.772  67.830  1.00  0.00    -0.093 A  
HETATM   21  C   UNL     1      -7.821   7.684  68.608  1.00  0.00    -0.121 A  
HETATM   22  C   UNL     1      -7.731  10.208  69.770  1.00  0.00    -0.176 A  
HETATM   23  C   UNL     1      -7.990   7.835  69.983  1.00  0.00    -0.113 A  
HETATM   24  C   UNL     1      -7.961   9.110  70.571  1.00  0.00    -0.170 A  
BRANCH  23  25
HETATM   25  C   UNL     1      -8.202   6.668  70.875  1.00  0.00    -0.124 C  
BRANCH  25  26
HETATM   26  N   UNL     1      -9.148   6.811  71.967  1.00  0.00    -0.139 NA 
HETATM   27  C   UNL     1     -10.535   4.991  67.363  1.00  0.00    -0.054 C  
HETATM   28  H   UNL     1     -10.218   6.995  67.838  1.00  0.00     0.000 HD 
HETATM   29  N   UNL     1     -10.927   6.275  67.979  1.00  0.00    -0.331 NA 
HETATM   30  C   UNL     1      -9.077   4.563  67.674  1.00  0.00    -0.122 C  
HETATM   31  C   UNL     1     -11.244   6.092  69.404  1.00  0.00    -0.396 C  
HETATM   32  C   UNL     1     -10.553   7.179  71.645  1.00  0.00    -0.207 C  
HETATM   33  N   UNL     1      -8.976   3.370  68.518  1.00  0.00    -0.120 NA 
HETATM   34  H   UNL     1      -9.241   2.534  67.997  1.00  0.00     0.000 HD 
HETATM   35  C   UNL     1     -11.097   7.387  70.201  1.00  0.00    -0.265 C  
HETATM   36  C   UNL     1      -7.649   3.205  69.133  1.00  0.00    -0.048 C  
HETATM   37  C   UNL     1      -7.811   3.100  70.660  1.00  0.00    -0.044 C  
HETATM   38  C   UNL     1      -6.697   3.796  71.454  1.00  0.00    -0.027 C  
HETATM   39  N   UNL     1      -7.032   3.933  72.880  1.00  0.00    -0.050 NA 
HETATM   40  C   UNL     1      -7.617   5.221  73.327  1.00  0.00    -0.096 C  
HETATM   41  H   UNL     1      -6.869   3.170  73.538  1.00  0.00     0.000 HD 
HETATM   42  C   UNL     1      -9.058   5.629  72.858  1.00  0.00    -0.125 C  
ENDBRANCH  25  26
ENDBRANCH  23  25
ENDBRANCH   1  19
TORSDOF 4
ENDMDL
MODEL       77
REMARK 921   NORMALIZED FREE ENERGY PREDICTED BY IDOCK:   -3.96 KCAL/MOL
REMARK 922        TOTAL FREE ENERGY PREDICTED BY IDOCK:   -6.47 KCAL/MOL
REMARK 923 INTER-LIGAND FREE ENERGY PREDICTED BY IDOCK:   -5.57 KCAL/MOL
REMARK 924 INTRA-LIGAND FREE ENERGY PREDICTED BY IDOCK:   -0.90 KCAL/MOL
REMARK 927      BINDING AFFINITY PREDICTED BY RF-SCORE:    0.00 PKD
ROOT
HETATM    1  C   UNL     1      -9.621  13.971  67.775  1.00  0.00    -0.216 C  
ENDROOT
BRANCH   1   2
HETATM    2  N   UNL     1     -10.042  14.275  69.129  1.00  0.00    -0.123 NA 
HETATM    3  C   UNL     1     -11.321  13.582  69.399  1.00  0.00    -0.233 C  
HETATM    4  C   UNL     1     -11.330  12.048  69.072  1.00  0.00    -0.275 C  
HETATM    5  C   UNL     1     -10.072  15.707  69.549  1.00  0.00    -0.277 C  
HETATM    6  C   UNL     1      -9.628  16.913  68.665  1.00  0.00    -0.265 C  
HETATM    7  H   UNL     1     -13.042  10.983  68.207  1.00  0.00     0.000 HD 
HETATM    8  C   UNL     1     -10.576  17.262  67.515  1.00  0.00    -0.329 C  
HETATM    9  N   UNL     1     -12.210  11.534  67.992  1.00  0.00    -0.476 NA 
HETATM   10  C   UNL     1     -11.843  11.846  66.598  1.00  0.00    -0.067 C  
HETATM   11  N   UNL     1      -9.863  17.548  66.259  1.00  0.00    -0.389 NA 
HETATM   12  C   UNL     1     -12.535  13.115  66.076  1.00  0.00    -0.330 C  
HETATM   13  H   UNL     1      -8.990  17.023  66.199  1.00  0.00     0.000 HD 
HETATM   14  H   UNL     1     -12.721  15.473  64.092  1.00  0.00     0.000 HD 
HETATM   15  C   UNL     1     -11.938  13.681  64.773  1.00  0.00    -0.396 C  
HETATM   16  C   UNL     1     -10.720  17.307  65.081  1.00  0.00     0.064 C  
HETATM   17  C   UNL     1     -10.757  15.825  64.620  1.00  0.00    -0.109 C  
HETATM   18  N   UNL     1     -12.049  15.151  64.788  1.00  0.00    -0.261 NA 
ENDBRANCH   1   2
BRANCH   1  19
HETATM   19  C   UNL     1      -8.666  12.840  67.571  1.00  0.00    -0.185 A  
HETATM   20  C   UNL     1      -8.597  12.187  66.353  1.00  0.00    -0.002 A  
HETATM   21  C   UNL     1      -8.238  10.864  66.374  1.00  0.00    -0.163 A  
HETATM   22  C   UNL     1      -7.996  12.378  68.692  1.00  0.00    -0.041 A  
HETATM   23  C   UNL     1      -7.671  10.313  67.521  1.00  0.00    -0.094 A  
HETATM   24  C   UNL     1      -7.562  11.070  68.699  1.00  0.00    -0.124 A  
BRANCH  23  25
HETATM   25  C   UNL     1      -7.161   8.920  67.547  1.00  0.00    -0.076 C  
BRANCH  25  26
HETATM   26  N   UNL     1      -5.734   8.721  67.732  1.00  0.00    -0.039 NA 
HETATM   27  C   UNL     1      -9.237   5.848  70.163  1.00  0.00    -0.153 C  
HETATM   28  H   UNL     1      -8.680   7.787  70.679  1.00  0.00     0.000 HD 
HETATM   29  N   UNL     1      -8.316   6.838  70.757  1.00  0.00    -0.127 NA 
HETATM   30  C   UNL     1      -9.771   6.245  68.762  1.00  0.00    -0.128 C  
HETATM   31  C   UNL     1      -6.973   6.717  70.167  1.00  0.00    -0.066 C  
HETATM   32  C   UNL     1      -5.245   8.297  69.072  1.00  0.00    -0.027 C  
HETATM   33  N   UNL     1      -9.291   5.387  67.677  1.00  0.00    -0.113 NA 
HETATM   34  H   UNL     1      -9.730   4.468  67.720  1.00  0.00     0.000 HD 
HETATM   35  C   UNL     1      -6.168   8.009  70.293  1.00  0.00    -0.032 C  
HETATM   36  C   UNL     1      -9.460   5.987  66.344  1.00  0.00    -0.150 C  
HETATM   37  C   UNL     1      -8.096   6.024  65.631  1.00  0.00    -0.126 C  
HETATM   38  C   UNL     1      -7.871   7.281  64.780  1.00  0.00    -0.126 C  
HETATM   39  N   UNL     1      -6.469   7.426  64.360  1.00  0.00    -0.040 NA 
HETATM   40  C   UNL     1      -5.595   8.301  65.178  1.00  0.00    -0.044 C  
HETATM   41  H   UNL     1      -6.110   6.942  63.536  1.00  0.00     0.000 HD 
HETATM   42  C   UNL     1      -5.206   7.873  66.637  1.00  0.00    -0.028 C  
ENDBRANCH  25  26
ENDBRANCH  23  25
ENDBRANCH   1  19
TORSDOF 4
ENDMDL
MODEL       78
REMARK 921   NORMALIZED FREE ENERGY PREDICTED BY IDOCK:   -3.95 KCAL/MOL
REMARK 922        TOTAL FREE ENERGY PREDICTED BY IDOCK:   -6.46 KCAL/MOL
REMARK 923 INTER-LIGAND FREE ENERGY PREDICTED BY IDOCK:   -4.95 KCAL/MOL
REMARK 924 INTRA-LIGAND FREE ENERGY PREDICTED BY IDOCK:   -1.50 KCAL/MOL
REMARK 927      BINDING AFFINITY PREDICTED BY RF-SCORE:    0.00 PKD
ROOT
HETATM    1  C   UNL     1     -10.731  12.952  67.208  1.00  0.00    -0.245 C  
ENDROOT
BRANCH   1   2
HETATM    2  N   UNL     1     -12.116  12.847  67.627  1.00  0.00    -0.307 NA 
HETATM    3  C   UNL     1     -12.974  13.487  66.605  1.00  0.00     0.905 C  
HETATM    4  C   UNL     1     -12.729  13.005  65.133  1.00  0.00    -0.397 C  
HETATM    5  C   UNL     1     -12.464  13.279  69.013  1.00  0.00     0.278 C  
HETATM    6  C   UNL     1     -11.444  13.784  70.080  1.00  0.00    -0.188 C  
HETATM    7  H   UNL     1     -12.801  14.321  63.380  1.00  0.00     0.000 HD 
HETATM    8  C   UNL     1     -10.867  15.179  69.823  1.00  0.00    -0.284 C  
HETATM    9  N   UNL     1     -12.205  13.963  64.127  1.00  0.00    -0.613 NA 
HETATM   10  C   UNL     1     -10.795  14.379  64.243  1.00  0.00     0.098 C  
HETATM   11  N   UNL     1      -9.417  15.246  70.065  1.00  0.00    -0.427 NA 
HETATM   12  C   UNL     1     -10.628  15.678  65.048  1.00  0.00    -0.422 C  
HETATM   13  H   UNL     1      -8.966  14.350  69.878  1.00  0.00     0.000 HD 
HETATM   14  H   UNL     1      -8.906  17.626  66.711  1.00  0.00     0.000 HD 
HETATM   15  C   UNL     1      -9.184  15.973  65.494  1.00  0.00     0.168 C  
HETATM   16  C   UNL     1      -8.788  16.338  69.294  1.00  0.00    -0.156 C  
HETATM   17  C   UNL     1      -8.437  15.957  67.831  1.00  0.00    -0.161 C  
HETATM   18  N   UNL     1      -9.212  16.658  66.801  1.00  0.00    -0.227 NA 
ENDBRANCH   1   2
BRANCH   1  19
HETATM   19  C   UNL     1      -9.859  11.747  67.349  1.00  0.00    -0.189 A  
HETATM   20  C   UNL     1      -9.998  10.672  66.489  1.00  0.00    -0.265 A  
HETATM   21  C   UNL     1      -9.688   9.431  66.984  1.00  0.00    -0.233 A  
HETATM   22  C   UNL     1      -9.044  11.693  68.468  1.00  0.00    -0.157 A  
HETATM   23  C   UNL     1      -8.974   9.315  68.175  1.00  0.00    -0.128 A  
HETATM   24  C   UNL     1      -8.662  10.454  68.936  1.00  0.00    -0.157 A  
BRANCH  23  25
HETATM   25  C   UNL     1      -8.517   7.999  68.685  1.00  0.00    -0.128 C  
BRANCH  25  26
HETATM   26  N   UNL     1      -8.992   7.572  69.989  1.00  0.00    -0.144 NA 
HETATM   27  C   UNL     1      -9.727   4.757  65.750  1.00  0.00    -0.188 C  
HETATM   28  H   UNL     1     -10.814   6.449  66.294  1.00  0.00     0.000 HD 
HETATM   29  N   UNL     1     -10.749   5.463  66.549  1.00  0.00    -0.297 NA 
HETATM   30  C   UNL     1      -8.376   5.512  65.645  1.00  0.00    -0.133 C  
HETATM   31  C   UNL     1     -10.495   5.287  67.988  1.00  0.00    -0.074 C  
HETATM   32  C   UNL     1     -10.268   6.811  70.064  1.00  0.00    -0.191 C  
HETATM   33  N   UNL     1      -7.269   4.845  66.333  1.00  0.00    -0.075 NA 
HETATM   34  H   UNL     1      -6.981   4.007  65.829  1.00  0.00     0.000 HD 
HETATM   35  C   UNL     1     -11.120   6.400  68.827  1.00  0.00    -0.404 C  
HETATM   36  C   UNL     1      -6.119   5.731  66.577  1.00  0.00    -0.026 C  
HETATM   37  C   UNL     1      -5.792   5.731  68.081  1.00  0.00    -0.013 C  
HETATM   38  C   UNL     1      -5.350   7.097  68.624  1.00  0.00    -0.018 C  
HETATM   39  N   UNL     1      -5.333   7.133  70.094  1.00  0.00    -0.022 NA 
HETATM   40  C   UNL     1      -6.526   7.687  70.780  1.00  0.00    -0.038 C  
HETATM   41  H   UNL     1      -4.531   6.790  70.623  1.00  0.00     0.000 HD 
HETATM   42  C   UNL     1      -7.889   6.911  70.726  1.00  0.00    -0.097 C  
ENDBRANCH  25  26
ENDBRANCH  23  25
ENDBRANCH   1  19
TORSDOF 4
ENDMDL
MODEL       79
REMARK 921   NORMALIZED FREE ENERGY PREDICTED BY IDOCK:   -3.92 KCAL/MOL
REMARK 922        TOTAL FREE ENERGY PREDICTED BY IDOCK:   -6.42 KCAL/MOL
REMARK 923 INTER-LIGAND FREE ENERGY PREDICTED BY IDOCK:   -4.99 KCAL/MOL
REMARK 924 INTRA-LIGAND FREE ENERGY PREDICTED BY IDOCK:   -1.42 KCAL/MOL
REMARK 927      BINDING AFFINITY PREDICTED BY RF-SCORE:    0.00 PKD
ROOT
HETATM    1  C   UNL     1      -7.531   5.152  72.179  1.00  0.00    -0.093 C  
ENDROOT
BRANCH   1   2
HETATM    2  N   UNL     1      -6.459   5.524  73.082  1.00  0.00    -0.064 NA 
HETATM    3  C   UNL     1      -6.386   4.528  74.174  1.00  0.00    -0.051 C  
HETATM    4  C   UNL     1      -6.319   3.032  73.709  1.00  0.00    -0.023 C  
HETATM    5  C   UNL     1      -6.424   6.927  73.589  1.00  0.00    -0.067 C  
HETATM    6  C   UNL     1      -7.421   8.056  73.180  1.00  0.00    -0.171 C  
HETATM    7  H   UNL     1      -7.330   1.377  74.734  1.00  0.00     0.000 HD 
HETATM    8  C   UNL     1      -8.834   7.916  73.751  1.00  0.00    -0.271 C  
HETATM    9  N   UNL     1      -7.438   2.113  74.035  1.00  0.00    -0.033 NA 
HETATM   10  C   UNL     1      -8.712   2.297  73.315  1.00  0.00    -0.070 C  
HETATM   11  N   UNL     1      -9.879   8.202  72.755  1.00  0.00    -0.278 NA 
HETATM   12  C   UNL     1      -9.696   3.199  74.079  1.00  0.00    -0.137 C  
HETATM   13  H   UNL     1      -9.571   7.963  71.812  1.00  0.00     0.000 HD 
HETATM   14  H   UNL     1     -12.168   5.046  74.159  1.00  0.00     0.000 HD 
HETATM   15  C   UNL     1     -10.884   3.705  73.240  1.00  0.00    -0.193 C  
HETATM   16  C   UNL     1     -11.150   7.530  73.093  1.00  0.00    -0.326 C  
HETATM   17  C   UNL     1     -11.228   6.054  72.622  1.00  0.00    -0.285 C  
HETATM   18  N   UNL     1     -11.259   5.056  73.697  1.00  0.00    -0.277 NA 
ENDBRANCH   1   2
BRANCH   1  19
HETATM   19  C   UNL     1      -7.278   5.239  70.710  1.00  0.00    -0.065 A  
HETATM   20  C   UNL     1      -7.064   6.464  70.102  1.00  0.00    -0.074 A  
HETATM   21  C   UNL     1      -7.454   6.589  68.794  1.00  0.00    -0.088 A  
HETATM   22  C   UNL     1      -7.439   4.073  69.977  1.00  0.00    -0.045 A  
HETATM   23  C   UNL     1      -7.750   5.453  68.043  1.00  0.00    -0.091 A  
HETATM   24  C   UNL     1      -7.759   4.182  68.641  1.00  0.00    -0.062 A  
BRANCH  23  25
HETATM   25  C   UNL     1      -8.062   5.535  66.594  1.00  0.00    -0.105 C  
BRANCH  25  26
HETATM   26  N   UNL     1      -9.223   4.812  66.107  1.00  0.00    -0.137 NA 
HETATM   27  C   UNL     1      -9.329   9.872  67.014  1.00  0.00    -0.147 C  
HETATM   28  H   UNL     1      -9.435   8.372  68.455  1.00  0.00     0.000 HD 
HETATM   29  N   UNL     1     -10.036   8.810  67.757  1.00  0.00    -0.195 NA 
HETATM   30  C   UNL     1      -7.918   9.462  66.518  1.00  0.00    -0.108 C  
HETATM   31  C   UNL     1     -10.607   7.819  66.830  1.00  0.00    -0.277 C  
HETATM   32  C   UNL     1     -10.572   5.249  66.559  1.00  0.00    -0.285 C  
HETATM   33  N   UNL     1      -7.807   9.358  65.061  1.00  0.00    -0.111 NA 
HETATM   34  H   UNL     1      -7.825  10.282  64.630  1.00  0.00     0.000 HD 
HETATM   35  C   UNL     1     -10.833   6.464  67.498  1.00  0.00    -0.438 C  
HETATM   36  C   UNL     1      -6.626   8.598  64.622  1.00  0.00    -0.066 C  
HETATM   37  C   UNL     1      -7.081   7.444  63.709  1.00  0.00    -0.066 C  
HETATM   38  C   UNL     1      -6.278   6.149  63.895  1.00  0.00    -0.029 C  
HETATM   39  N   UNL     1      -6.917   4.999  63.237  1.00  0.00    -0.041 NA 
HETATM   40  C   UNL     1      -7.776   4.123  64.070  1.00  0.00    -0.083 C  
HETATM   41  H   UNL     1      -6.775   4.810  62.244  1.00  0.00     0.000 HD 
HETATM   42  C   UNL     1      -9.135   4.668  64.634  1.00  0.00    -0.141 C  
ENDBRANCH  25  26
ENDBRANCH  23  25
ENDBRANCH   1  19
TORSDOF 4
ENDMDL
MODEL       80
REMARK 921   NORMALIZED FREE ENERGY PREDICTED BY IDOCK:   -3.75 KCAL/MOL
REMARK 922        TOTAL FREE ENERGY PREDICTED BY IDOCK:   -6.21 KCAL/MOL
REMARK 923 INTER-LIGAND FREE ENERGY PREDICTED BY IDOCK:   -5.84 KCAL/MOL
REMARK 924 INTRA-LIGAND FREE ENERGY PREDICTED BY IDOCK:   -0.37 KCAL/MOL
REMARK 927      BINDING AFFINITY PREDICTED BY RF-SCORE:    0.00 PKD
ROOT
HETATM    1  C   UNL     1     -10.445  11.342  66.977  1.00  0.00    -0.236 C  
ENDROOT
BRANCH   1   2
HETATM    2  N   UNL     1     -11.678  11.438  67.734  1.00  0.00    -0.590 NA 
HETATM    3  C   UNL     1     -11.973  12.866  67.988  1.00  0.00    -0.275 C  
HETATM    4  C   UNL     1     -11.946  13.788  66.719  1.00  0.00    -0.426 C  
HETATM    5  C   UNL     1     -11.812  10.603  68.964  1.00  0.00    -0.185 C  
HETATM    6  C   UNL     1     -10.752   9.581  69.477  1.00  0.00    -0.246 C  
HETATM    7  H   UNL     1     -11.169  15.838  66.704  1.00  0.00     0.000 HD 
HETATM    8  C   UNL     1      -9.484  10.200  70.073  1.00  0.00    -0.036 C  
HETATM    9  N   UNL     1     -10.919  14.854  66.610  1.00  0.00    -0.321 NA 
HETATM   10  C   UNL     1      -9.525  14.442  66.361  1.00  0.00    -0.285 C  
HETATM   11  N   UNL     1      -8.258   9.517  69.630  1.00  0.00    -0.125 NA 
HETATM   12  C   UNL     1      -8.716  14.284  67.659  1.00  0.00    -0.192 C  
HETATM   13  H   UNL     1      -8.368   9.121  68.696  1.00  0.00     0.000 HD 
HETATM   14  H   UNL     1      -6.309  13.152  69.224  1.00  0.00     0.000 HD 
HETATM   15  C   UNL     1      -7.381  13.535  67.494  1.00  0.00    -0.164 C  
HETATM   16  C   UNL     1      -7.084  10.410  69.702  1.00  0.00    -0.135 C  
HETATM   17  C   UNL     1      -6.914  11.331  68.464  1.00  0.00    -0.078 C  
HETATM   18  N   UNL     1      -7.105  12.762  68.720  1.00  0.00    -0.096 NA 
ENDBRANCH   1   2
BRANCH   1  19
HETATM   19  C   UNL     1     -10.154  10.063  66.262  1.00  0.00    -0.310 A  
HETATM   20  C   UNL     1     -10.541   8.849  66.803  1.00  0.00    -0.212 A  
HETATM   21  C   UNL     1      -9.767   7.757  66.506  1.00  0.00    -0.265 A  
HETATM   22  C   UNL     1      -9.340  10.143  65.144  1.00  0.00    -0.290 A  
HETATM   23  C   UNL     1      -8.841   7.822  65.467  1.00  0.00    -0.048 A  
HETATM   24  C   UNL     1      -8.611   9.029  64.787  1.00  0.00    -0.201 A  
BRANCH  23  25
HETATM   25  C   UNL     1      -8.069   6.630  65.036  1.00  0.00    -0.124 C  
BRANCH  25  26
HETATM   26  N   UNL     1      -6.671   6.815  64.689  1.00  0.00    -0.042 NA 
HETATM   27  C   UNL     1      -8.143   5.092  69.304  1.00  0.00    -0.084 C  
HETATM   28  H   UNL     1      -8.202   7.074  68.666  1.00  0.00     0.000 HD 
HETATM   29  N   UNL     1      -7.516   6.391  68.987  1.00  0.00    -0.092 NA 
HETATM   30  C   UNL     1      -9.132   4.589  68.221  1.00  0.00    -0.124 C  
HETATM   31  C   UNL     1      -6.424   6.217  68.015  1.00  0.00    -0.052 C  
HETATM   32  C   UNL     1      -5.729   7.256  65.753  1.00  0.00    -0.036 C  
HETATM   33  N   UNL     1      -8.679   3.388  67.515  1.00  0.00    -0.107 NA 
HETATM   34  H   UNL     1      -8.733   2.569  68.121  1.00  0.00     0.000 HD 
HETATM   35  C   UNL     1      -6.131   7.499  67.237  1.00  0.00    -0.047 C  
HETATM   36  C   UNL     1      -9.396   3.152  66.252  1.00  0.00    -0.097 C  
HETATM   37  C   UNL     1      -8.374   3.048  65.105  1.00  0.00    -0.096 C  
HETATM   38  C   UNL     1      -8.846   3.683  63.789  1.00  0.00    -0.097 C  
HETATM   39  N   UNL     1      -7.752   3.828  62.817  1.00  0.00    -0.058 NA 
HETATM   40  C   UNL     1      -7.067   5.142  62.749  1.00  0.00    -0.038 C  
HETATM   41  H   UNL     1      -7.474   3.055  62.212  1.00  0.00     0.000 HD 
HETATM   42  C   UNL     1      -6.181   5.626  63.951  1.00  0.00    -0.025 C  
ENDBRANCH  25  26
ENDBRANCH  23  25
ENDBRANCH   1  19
TORSDOF 4
ENDMDL
MODEL       81
REMARK 921   NORMALIZED FREE ENERGY PREDICTED BY IDOCK:   -3.71 KCAL/MOL
REMARK 922        TOTAL FREE ENERGY PREDICTED BY IDOCK:   -6.16 KCAL/MOL
REMARK 923 INTER-LIGAND FREE ENERGY PREDICTED BY IDOCK:   -5.24 KCAL/MOL
REMARK 924 INTRA-LIGAND FREE ENERGY PREDICTED BY IDOCK:   -0.91 KCAL/MOL
REMARK 927      BINDING AFFINITY PREDICTED BY RF-SCORE:    0.00 PKD
ROOT
HETATM    1  C   UNL     1     -10.076  12.356  66.361  1.00  0.00    -0.236 C  
ENDROOT
BRANCH   1   2
HETATM    2  N   UNL     1     -11.506  12.535  66.523  1.00  0.00    -0.341 NA 
HETATM    3  C   UNL     1     -12.007  11.530  67.488  1.00  0.00     0.086 C  
HETATM    4  C   UNL     1     -11.227  11.466  68.848  1.00  0.00    -0.248 C  
HETATM    5  C   UNL     1     -12.348  12.609  65.293  1.00  0.00    -0.466 C  
HETATM    6  C   UNL     1     -11.807  12.570  63.830  1.00  0.00    -0.577 C  
HETATM    7  H   UNL     1     -10.795   9.609  69.931  1.00  0.00     0.000 HD 
HETATM    8  C   UNL     1     -11.295  11.206  63.360  1.00  0.00     0.294 C  
HETATM    9  N   UNL     1     -10.468  10.240  69.199  1.00  0.00    -0.209 NA 
HETATM   10  C   UNL     1      -9.225   9.963  68.454  1.00  0.00    -0.130 C  
HETATM   11  N   UNL     1     -10.030  11.302  62.614  1.00  0.00    -0.606 NA 
HETATM   12  C   UNL     1      -9.457   9.047  67.241  1.00  0.00    -0.189 C  
HETATM   13  H   UNL     1      -9.469  12.093  62.931  1.00  0.00     0.000 HD 
HETATM   14  H   UNL     1      -8.587   7.909  64.506  1.00  0.00     0.000 HD 
HETATM   15  C   UNL     1      -8.287   9.002  66.240  1.00  0.00    -0.120 C  
HETATM   16  C   UNL     1      -9.266  10.040  62.677  1.00  0.00    -0.295 C  
HETATM   17  C   UNL     1      -8.399   9.890  63.955  1.00  0.00    -0.168 C  
HETATM   18  N   UNL     1      -8.823   8.829  64.876  1.00  0.00    -0.130 NA 
ENDBRANCH   1   2
BRANCH   1  19
HETATM   19  C   UNL     1      -9.202  13.566  66.430  1.00  0.00    -0.136 A  
HETATM   20  C   UNL     1      -8.125  13.609  67.299  1.00  0.00    -0.152 A  
HETATM   21  C   UNL     1      -7.767  14.839  67.789  1.00  0.00    -0.170 A  
HETATM   22  C   UNL     1      -9.621  14.681  65.723  1.00  0.00    -0.266 A  
HETATM   23  C   UNL     1      -8.260  15.997  67.192  1.00  0.00    -0.226 A  
HETATM   24  C   UNL     1      -9.209  15.922  66.159  1.00  0.00    -0.384 A  
BRANCH  23  25
HETATM   25  C   UNL     1      -7.806  17.345  67.614  1.00  0.00    -0.191 C  
BRANCH  25  26
HETATM   26  N   UNL     1      -7.497  17.549  69.019  1.00  0.00    -0.223 NA 
HETATM   27  C   UNL     1      -6.024  20.870  65.381  1.00  0.00    -0.245 C  
HETATM   28  H   UNL     1      -5.115  19.044  65.806  1.00  0.00     0.000 HD 
HETATM   29  N   UNL     1      -5.164  19.986  66.194  1.00  0.00    -0.164 NA 
HETATM   30  C   UNL     1      -7.384  20.237  64.987  1.00  0.00     0.167 C  
HETATM   31  C   UNL     1      -5.609  19.977  67.597  1.00  0.00    -0.183 C  
HETATM   32  C   UNL     1      -6.206  18.198  69.374  1.00  0.00    -0.251 C  
HETATM   33  N   UNL     1      -8.541  20.880  65.615  1.00  0.00     0.376 NA 
HETATM   34  H   UNL     1      -8.711  21.799  65.207  1.00  0.00     0.000 HD 
HETATM   35  C   UNL     1      -5.168  18.715  68.336  1.00  0.00    -0.174 C  
HETATM   36  C   UNL     1      -9.758  20.054  65.570  1.00  0.00     0.144 C  
HETATM   37  C   UNL     1     -10.294  19.867  67.001  1.00  0.00    -0.592 C  
HETATM   38  C   UNL     1     -10.880  18.474  67.271  1.00  0.00    -0.282 C  
HETATM   39  N   UNL     1     -11.106  18.234  68.704  1.00  0.00     0.120 NA 
HETATM   40  C   UNL     1     -10.053  17.504  69.451  1.00  0.00    -0.053 C  
HETATM   41  H   UNL     1     -11.956  18.556  69.168  1.00  0.00     0.000 HD 
HETATM   42  C   UNL     1      -8.657  18.179  69.694  1.00  0.00     0.978 C  
ENDBRANCH  25  26
ENDBRANCH  23  25
ENDBRANCH   1  19
TORSDOF 4
ENDMDL
MODEL       82
REMARK 921   NORMALIZED FREE ENERGY PREDICTED BY IDOCK:   -3.70 KCAL/MOL
REMARK 922        TOTAL FREE ENERGY PREDICTED BY IDOCK:   -6.14 KCAL/MOL
REMARK 923 INTER-LIGAND FREE ENERGY PREDICTED BY IDOCK:   -4.80 KCAL/MOL
REMARK 924 INTRA-LIGAND FREE ENERGY PREDICTED BY IDOCK:   -1.34 KCAL/MOL
REMARK 927      BINDING AFFINITY PREDICTED BY RF-SCORE:    0.00 PKD
ROOT
HETATM    1  C   UNL     1      -7.877  10.829  67.085  1.00  0.00    -0.124 C  
ENDROOT
BRANCH   1   2
HETATM    2  N   UNL     1      -6.543  11.397  67.112  1.00  0.00    -0.106 NA 
HETATM    3  C   UNL     1      -6.651  12.865  67.264  1.00  0.00    -0.037 C  
HETATM    4  C   UNL     1      -7.560  13.347  68.449  1.00  0.00    -0.133 C  
HETATM    5  C   UNL     1      -5.592  11.007  66.029  1.00  0.00    -0.143 C  
HETATM    6  C   UNL     1      -5.896   9.983  64.892  1.00  0.00    -0.104 C  
HETATM    7  H   UNL     1      -8.882  15.094  68.354  1.00  0.00     0.000 HD 
HETATM    8  C   UNL     1      -6.871  10.472  63.818  1.00  0.00     0.102 C  
HETATM    9  N   UNL     1      -8.808  14.095  68.157  1.00  0.00    -0.176 NA 
HETATM   10  C   UNL     1      -9.937  13.348  67.573  1.00  0.00    -0.230 C  
HETATM   11  N   UNL     1      -7.862   9.450  63.445  1.00  0.00    -0.126 NA 
HETATM   12  C   UNL     1      -9.956  13.414  66.037  1.00  0.00    -0.300 C  
HETATM   13  H   UNL     1      -8.070   8.829  64.227  1.00  0.00     0.000 HD 
HETATM   14  H   UNL     1     -10.851  12.317  63.294  1.00  0.00     0.000 HD 
HETATM   15  C   UNL     1     -10.888  12.389  65.364  1.00  0.00    -0.285 C  
HETATM   16  C   UNL     1      -9.091  10.060  62.899  1.00  0.00    -0.286 C  
HETATM   17  C   UNL     1     -10.103  10.520  63.982  1.00  0.00    -0.251 C  
HETATM   18  N   UNL     1     -10.298  11.971  64.078  1.00  0.00    -0.340 NA 
ENDBRANCH   1   2
BRANCH   1  19
HETATM   19  C   UNL     1      -8.156   9.644  67.951  1.00  0.00    -0.106 A  
HETATM   20  C   UNL     1      -8.969   9.761  69.065  1.00  0.00    -0.154 A  
HETATM   21  C   UNL     1      -8.710   8.921  70.118  1.00  0.00    -0.168 A  
HETATM   22  C   UNL     1      -7.434   8.491  67.686  1.00  0.00    -0.094 A  
HETATM   23  C   UNL     1      -7.888   7.811  69.938  1.00  0.00    -0.105 A  
HETATM   24  C   UNL     1      -7.229   7.600  68.716  1.00  0.00    -0.082 A  
BRANCH  23  25
HETATM   25  C   UNL     1      -7.677   6.813  71.017  1.00  0.00    -0.097 C  
BRANCH  25  26
HETATM   26  N   UNL     1      -6.710   7.128  72.054  1.00  0.00    -0.056 NA 
HETATM   27  C   UNL     1     -11.390   5.294  73.136  1.00  0.00    -0.291 C  
HETATM   28  H   UNL     1     -10.942   7.259  72.610  1.00  0.00     0.000 HD 
HETATM   29  N   UNL     1     -10.865   6.645  73.421  1.00  0.00    -0.270 NA 
HETATM   30  C   UNL     1     -10.894   4.695  71.795  1.00  0.00     0.189 C  
HETATM   31  C   UNL     1      -9.482   6.570  73.920  1.00  0.00    -0.177 C  
HETATM   32  C   UNL     1      -7.209   7.660  73.350  1.00  0.00    -0.090 C  
HETATM   33  N   UNL     1     -10.009   3.539  71.951  1.00  0.00    -0.164 NA 
HETATM   34  H   UNL     1     -10.532   2.721  72.265  1.00  0.00     0.000 HD 
HETATM   35  C   UNL     1      -8.714   7.870  73.693  1.00  0.00    -0.329 C  
HETATM   36  C   UNL     1      -9.235   3.232  70.738  1.00  0.00    -0.138 C  
HETATM   37  C   UNL     1      -7.735   3.219  71.086  1.00  0.00    -0.050 C  
HETATM   38  C   UNL     1      -6.835   3.801  69.987  1.00  0.00    -0.034 C  
HETATM   39  N   UNL     1      -5.464   4.045  70.462  1.00  0.00    -0.011 NA 
HETATM   40  C   UNL     1      -5.130   5.417  70.916  1.00  0.00    -0.005 C  
HETATM   41  H   UNL     1      -4.769   3.299  70.478  1.00  0.00     0.000 HD 
HETATM   42  C   UNL     1      -5.780   5.987  72.226  1.00  0.00    -0.032 C  
ENDBRANCH  25  26
ENDBRANCH  23  25
ENDBRANCH   1  19
TORSDOF 4
ENDMDL
MODEL       83
REMARK 921   NORMALIZED FREE ENERGY PREDICTED BY IDOCK:   -3.67 KCAL/MOL
REMARK 922        TOTAL FREE ENERGY PREDICTED BY IDOCK:   -6.11 KCAL/MOL
REMARK 923 INTER-LIGAND FREE ENERGY PREDICTED BY IDOCK:   -5.19 KCAL/MOL
REMARK 924 INTRA-LIGAND FREE ENERGY PREDICTED BY IDOCK:   -0.92 KCAL/MOL
REMARK 927      BINDING AFFINITY PREDICTED BY RF-SCORE:    0.00 PKD
ROOT
HETATM    1  C   UNL     1      -9.650   7.044  70.509  1.00  0.00    -0.169 C  
ENDROOT
BRANCH   1   2
HETATM    2  N   UNL     1     -10.590   6.437  69.587  1.00  0.00    -0.228 NA 
HETATM    3  C   UNL     1     -11.875   6.219  70.289  1.00  0.00    -0.086 C  
HETATM    4  C   UNL     1     -12.450   7.476  71.030  1.00  0.00    -0.212 C  
HETATM    5  C   UNL     1     -10.147   5.231  68.827  1.00  0.00    -0.177 C  
HETATM    6  C   UNL     1      -8.724   4.598  68.896  1.00  0.00    -0.110 C  
HETATM    7  H   UNL     1     -13.477   7.400  72.967  1.00  0.00     0.000 HD 
HETATM    8  C   UNL     1      -8.401   3.857  70.197  1.00  0.00    -0.060 C  
HETATM    9  N   UNL     1     -12.567   7.464  72.510  1.00  0.00     0.081 NA 
HETATM   10  C   UNL     1     -11.323   7.548  73.299  1.00  0.00    -0.032 C  
HETATM   11  N   UNL     1      -7.049   4.154  70.698  1.00  0.00    -0.037 NA 
HETATM   12  C   UNL     1     -10.774   6.165  73.683  1.00  0.00    -0.234 C  
HETATM   13  H   UNL     1      -6.753   5.094  70.436  1.00  0.00     0.000 HD 
HETATM   14  H   UNL     1      -8.465   4.328  74.589  1.00  0.00     0.000 HD 
HETATM   15  C   UNL     1      -9.322   6.172  74.196  1.00  0.00    -0.147 C  
HETATM   16  C   UNL     1      -6.954   3.945  72.157  1.00  0.00    -0.049 C  
HETATM   17  C   UNL     1      -7.437   5.154  73.001  1.00  0.00    -0.096 C  
HETATM   18  N   UNL     1      -8.656   4.922  73.783  1.00  0.00    -0.104 NA 
ENDBRANCH   1   2
BRANCH   1  19
HETATM   19  C   UNL     1      -9.287   8.479  70.303  1.00  0.00    -0.171 A  
HETATM   20  C   UNL     1     -10.233   9.390  69.866  1.00  0.00    -0.247 A  
HETATM   21  C   UNL     1      -9.784  10.447  69.118  1.00  0.00    -0.234 A  
HETATM   22  C   UNL     1      -7.943   8.804  70.399  1.00  0.00    -0.113 A  
HETATM   23  C   UNL     1      -8.423  10.746  69.079  1.00  0.00    -0.137 A  
HETATM   24  C   UNL     1      -7.489   9.909  69.712  1.00  0.00    -0.140 A  
BRANCH  23  25
HETATM   25  C   UNL     1      -7.908  11.948  68.379  1.00  0.00    -0.141 C  
BRANCH  25  26
HETATM   26  N   UNL     1      -6.847  11.766  67.405  1.00  0.00    -0.110 NA 
HETATM   27  C   UNL     1     -11.646  12.998  66.030  1.00  0.00    -0.365 C  
HETATM   28  H   UNL     1     -10.985  11.102  66.587  1.00  0.00     0.000 HD 
HETATM   29  N   UNL     1     -10.937  11.726  65.782  1.00  0.00    -0.303 NA 
HETATM   30  C   UNL     1     -11.314  13.647  67.399  1.00  0.00    -0.315 C  
HETATM   31  C   UNL     1      -9.547  11.978  65.369  1.00  0.00    -0.132 C  
HETATM   32  C   UNL     1      -7.194  11.182  66.081  1.00  0.00     0.000 C  
HETATM   33  N   UNL     1     -10.575  14.906  67.295  1.00  0.00    -0.268 NA 
HETATM   34  H   UNL     1     -11.177  15.653  66.948  1.00  0.00     0.000 HD 
HETATM   35  C   UNL     1      -8.635  10.785  65.645  1.00  0.00    -0.185 C  
HETATM   36  C   UNL     1      -9.922  15.302  68.554  1.00  0.00    -0.222 C  
HETATM   37  C   UNL     1      -8.418  15.507  68.299  1.00  0.00    -0.156 C  
HETATM   38  C   UNL     1      -7.521  15.038  69.453  1.00  0.00    -0.196 C  
HETATM   39  N   UNL     1      -6.103  14.972  69.065  1.00  0.00    -0.095 NA 
HETATM   40  C   UNL     1      -5.571  13.656  68.635  1.00  0.00    -0.084 C  
HETATM   41  H   UNL     1      -5.508  15.801  69.090  1.00  0.00     0.000 HD 
HETATM   42  C   UNL     1      -6.060  13.016  67.288  1.00  0.00     0.080 C  
ENDBRANCH  25  26
ENDBRANCH  23  25
ENDBRANCH   1  19
TORSDOF 4
ENDMDL
MODEL       84
REMARK 921   NORMALIZED FREE ENERGY PREDICTED BY IDOCK:   -3.63 KCAL/MOL
REMARK 922        TOTAL FREE ENERGY PREDICTED BY IDOCK:   -6.06 KCAL/MOL
REMARK 923 INTER-LIGAND FREE ENERGY PREDICTED BY IDOCK:   -4.90 KCAL/MOL
REMARK 924 INTRA-LIGAND FREE ENERGY PREDICTED BY IDOCK:   -1.16 KCAL/MOL
REMARK 927      BINDING AFFINITY PREDICTED BY RF-SCORE:    0.00 PKD
ROOT
HETATM    1  C   UNL     1      -7.365  12.080  68.381  1.00  0.00    -0.096 C  
ENDROOT
BRANCH   1   2
HETATM    2  N   UNL     1      -5.996  12.149  67.906  1.00  0.00    -0.063 NA 
HETATM    3  C   UNL     1      -5.685  13.552  67.549  1.00  0.00     0.038 C  
HETATM    4  C   UNL     1      -6.016  14.611  68.657  1.00  0.00    -0.089 C  
HETATM    5  C   UNL     1      -5.570  11.186  66.849  1.00  0.00    -0.088 C  
HETATM    6  C   UNL     1      -6.465  10.059  66.247  1.00  0.00    -0.081 C  
HETATM    7  H   UNL     1      -6.825  16.608  68.247  1.00  0.00     0.000 HD 
HETATM    8  C   UNL     1      -7.581  10.540  65.316  1.00  0.00    -0.074 C  
HETATM    9  N   UNL     1      -7.067  15.629  68.405  1.00  0.00    -0.112 NA 
HETATM   10  C   UNL     1      -8.472  15.179  68.392  1.00  0.00    -0.157 C  
HETATM   11  N   UNL     1      -8.860   9.852  65.561  1.00  0.00    -0.150 NA 
HETATM   12  C   UNL     1      -8.966  14.832  66.978  1.00  0.00    -0.258 C  
HETATM   13  H   UNL     1      -8.951   9.573  66.538  1.00  0.00     0.000 HD 
HETATM   14  H   UNL     1     -10.935  13.406  65.076  1.00  0.00     0.000 HD 
HETATM   15  C   UNL     1     -10.286  14.040  66.938  1.00  0.00    -0.269 C  
HETATM   16  C   UNL     1     -10.009  10.670  65.123  1.00  0.00    -0.303 C  
HETATM   17  C   UNL     1     -10.473  11.718  66.170  1.00  0.00    -0.245 C  
HETATM   18  N   UNL     1     -10.263  13.119  65.787  1.00  0.00    -0.286 NA 
ENDBRANCH   1   2
BRANCH   1  19
HETATM   19  C   UNL     1      -7.714  11.018  69.371  1.00  0.00    -0.026 A  
HETATM   20  C   UNL     1      -6.785  10.590  70.304  1.00  0.00    -0.127 A  
HETATM   21  C   UNL     1      -6.879   9.290  70.729  1.00  0.00    -0.100 A  
HETATM   22  C   UNL     1      -8.929  10.375  69.197  1.00  0.00    -0.188 A  
HETATM   23  C   UNL     1      -8.033   8.554  70.471  1.00  0.00    -0.095 A  
HETATM   24  C   UNL     1      -9.064   9.093  69.684  1.00  0.00    -0.163 A  
BRANCH  23  25
HETATM   25  C   UNL     1      -8.223   7.186  71.013  1.00  0.00    -0.109 C  
BRANCH  25  26
HETATM   26  N   UNL     1      -9.103   7.024  72.157  1.00  0.00    -0.131 NA 
HETATM   27  C   UNL     1     -10.186   4.997  67.557  1.00  0.00    -0.129 C  
HETATM   28  H   UNL     1     -10.426   6.995  68.097  1.00  0.00     0.000 HD 
HETATM   29  N   UNL     1     -10.891   6.099  68.243  1.00  0.00    -0.294 NA 
HETATM   30  C   UNL     1      -8.651   4.997  67.777  1.00  0.00    -0.103 C  
HETATM   31  C   UNL     1     -11.057   5.797  69.674  1.00  0.00    -0.236 C  
HETATM   32  C   UNL     1     -10.572   6.981  71.920  1.00  0.00    -0.214 C  
HETATM   33  N   UNL     1      -8.164   3.863  68.565  1.00  0.00    -0.074 NA 
HETATM   34  H   UNL     1      -8.210   3.000  68.025  1.00  0.00     0.000 HD 
HETATM   35  C   UNL     1     -11.238   7.059  70.515  1.00  0.00    -0.335 C  
HETATM   36  C   UNL     1      -6.811   4.071  69.106  1.00  0.00    -0.046 C  
HETATM   37  C   UNL     1      -6.844   3.886  70.634  1.00  0.00    -0.033 C  
HETATM   38  C   UNL     1      -5.930   4.853  71.399  1.00  0.00    -0.017 C  
HETATM   39  N   UNL     1      -6.205   4.852  72.845  1.00  0.00    -0.035 NA 
HETATM   40  C   UNL     1      -7.105   5.907  73.372  1.00  0.00    -0.085 C  
HETATM   41  H   UNL     1      -5.792   4.153  73.462  1.00  0.00     0.000 HD 
HETATM   42  C   UNL     1      -8.628   5.896  72.993  1.00  0.00    -0.123 C  
ENDBRANCH  25  26
ENDBRANCH  23  25
ENDBRANCH   1  19
TORSDOF 4
ENDMDL
MODEL       85
REMARK 921   NORMALIZED FREE ENERGY PREDICTED BY IDOCK:   -3.52 KCAL/MOL
REMARK 922        TOTAL FREE ENERGY PREDICTED BY IDOCK:   -5.92 KCAL/MOL
REMARK 923 INTER-LIGAND FREE ENERGY PREDICTED BY IDOCK:   -4.49 KCAL/MOL
REMARK 924 INTRA-LIGAND FREE ENERGY PREDICTED BY IDOCK:   -1.43 KCAL/MOL
REMARK 927      BINDING AFFINITY PREDICTED BY RF-SCORE:    0.00 PKD
ROOT
HETATM    1  C   UNL     1      -9.513   7.415  68.193  1.00  0.00    -0.138 C  
ENDROOT
BRANCH   1   2
HETATM    2  N   UNL     1     -10.732   6.684  67.905  1.00  0.00    -0.248 NA 
HETATM    3  C   UNL     1     -11.279   6.148  69.172  1.00  0.00    -0.339 C  
HETATM    4  C   UNL     1     -11.439   7.199  70.326  1.00  0.00    -0.247 C  
HETATM    5  C   UNL     1     -10.694   5.656  66.823  1.00  0.00    -0.284 C  
HETATM    6  C   UNL     1      -9.458   5.339  65.927  1.00  0.00    -0.156 C  
HETATM    7  H   UNL     1     -11.048   6.773  72.441  1.00  0.00     0.000 HD 
HETATM    8  C   UNL     1      -8.316   4.599  66.628  1.00  0.00    -0.106 C  
HETATM    9  N   UNL     1     -10.624   7.062  71.559  1.00  0.00    -0.212 NA 
HETATM   10  C   UNL     1      -9.182   7.358  71.467  1.00  0.00    -0.140 C  
HETATM   11  N   UNL     1      -6.992   5.145  66.285  1.00  0.00    -0.065 NA 
HETATM   12  C   UNL     1      -8.339   6.102  71.193  1.00  0.00    -0.124 C  
HETATM   13  H   UNL     1      -7.042   6.142  66.077  1.00  0.00     0.000 HD 
HETATM   14  H   UNL     1      -5.743   4.747  70.216  1.00  0.00     0.000 HD 
HETATM   15  C   UNL     1      -6.892   6.386  70.748  1.00  0.00    -0.063 C  
HETATM   16  C   UNL     1      -5.999   4.863  67.341  1.00  0.00    -0.023 C  
HETATM   17  C   UNL     1      -6.017   5.880  68.513  1.00  0.00    -0.020 C  
HETATM   18  N   UNL     1      -6.462   5.339  69.802  1.00  0.00    -0.033 NA 
ENDBRANCH   1   2
BRANCH   1  19
HETATM   19  C   UNL     1      -9.474   8.873  67.870  1.00  0.00    -0.160 A  
HETATM   20  C   UNL     1      -8.905   9.776  68.752  1.00  0.00    -0.129 A  
HETATM   21  C   UNL     1      -9.414  11.049  68.758  1.00  0.00    -0.190 A  
HETATM   22  C   UNL     1     -10.177   9.285  66.749  1.00  0.00    -0.325 A  
HETATM   23  C   UNL     1     -10.231  11.478  67.714  1.00  0.00    -0.200 A  
HETATM   24  C   UNL     1     -10.632  10.585  66.707  1.00  0.00    -0.284 A  
BRANCH  23  25
HETATM   25  C   UNL     1     -10.706  12.881  67.622  1.00  0.00    -0.223 C  
BRANCH  25  26
HETATM   26  N   UNL     1     -12.034  13.184  68.125  1.00  0.00    -0.336 NA 
HETATM   27  C   UNL     1      -7.931  16.038  69.330  1.00  0.00    -0.217 C  
HETATM   28  H   UNL     1      -8.418  14.190  70.160  1.00  0.00     0.000 HD 
HETATM   29  N   UNL     1      -8.713  15.164  70.227  1.00  0.00     0.563 NA 
HETATM   30  C   UNL     1      -7.774  15.484  67.890  1.00  0.00    -0.130 C  
HETATM   31  C   UNL     1     -10.155  15.315  69.971  1.00  0.00    -0.159 C  
HETATM   32  C   UNL     1     -12.160  13.756  69.493  1.00  0.00    -0.334 C  
HETATM   33  N   UNL     1      -8.475  16.271  66.872  1.00  0.00    -0.201 NA 
HETATM   34  H   UNL     1      -8.003  17.161  66.713  1.00  0.00     0.000 HD 
HETATM   35  C   UNL     1     -10.954  14.093  70.419  1.00  0.00     0.347 C  
HETATM   36  C   UNL     1      -8.663  15.545  65.606  1.00  0.00     0.779 C  
HETATM   37  C   UNL     1     -10.162  15.530  65.252  1.00  0.00    -0.380 C  
HETATM   38  C   UNL     1     -10.638  14.218  64.613  1.00  0.00    -0.340 C  
HETATM   39  N   UNL     1     -12.106  14.124  64.562  1.00  0.00    -0.453 NA 
HETATM   40  C   UNL     1     -12.783  13.382  65.652  1.00  0.00    -0.370 C  
HETATM   41  H   UNL     1     -12.638  14.554  63.804  1.00  0.00     0.000 HD 
HETATM   42  C   UNL     1     -12.783  13.962  67.111  1.00  0.00     0.449 C  
ENDBRANCH  25  26
ENDBRANCH  23  25
ENDBRANCH   1  19
TORSDOF 4
ENDMDL
MODEL       86
REMARK 921   NORMALIZED FREE ENERGY PREDICTED BY IDOCK:   -3.47 KCAL/MOL
REMARK 922        TOTAL FREE ENERGY PREDICTED BY IDOCK:   -5.86 KCAL/MOL
REMARK 923 INTER-LIGAND FREE ENERGY PREDICTED BY IDOCK:   -4.57 KCAL/MOL
REMARK 924 INTRA-LIGAND FREE ENERGY PREDICTED BY IDOCK:   -1.29 KCAL/MOL
REMARK 927      BINDING AFFINITY PREDICTED BY RF-SCORE:    0.00 PKD
ROOT
HETATM    1  C   UNL     1      -8.336   5.192  65.741  1.00  0.00    -0.120 C  
ENDROOT
BRANCH   1   2
HETATM    2  N   UNL     1      -9.679   4.665  65.892  1.00  0.00    -0.182 NA 
HETATM    3  C   UNL     1      -9.716   3.787  67.083  1.00  0.00    -0.101 C  
HETATM    4  C   UNL     1      -9.144   4.422  68.398  1.00  0.00    -0.124 C  
HETATM    5  C   UNL     1     -10.323   4.035  64.702  1.00  0.00    -0.205 C  
HETATM    6  C   UNL     1      -9.690   3.948  63.278  1.00  0.00    -0.151 C  
HETATM    7  H   UNL     1      -7.968   3.321  69.886  1.00  0.00     0.000 HD 
HETATM    8  C   UNL     1      -8.533   2.956  63.138  1.00  0.00    -0.085 C  
HETATM    9  N   UNL     1      -7.921   3.850  69.015  1.00  0.00    -0.059 NA 
HETATM   10  C   UNL     1      -6.635   4.073  68.327  1.00  0.00    -0.046 C  
HETATM   11  N   UNL     1      -7.409   3.503  62.359  1.00  0.00    -0.043 NA 
HETATM   12  C   UNL     1      -6.267   2.922  67.377  1.00  0.00    -0.032 C  
HETATM   13  H   UNL     1      -7.342   4.515  62.462  1.00  0.00     0.000 HD 
HETATM   14  H   UNL     1      -4.686   1.797  64.976  1.00  0.00     0.000 HD 
HETATM   15  C   UNL     1      -5.133   3.246  66.387  1.00  0.00    -0.008 C  
HETATM   16  C   UNL     1      -6.136   2.839  62.705  1.00  0.00    -0.010 C  
HETATM   17  C   UNL     1      -5.438   3.429  63.960  1.00  0.00    -0.009 C  
HETATM   18  N   UNL     1      -5.378   2.532  65.120  1.00  0.00    -0.008 NA 
ENDBRANCH   1   2
BRANCH   1  19
HETATM   19  C   UNL     1      -8.135   6.664  65.899  1.00  0.00    -0.126 A  
HETATM   20  C   UNL     1      -7.209   7.157  66.802  1.00  0.00    -0.083 A  
HETATM   21  C   UNL     1      -7.474   8.379  67.363  1.00  0.00    -0.093 A  
HETATM   22  C   UNL     1      -9.028   7.491  65.236  1.00  0.00     0.222 A  
HETATM   23  C   UNL     1      -8.452   9.203  66.811  1.00  0.00    -0.125 A  
HETATM   24  C   UNL     1      -9.250   8.752  65.747  1.00  0.00    -0.269 A  
BRANCH  23  25
HETATM   25  C   UNL     1      -8.688  10.579  67.315  1.00  0.00    -0.126 C  
BRANCH  25  26
HETATM   26  N   UNL     1     -10.063  11.031  67.437  1.00  0.00    -0.182 NA 
HETATM   27  C   UNL     1      -7.421   9.179  71.440  1.00  0.00     0.023 C  
HETATM   28  H   UNL     1      -8.296   8.046  69.927  1.00  0.00     0.000 HD 
HETATM   29  N   UNL     1      -8.577   8.560  70.762  1.00  0.00    -0.141 NA 
HETATM   30  C   UNL     1      -6.458   9.931  70.485  1.00  0.00    -0.116 C  
HETATM   31  C   UNL     1      -9.604   9.571  70.460  1.00  0.00    -0.251 C  
HETATM   32  C   UNL     1     -10.959  10.325  68.392  1.00  0.00    -0.260 C  
HETATM   33  N   UNL     1      -6.440  11.382  70.681  1.00  0.00    -0.490 NA 
HETATM   34  H   UNL     1      -5.964  11.624  71.550  1.00  0.00     0.000 HD 
HETATM   35  C   UNL     1     -10.513   9.147  69.308  1.00  0.00    -0.231 C  
HETATM   36  C   UNL     1      -5.859  12.114  69.544  1.00  0.00    -0.096 C  
HETATM   37  C   UNL     1      -6.875  13.158  69.045  1.00  0.00    -0.090 C  
HETATM   38  C   UNL     1      -6.891  13.331  67.519  1.00  0.00    -0.146 C  
HETATM   39  N   UNL     1      -8.057  14.101  67.059  1.00  0.00    -0.376 NA 
HETATM   40  C   UNL     1      -9.240  13.339  66.592  1.00  0.00    -0.215 C  
HETATM   41  H   UNL     1      -8.052  15.122  67.062  1.00  0.00     0.000 HD 
HETATM   42  C   UNL     1     -10.086  12.503  67.615  1.00  0.00    -0.217 C  
ENDBRANCH  25  26
ENDBRANCH  23  25
ENDBRANCH   1  19
TORSDOF 4
ENDMDL
MODEL       87
REMARK 921   NORMALIZED FREE ENERGY PREDICTED BY IDOCK:   -3.47 KCAL/MOL
REMARK 922        TOTAL FREE ENERGY PREDICTED BY IDOCK:   -5.86 KCAL/MOL
REMARK 923 INTER-LIGAND FREE ENERGY PREDICTED BY IDOCK:   -4.37 KCAL/MOL
REMARK 924 INTRA-LIGAND FREE ENERGY PREDICTED BY IDOCK:   -1.48 KCAL/MOL
REMARK 927      BINDING AFFINITY PREDICTED BY RF-SCORE:    0.00 PKD
ROOT
HETATM    1  C   UNL     1      -8.265   9.378  67.375  1.00  0.00    -0.121 C  
ENDROOT
BRANCH   1   2
HETATM    2  N   UNL     1      -9.489   9.288  66.602  1.00  0.00    -0.177 NA 
HETATM    3  C   UNL     1      -9.146   9.295  65.162  1.00  0.00    -0.206 C  
HETATM    4  C   UNL     1      -8.056   8.252  64.731  1.00  0.00    -0.151 C  
HETATM    5  C   UNL     1     -10.595  10.234  66.927  1.00  0.00    -0.217 C  
HETATM    6  C   UNL     1     -10.570  11.285  68.079  1.00  0.00    -0.230 C  
HETATM    7  H   UNL     1      -6.505   8.643  63.230  1.00  0.00     0.000 HD 
HETATM    8  C   UNL     1      -9.651  12.488  67.846  1.00  0.00    -0.206 C  
HETATM    9  N   UNL     1      -6.748   8.730  64.217  1.00  0.00    -0.075 NA 
HETATM   10  C   UNL     1      -5.810   9.337  65.182  1.00  0.00    -0.059 C  
HETATM   11  N   UNL     1      -8.869  12.844  69.040  1.00  0.00    -0.209 NA 
HETATM   12  C   UNL     1      -5.944  10.866  65.251  1.00  0.00     0.051 C  
HETATM   13  H   UNL     1      -8.675  12.025  69.617  1.00  0.00     0.000 HD 
HETATM   14  H   UNL     1      -5.518  13.554  66.708  1.00  0.00     0.000 HD 
HETATM   15  C   UNL     1      -5.253  11.515  66.466  1.00  0.00    -0.102 C  
HETATM   16  C   UNL     1      -7.627  13.558  68.682  1.00  0.00    -0.108 C  
HETATM   17  C   UNL     1      -6.449  12.624  68.298  1.00  0.00    -0.073 C  
HETATM   18  N   UNL     1      -6.030  12.693  66.893  1.00  0.00    -0.174 NA 
ENDBRANCH   1   2
BRANCH   1  19
HETATM   19  C   UNL     1      -7.929   8.252  68.297  1.00  0.00    -0.119 A  
HETATM   20  C   UNL     1      -8.900   7.347  68.689  1.00  0.00    -0.126 A  
HETATM   21  C   UNL     1      -8.758   6.774  69.926  1.00  0.00    -0.141 A  
HETATM   22  C   UNL     1      -6.665   8.265  68.865  1.00  0.00    -0.053 A  
HETATM   23  C   UNL     1      -7.541   6.864  70.600  1.00  0.00    -0.094 A  
HETATM   24  C   UNL     1      -6.487   7.629  70.075  1.00  0.00    -0.034 A  
BRANCH  23  25
HETATM   25  C   UNL     1      -7.309   6.159  71.885  1.00  0.00    -0.093 C  
BRANCH  25  26
HETATM   26  N   UNL     1      -6.729   6.917  72.980  1.00  0.00    -0.069 NA 
HETATM   27  C   UNL     1     -11.730   5.738  72.810  1.00  0.00    -0.162 C  
HETATM   28  H   UNL     1     -10.797   7.254  71.728  1.00  0.00     0.000 HD 
HETATM   29  N   UNL     1     -11.117   7.075  72.680  1.00  0.00    -0.270 NA 
HETATM   30  C   UNL     1     -10.905   4.599  72.156  1.00  0.00     0.033 C  
HETATM   31  C   UNL     1     -10.032   7.245  73.661  1.00  0.00    -0.330 C  
HETATM   32  C   UNL     1      -7.553   7.976  73.624  1.00  0.00    -0.162 C  
HETATM   33  N   UNL     1     -10.343   3.647  73.116  1.00  0.00    -0.157 NA 
HETATM   34  H   UNL     1     -11.074   3.057  73.512  1.00  0.00     0.000 HD 
HETATM   35  C   UNL     1      -9.023   8.307  73.229  1.00  0.00    -0.283 C  
HETATM   36  C   UNL     1      -9.256   2.829  72.553  1.00  0.00    -0.095 C  
HETATM   37  C   UNL     1      -8.000   2.987  73.430  1.00  0.00    -0.065 C  
HETATM   38  C   UNL     1      -6.686   3.014  72.637  1.00  0.00    -0.022 C  
HETATM   39  N   UNL     1      -5.549   3.457  73.459  1.00  0.00     0.000 NA 
HETATM   40  C   UNL     1      -5.167   4.889  73.384  1.00  0.00    -0.009 C  
HETATM   41  H   UNL     1      -5.043   2.805  74.057  1.00  0.00     0.000 HD 
HETATM   42  C   UNL     1      -6.128   5.986  73.964  1.00  0.00    -0.064 C  
ENDBRANCH  25  26
ENDBRANCH  23  25
ENDBRANCH   1  19
TORSDOF 4
ENDMDL
MODEL       88
REMARK 921   NORMALIZED FREE ENERGY PREDICTED BY IDOCK:   -3.45 KCAL/MOL
REMARK 922        TOTAL FREE ENERGY PREDICTED BY IDOCK:   -5.84 KCAL/MOL
REMARK 923 INTER-LIGAND FREE ENERGY PREDICTED BY IDOCK:   -4.52 KCAL/MOL
REMARK 924 INTRA-LIGAND FREE ENERGY PREDICTED BY IDOCK:   -1.32 KCAL/MOL
REMARK 927      BINDING AFFINITY PREDICTED BY RF-SCORE:    0.00 PKD
ROOT
HETATM    1  C   UNL     1      -8.183   5.594  65.515  1.00  0.00    -0.129 C  
ENDROOT
BRANCH   1   2
HETATM    2  N   UNL     1      -6.941   5.733  64.778  1.00  0.00    -0.051 NA 
HETATM    3  C   UNL     1      -6.765   4.545  63.911  1.00  0.00    -0.043 C  
HETATM    4  C   UNL     1      -7.995   4.194  63.003  1.00  0.00    -0.075 C  
HETATM    5  C   UNL     1      -5.704   6.066  65.543  1.00  0.00    -0.024 C  
HETATM    6  C   UNL     1      -5.643   6.339  67.078  1.00  0.00    -0.012 C  
HETATM    7  H   UNL     1      -8.653   2.149  62.560  1.00  0.00     0.000 HD 
HETATM    8  C   UNL     1      -5.825   5.107  67.968  1.00  0.00    -0.018 C  
HETATM    9  N   UNL     1      -8.728   2.922  63.223  1.00  0.00    -0.086 NA 
HETATM   10  C   UNL     1      -9.567   2.811  64.431  1.00  0.00    -0.147 C  
HETATM   11  N   UNL     1      -6.715   5.361  69.112  1.00  0.00    -0.051 NA 
HETATM   12  C   UNL     1      -8.818   2.174  65.613  1.00  0.00    -0.121 C  
HETATM   13  H   UNL     1      -7.417   6.067  68.890  1.00  0.00     0.000 HD 
HETATM   14  H   UNL     1      -8.487   1.645  68.636  1.00  0.00     0.000 HD 
HETATM   15  C   UNL     1      -9.511   2.345  66.978  1.00  0.00     0.093 C  
HETATM   16  C   UNL     1      -7.340   4.115  69.600  1.00  0.00    -0.050 C  
HETATM   17  C   UNL     1      -8.612   3.698  68.816  1.00  0.00    -0.086 C  
HETATM   18  N   UNL     1      -8.485   2.465  68.030  1.00  0.00    -0.071 NA 
ENDBRANCH   1   2
BRANCH   1  19
HETATM   19  C   UNL     1      -8.907   6.838  65.915  1.00  0.00    -0.127 A  
HETATM   20  C   UNL     1      -8.440   8.082  65.528  1.00  0.00    -0.159 A  
HETATM   21  C   UNL     1      -8.700   9.135  66.366  1.00  0.00    -0.147 A  
HETATM   22  C   UNL     1      -9.946   6.692  66.820  1.00  0.00    -0.238 A  
HETATM   23  C   UNL     1      -9.650   9.004  67.377  1.00  0.00    -0.195 A  
HETATM   24  C   UNL     1     -10.270   7.767  67.619  1.00  0.00    -0.282 A  
BRANCH  23  25
HETATM   25  C   UNL     1     -10.047  10.153  68.228  1.00  0.00    -0.156 C  
BRANCH  25  26
HETATM   26  N   UNL     1     -10.410   9.882  69.608  1.00  0.00    -0.224 NA 
HETATM   27  C   UNL     1      -5.722  11.525  68.282  1.00  0.00    -0.045 C  
HETATM   28  H   UNL     1      -6.435   9.578  68.079  1.00  0.00     0.000 HD 
HETATM   29  N   UNL     1      -6.094  10.198  68.813  1.00  0.00    -0.047 NA 
HETATM   30  C   UNL     1      -6.778  12.139  67.327  1.00  0.00    -0.144 C  
HETATM   31  C   UNL     1      -7.065  10.332  69.911  1.00  0.00    -0.152 C  
HETATM   32  C   UNL     1      -9.371   9.334  70.521  1.00  0.00    -0.264 C  
HETATM   33  N   UNL     1      -7.440  13.331  67.861  1.00  0.00    -0.125 NA 
HETATM   34  H   UNL     1      -6.803  14.128  67.868  1.00  0.00     0.000 HD 
HETATM   35  C   UNL     1      -7.894   9.064  70.108  1.00  0.00    -0.100 C  
HETATM   36  C   UNL     1      -8.689  13.666  67.158  1.00  0.00    -0.216 C  
HETATM   37  C   UNL     1      -9.838  13.742  68.179  1.00  0.00    -0.239 C  
HETATM   38  C   UNL     1     -11.174  13.194  67.658  1.00  0.00    -0.282 C  
HETATM   39  N   UNL     1     -12.158  13.009  68.735  1.00  0.00    -0.244 NA 
HETATM   40  C   UNL     1     -12.282  11.653  69.324  1.00  0.00    -0.164 C  
HETATM   41  H   UNL     1     -12.735  13.783  69.065  1.00  0.00     0.000 HD 
HETATM   42  C   UNL     1     -11.105  11.061  70.178  1.00  0.00    -0.097 C  
ENDBRANCH  25  26
ENDBRANCH  23  25
ENDBRANCH   1  19
TORSDOF 4
ENDMDL
MODEL       89
REMARK 921   NORMALIZED FREE ENERGY PREDICTED BY IDOCK:   -3.42 KCAL/MOL
REMARK 922        TOTAL FREE ENERGY PREDICTED BY IDOCK:   -5.80 KCAL/MOL
REMARK 923 INTER-LIGAND FREE ENERGY PREDICTED BY IDOCK:   -4.43 KCAL/MOL
REMARK 924 INTRA-LIGAND FREE ENERGY PREDICTED BY IDOCK:   -1.37 KCAL/MOL
REMARK 927      BINDING AFFINITY PREDICTED BY RF-SCORE:    0.00 PKD
ROOT
HETATM    1  C   UNL     1      -8.783   7.924  67.582  1.00  0.00    -0.126 C  
ENDROOT
BRANCH   1   2
HETATM    2  N   UNL     1      -9.699   7.269  68.496  1.00  0.00    -0.147 NA 
HETATM    3  C   UNL     1      -8.955   6.864  69.709  1.00  0.00    -0.141 C  
HETATM    4  C   UNL     1      -8.107   7.999  70.382  1.00  0.00    -0.112 C  
HETATM    5  C   UNL     1     -10.557   6.171  67.962  1.00  0.00    -0.268 C  
HETATM    6  C   UNL     1     -10.594   5.702  66.474  1.00  0.00    -0.320 C  
HETATM    7  H   UNL     1      -6.135   7.689  71.290  1.00  0.00     0.000 HD 
HETATM    8  C   UNL     1      -9.361   4.926  66.003  1.00  0.00    -0.156 C  
HETATM    9  N   UNL     1      -6.628   7.885  70.418  1.00  0.00    -0.037 NA 
HETATM   10  C   UNL     1      -5.893   8.063  69.152  1.00  0.00    -0.034 C  
HETATM   11  N   UNL     1      -8.904   5.346  64.669  1.00  0.00    -0.328 NA 
HETATM   12  C   UNL     1      -5.627   6.731  68.432  1.00  0.00    -0.017 C  
HETATM   13  H   UNL     1      -9.116   6.328  64.493  1.00  0.00     0.000 HD 
HETATM   14  H   UNL     1      -4.949   5.121  65.887  1.00  0.00     0.000 HD 
HETATM   15  C   UNL     1      -5.180   6.875  66.964  1.00  0.00    -0.016 C  
HETATM   16  C   UNL     1      -7.468   5.061  64.473  1.00  0.00    -0.068 C  
HETATM   17  C   UNL     1      -6.525   6.154  65.043  1.00  0.00    -0.038 C  
HETATM   18  N   UNL     1      -5.705   5.737  66.186  1.00  0.00    -0.013 NA 
ENDBRANCH   1   2
BRANCH   1  19
HETATM   19  C   UNL     1      -9.078   9.331  67.176  1.00  0.00    -0.149 A  
HETATM   20  C   UNL     1      -8.304  10.378  67.646  1.00  0.00    -0.114 A  
HETATM   21  C   UNL     1      -8.920  11.594  67.791  1.00  0.00    -0.170 A  
HETATM   22  C   UNL     1     -10.247   9.544  66.463  1.00  0.00    -0.307 A  
HETATM   23  C   UNL     1     -10.159  11.824  67.196  1.00  0.00    -0.224 A  
HETATM   24  C   UNL     1     -10.839  10.786  66.538  1.00  0.00    -0.196 A  
BRANCH  23  25
HETATM   25  C   UNL     1     -10.804  13.160  67.229  1.00  0.00    -0.257 C  
BRANCH  25  26
HETATM   26  N   UNL     1     -12.152  13.250  67.762  1.00  0.00    -0.300 NA 
HETATM   27  C   UNL     1      -8.462  16.583  69.066  1.00  0.00    -0.204 C  
HETATM   28  H   UNL     1      -8.674  14.648  69.807  1.00  0.00     0.000 HD 
HETATM   29  N   UNL     1      -9.100  15.567  69.926  1.00  0.00    -0.075 NA 
HETATM   30  C   UNL     1      -8.256  16.128  67.598  1.00  0.00    -0.147 C  
HETATM   31  C   UNL     1     -10.553  15.529  69.693  1.00  0.00    -0.282 C  
HETATM   32  C   UNL     1     -12.332  13.731  69.158  1.00  0.00    -0.101 C  
HETATM   33  N   UNL     1      -9.076  16.859  66.629  1.00  0.00    -0.241 NA 
HETATM   34  H   UNL     1      -8.734  17.812  66.511  1.00  0.00     0.000 HD 
HETATM   35  C   UNL     1     -11.168  14.187  70.087  1.00  0.00    -0.060 C  
HETATM   36  C   UNL     1      -9.185  16.177  65.330  1.00  0.00     0.507 C  
HETATM   37  C   UNL     1     -10.673  15.972  64.992  1.00  0.00    -0.400 C  
HETATM   38  C   UNL     1     -10.975  14.639  64.292  1.00  0.00     0.120 C  
HETATM   39  N   UNL     1     -12.416  14.346  64.251  1.00  0.00    -0.691 NA 
HETATM   40  C   UNL     1     -12.966  13.464  65.310  1.00  0.00    -0.190 C  
HETATM   41  H   UNL     1     -13.016  14.734  63.523  1.00  0.00     0.000 HD 
HETATM   42  C   UNL     1     -13.020  13.966  66.796  1.00  0.00     0.875 C  
ENDBRANCH  25  26
ENDBRANCH  23  25
ENDBRANCH   1  19
TORSDOF 4
ENDMDL
MODEL       90
REMARK 921   NORMALIZED FREE ENERGY PREDICTED BY IDOCK:   -3.42 KCAL/MOL
REMARK 922        TOTAL FREE ENERGY PREDICTED BY IDOCK:   -5.79 KCAL/MOL
REMARK 923 INTER-LIGAND FREE ENERGY PREDICTED BY IDOCK:   -4.51 KCAL/MOL
REMARK 924 INTRA-LIGAND FREE ENERGY PREDICTED BY IDOCK:   -1.28 KCAL/MOL
REMARK 927      BINDING AFFINITY PREDICTED BY RF-SCORE:    0.00 PKD
ROOT
HETATM    1  C   UNL     1     -10.281  12.311  67.515  1.00  0.00    -0.204 C  
ENDROOT
BRANCH   1   2
HETATM    2  N   UNL     1     -11.681  11.930  67.549  1.00  0.00    -0.551 NA 
HETATM    3  C   UNL     1     -12.327  12.375  66.294  1.00  0.00     0.262 C  
HETATM    4  C   UNL     1     -11.594  11.941  64.977  1.00  0.00    -0.214 C  
HETATM    5  C   UNL     1     -12.477  12.294  68.758  1.00  0.00     0.599 C  
HETATM    6  C   UNL     1     -11.912  13.004  70.027  1.00  0.00    -0.383 C  
HETATM    7  H   UNL     1     -11.428  13.201  63.189  1.00  0.00     0.000 HD 
HETATM    8  C   UNL     1     -11.566  14.484  69.847  1.00  0.00    -0.287 C  
HETATM    9  N   UNL     1     -11.006  12.977  64.091  1.00  0.00    -0.393 NA 
HETATM   10  C   UNL     1      -9.792  13.672  64.558  1.00  0.00     0.305 C  
HETATM   11  N   UNL     1     -10.282  14.846  70.468  1.00  0.00    -0.350 NA 
HETATM   12  C   UNL     1     -10.109  14.984  65.294  1.00  0.00    -0.378 C  
HETATM   13  H   UNL     1      -9.633  14.059  70.468  1.00  0.00     0.000 HD 
HETATM   14  H   UNL     1      -9.327  17.254  67.234  1.00  0.00     0.000 HD 
HETATM   15  C   UNL     1      -8.931  15.570  66.095  1.00  0.00    -0.294 C  
HETATM   16  C   UNL     1      -9.686  16.037  69.828  1.00  0.00    -0.064 C  
HETATM   17  C   UNL     1      -8.876  15.724  68.543  1.00  0.00    -0.193 C  
HETATM   18  N   UNL     1      -9.453  16.245  67.299  1.00  0.00    -0.225 NA 
ENDBRANCH   1   2
BRANCH   1  19
HETATM   19  C   UNL     1      -9.265  11.297  67.929  1.00  0.00    -0.157 A  
HETATM   20  C   UNL     1      -8.540  10.597  66.980  1.00  0.00    -0.128 A  
HETATM   21  C   UNL     1      -8.134   9.331  67.314  1.00  0.00    -0.113 A  
HETATM   22  C   UNL     1      -9.215  10.977  69.276  1.00  0.00     0.063 A  
HETATM   23  C   UNL     1      -8.178   8.912  68.642  1.00  0.00    -0.116 A  
HETATM   24  C   UNL     1      -8.738   9.734  69.633  1.00  0.00    -0.211 A  
BRANCH  23  25
HETATM   25  C   UNL     1      -7.639   7.595  69.062  1.00  0.00    -0.104 C  
BRANCH  25  26
HETATM   26  N   UNL     1      -6.230   7.515  69.405  1.00  0.00    -0.031 NA 
HETATM   27  C   UNL     1      -9.921   5.865  72.582  1.00  0.00    -0.176 C  
HETATM   28  H   UNL     1      -9.375   7.851  72.274  1.00  0.00     0.000 HD 
HETATM   29  N   UNL     1      -9.029   7.027  72.766  1.00  0.00    -0.129 NA 
HETATM   30  C   UNL     1     -10.357   5.631  71.112  1.00  0.00    -0.232 C  
HETATM   31  C   UNL     1      -7.652   6.693  72.369  1.00  0.00    -0.094 C  
HETATM   32  C   UNL     1      -5.836   7.698  70.828  1.00  0.00    -0.030 C  
HETATM   33  N   UNL     1      -9.817   4.406  70.519  1.00  0.00    -0.216 NA 
HETATM   34  H   UNL     1     -10.270   3.582  70.914  1.00  0.00     0.000 HD 
HETATM   35  C   UNL     1      -6.840   7.931  71.995  1.00  0.00    -0.066 C  
HETATM   36  C   UNL     1      -9.890   4.391  69.050  1.00  0.00    -0.111 C  
HETATM   37  C   UNL     1      -8.482   4.148  68.477  1.00  0.00    -0.105 C  
HETATM   38  C   UNL     1      -8.186   4.938  67.194  1.00  0.00    -0.106 C  
HETATM   39  N   UNL     1      -6.757   4.916  66.844  1.00  0.00    -0.053 NA 
HETATM   40  C   UNL     1      -5.928   6.068  67.276  1.00  0.00    -0.018 C  
HETATM   41  H   UNL     1      -6.351   4.138  66.324  1.00  0.00     0.000 HD 
HETATM   42  C   UNL     1      -5.641   6.295  68.803  1.00  0.00    -0.011 C  
ENDBRANCH  25  26
ENDBRANCH  23  25
ENDBRANCH   1  19
TORSDOF 4
ENDMDL
MODEL       91
REMARK 921   NORMALIZED FREE ENERGY PREDICTED BY IDOCK:   -3.37 KCAL/MOL
REMARK 922        TOTAL FREE ENERGY PREDICTED BY IDOCK:   -5.74 KCAL/MOL
REMARK 923 INTER-LIGAND FREE ENERGY PREDICTED BY IDOCK:   -5.59 KCAL/MOL
REMARK 924 INTRA-LIGAND FREE ENERGY PREDICTED BY IDOCK:   -0.16 KCAL/MOL
REMARK 927      BINDING AFFINITY PREDICTED BY RF-SCORE:    0.00 PKD
ROOT
HETATM    1  C   UNL     1      -9.224  14.218  66.940  1.00  0.00    -0.254 C  
ENDROOT
BRANCH   1   2
HETATM    2  N   UNL     1      -9.706  14.507  65.603  1.00  0.00    -0.295 NA 
HETATM    3  C   UNL     1      -9.982  15.957  65.498  1.00  0.00    -0.278 C  
HETATM    4  C   UNL     1      -8.809  16.894  65.954  1.00  0.00    -0.032 C  
HETATM    5  C   UNL     1     -10.824  13.676  65.066  1.00  0.00    -0.352 C  
HETATM    6  C   UNL     1     -11.484  12.472  65.806  1.00  0.00    -0.407 C  
HETATM    7  H   UNL     1      -9.090  18.778  67.042  1.00  0.00     0.000 HD 
HETATM    8  C   UNL     1     -12.374  12.844  66.995  1.00  0.00     0.125 C  
HETATM    9  N   UNL     1      -8.989  17.767  67.141  1.00  0.00    -0.242 NA 
HETATM   10  C   UNL     1      -9.016  17.126  68.469  1.00  0.00    -0.265 C  
HETATM   11  N   UNL     1     -12.158  11.970  68.160  1.00  0.00    -0.448 NA 
HETATM   12  C   UNL     1     -10.443  16.795  68.935  1.00  0.00    -0.332 C  
HETATM   13  H   UNL     1     -11.199  11.625  68.194  1.00  0.00     0.000 HD 
HETATM   14  H   UNL     1     -12.409  15.220  70.719  1.00  0.00     0.000 HD 
HETATM   15  C   UNL     1     -10.518  15.829  70.133  1.00  0.00    -0.278 C  
HETATM   16  C   UNL     1     -12.535  12.643  69.419  1.00  0.00     0.290 C  
HETATM   17  C   UNL     1     -11.423  13.552  70.006  1.00  0.00    -0.070 C  
HETATM   18  N   UNL     1     -11.723  14.988  70.001  1.00  0.00    -0.285 NA 
ENDBRANCH   1   2
BRANCH   1  19
HETATM   19  C   UNL     1      -8.695  12.849  67.218  1.00  0.00    -0.204 A  
HETATM   20  C   UNL     1      -8.648  11.894  66.217  1.00  0.00    -0.016 A  
HETATM   21  C   UNL     1      -8.774  10.583  66.598  1.00  0.00    -0.138 A  
HETATM   22  C   UNL     1      -8.426  12.540  68.542  1.00  0.00    -0.061 A  
HETATM   23  C   UNL     1      -8.635  10.230  67.939  1.00  0.00    -0.118 A  
HETATM   24  C   UNL     1      -8.475  11.217  68.925  1.00  0.00    -0.095 A  
BRANCH  23  25
HETATM   25  C   UNL     1      -8.647   8.812  68.377  1.00  0.00    -0.134 C  
BRANCH  25  26
HETATM   26  N   UNL     1      -9.934   8.193  68.640  1.00  0.00    -0.184 NA 
HETATM   27  C   UNL     1      -6.015   5.590  66.568  1.00  0.00    -0.019 C  
HETATM   28  H   UNL     1      -7.256   6.928  65.564  1.00  0.00     0.000 HD 
HETATM   29  N   UNL     1      -7.284   5.972  65.918  1.00  0.00    -0.073 NA 
HETATM   30  C   UNL     1      -5.468   6.652  67.557  1.00  0.00    -0.008 C  
HETATM   31  C   UNL     1      -8.419   5.761  66.832  1.00  0.00    -0.108 C  
HETATM   32  C   UNL     1     -10.421   7.144  67.704  1.00  0.00    -0.239 C  
HETATM   33  N   UNL     1      -5.485   6.225  68.957  1.00  0.00    -0.014 NA 
HETATM   34  H   UNL     1      -4.770   5.518  69.129  1.00  0.00     0.000 HD 
HETATM   35  C   UNL     1      -9.623   6.629  66.470  1.00  0.00    -0.187 C  
HETATM   36  C   UNL     1      -5.357   7.341  69.907  1.00  0.00    -0.023 C  
HETATM   37  C   UNL     1      -6.548   7.314  70.882  1.00  0.00    -0.044 C  
HETATM   38  C   UNL     1      -7.072   8.704  71.267  1.00  0.00    -0.085 C  
HETATM   39  N   UNL     1      -8.373   8.640  71.950  1.00  0.00    -0.286 NA 
HETATM   40  C   UNL     1      -9.590   8.841  71.126  1.00  0.00    -0.242 C  
HETATM   41  H   UNL     1      -8.437   8.464  72.952  1.00  0.00     0.000 HD 
HETATM   42  C   UNL     1      -9.998   7.766  70.058  1.00  0.00    -0.187 C  
ENDBRANCH  25  26
ENDBRANCH  23  25
ENDBRANCH   1  19
TORSDOF 4
ENDMDL
MODEL       92
REMARK 921   NORMALIZED FREE ENERGY PREDICTED BY IDOCK:   -3.28 KCAL/MOL
REMARK 922        TOTAL FREE ENERGY PREDICTED BY IDOCK:   -5.62 KCAL/MOL
REMARK 923 INTER-LIGAND FREE ENERGY PREDICTED BY IDOCK:   -5.77 KCAL/MOL
REMARK 924 INTRA-LIGAND FREE ENERGY PREDICTED BY IDOCK:    0.14 KCAL/MOL
REMARK 927      BINDING AFFINITY PREDICTED BY RF-SCORE:    0.00 PKD
ROOT
HETATM    1  C   UNL     1      -8.703  10.624  67.257  1.00  0.00    -0.129 C  
ENDROOT
BRANCH   1   2
HETATM    2  N   UNL     1      -9.947  10.170  66.664  1.00  0.00    -0.206 NA 
HETATM    3  C   UNL     1     -10.688   9.369  67.664  1.00  0.00    -0.230 C  
HETATM    4  C   UNL     1     -10.876  10.056  69.062  1.00  0.00    -0.222 C  
HETATM    5  C   UNL     1      -9.885   9.500  65.332  1.00  0.00    -0.177 C  
HETATM    6  C   UNL     1      -8.590   9.297  64.487  1.00  0.00    -0.217 C  
HETATM    7  H   UNL     1     -10.779   8.994  70.978  1.00  0.00     0.000 HD 
HETATM    8  C   UNL     1      -7.616   8.246  65.027  1.00  0.00    -0.095 C  
HETATM    9  N   UNL     1     -10.229   9.467  70.261  1.00  0.00    -0.228 NA 
HETATM   10  C   UNL     1      -8.764   9.588  70.380  1.00  0.00    -0.223 C  
HETATM   11  N   UNL     1      -6.214   8.691  64.973  1.00  0.00    -0.060 NA 
HETATM   12  C   UNL     1      -8.024   8.365  69.815  1.00  0.00    -0.104 C  
HETATM   13  H   UNL     1      -6.141   9.704  65.069  1.00  0.00     0.000 HD 
HETATM   14  H   UNL     1      -5.478   7.024  68.695  1.00  0.00     0.000 HD 
HETATM   15  C   UNL     1      -6.513   8.576  69.596  1.00  0.00    -0.039 C  
HETATM   16  C   UNL     1      -5.384   7.992  65.975  1.00  0.00    -0.028 C  
HETATM   17  C   UNL     1      -5.438   8.624  67.391  1.00  0.00    -0.038 C  
HETATM   18  N   UNL     1      -6.082   7.798  68.419  1.00  0.00    -0.035 NA 
ENDBRANCH   1   2
BRANCH   1  19
HETATM   19  C   UNL     1      -8.220  11.996  66.916  1.00  0.00    -0.146 A  
HETATM   20  C   UNL     1      -6.918  12.375  67.194  1.00  0.00    -0.079 A  
HETATM   21  C   UNL     1      -6.697  13.701  67.463  1.00  0.00    -0.139 A  
HETATM   22  C   UNL     1      -9.172  12.904  66.480  1.00  0.00    -0.186 A  
HETATM   23  C   UNL     1      -7.674  14.647  67.157  1.00  0.00    -0.121 A  
HETATM   24  C   UNL     1      -8.931  14.246  66.676  1.00  0.00    -0.212 A  
BRANCH  23  25
HETATM   25  C   UNL     1      -7.429  16.101  67.322  1.00  0.00    -0.185 C  
BRANCH  25  26
HETATM   26  N   UNL     1      -6.340  16.513  68.190  1.00  0.00    -0.128 NA 
HETATM   27  C   UNL     1      -9.428  19.907  65.870  1.00  0.00    -0.217 C  
HETATM   28  H   UNL     1      -7.858  18.874  64.972  1.00  0.00     0.000 HD 
HETATM   29  N   UNL     1      -7.996  19.663  65.602  1.00  0.00    -0.389 NA 
HETATM   30  C   UNL     1     -10.231  18.626  66.218  1.00  0.00    -0.427 C  
HETATM   31  C   UNL     1      -7.254  19.493  66.862  1.00  0.00    -0.214 C  
HETATM   32  C   UNL     1      -5.611  17.768  67.865  1.00  0.00    -0.143 C  
HETATM   33  N   UNL     1     -10.714  18.584  67.599  1.00  0.00    -0.412 NA 
HETATM   34  H   UNL     1     -11.476  19.248  67.737  1.00  0.00     0.000 HD 
HETATM   35  C   UNL     1      -5.961  18.703  66.670  1.00  0.00    -0.176 C  
HETATM   36  C   UNL     1     -11.109  17.236  68.036  1.00  0.00    -0.065 C  
HETATM   37  C   UNL     1     -10.326  16.869  69.310  1.00  0.00    -0.298 C  
HETATM   38  C   UNL     1      -9.903  15.395  69.379  1.00  0.00    -0.273 C  
HETATM   39  N   UNL     1      -8.919  15.148  70.444  1.00  0.00     0.146 NA 
HETATM   40  C   UNL     1      -7.485  15.134  70.063  1.00  0.00     0.076 C  
HETATM   41  H   UNL     1      -9.210  14.992  71.409  1.00  0.00     0.000 HD 
HETATM   42  C   UNL     1      -6.786  16.462  69.603  1.00  0.00    -0.145 C  
ENDBRANCH  25  26
ENDBRANCH  23  25
ENDBRANCH   1  19
TORSDOF 4
ENDMDL
MODEL       93
REMARK 921   NORMALIZED FREE ENERGY PREDICTED BY IDOCK:   -3.27 KCAL/MOL
REMARK 922        TOTAL FREE ENERGY PREDICTED BY IDOCK:   -5.61 KCAL/MOL
REMARK 923 INTER-LIGAND FREE ENERGY PREDICTED BY IDOCK:   -5.42 KCAL/MOL
REMARK 924 INTRA-LIGAND FREE ENERGY PREDICTED BY IDOCK:   -0.19 KCAL/MOL
REMARK 927      BINDING AFFINITY PREDICTED BY RF-SCORE:    0.00 PKD
ROOT
HETATM    1  C   UNL     1      -9.342  15.256  66.820  1.00  0.00    -0.243 C  
ENDROOT
BRANCH   1   2
HETATM    2  N   UNL     1      -9.875  15.625  65.523  1.00  0.00    -0.321 NA 
HETATM    3  C   UNL     1     -10.238  17.060  65.546  1.00  0.00    -0.089 C  
HETATM    4  C   UNL     1      -9.110  18.024  66.055  1.00  0.00     0.015 C  
HETATM    5  C   UNL     1     -10.955  14.775  64.941  1.00  0.00    -0.412 C  
HETATM    6  C   UNL     1     -11.525  13.476  65.589  1.00  0.00    -0.330 C  
HETATM    7  H   UNL     1      -9.473  19.790  67.303  1.00  0.00     0.000 HD 
HETATM    8  C   UNL     1     -12.404  13.694  66.824  1.00  0.00    -0.305 C  
HETATM    9  N   UNL     1      -9.310  18.783  67.315  1.00  0.00    -0.287 NA 
HETATM   10  C   UNL     1      -9.265  18.033  68.584  1.00  0.00    -0.267 C  
HETATM   11  N   UNL     1     -12.108  12.741  67.906  1.00  0.00    -0.289 NA 
HETATM   12  C   UNL     1     -10.658  17.580  69.050  1.00  0.00    -0.146 C  
HETATM   13  H   UNL     1     -11.130  12.452  67.891  1.00  0.00     0.000 HD 
HETATM   14  H   UNL     1     -12.482  15.746  70.736  1.00  0.00     0.000 HD 
HETATM   15  C   UNL     1     -10.646  16.515  70.163  1.00  0.00    -0.081 C  
HETATM   16  C   UNL     1     -12.491  13.283  69.226  1.00  0.00     0.177 C  
HETATM   17  C   UNL     1     -11.419  14.206  69.864  1.00  0.00    -0.226 C  
HETATM   18  N   UNL     1     -11.803  15.617  69.986  1.00  0.00    -0.351 NA 
ENDBRANCH   1   2
BRANCH   1  19
HETATM   19  C   UNL     1      -8.622  13.952  66.942  1.00  0.00    -0.138 A  
HETATM   20  C   UNL     1      -8.790  12.962  65.989  1.00  0.00     0.394 A  
HETATM   21  C   UNL     1      -8.665  11.663  66.409  1.00  0.00    -0.170 A  
HETATM   22  C   UNL     1      -7.932  13.727  68.122  1.00  0.00    -0.150 A  
HETATM   23  C   UNL     1      -8.089  11.383  67.647  1.00  0.00    -0.124 A  
HETATM   24  C   UNL     1      -7.732  12.423  68.521  1.00  0.00    -0.120 A  
BRANCH  23  25
HETATM   25  C   UNL     1      -7.827   9.991  68.088  1.00  0.00    -0.089 C  
BRANCH  25  26
HETATM   26  N   UNL     1      -6.449   9.602  68.328  1.00  0.00    -0.056 NA 
HETATM   27  C   UNL     1     -10.283   8.160  71.435  1.00  0.00    -0.198 C  
HETATM   28  H   UNL     1      -9.381  10.037  71.401  1.00  0.00     0.000 HD 
HETATM   29  N   UNL     1      -9.182   9.096  71.739  1.00  0.00    -0.326 NA 
HETATM   30  C   UNL     1     -10.802   8.251  69.976  1.00  0.00    -0.232 C  
HETATM   31  C   UNL     1      -7.906   8.585  71.213  1.00  0.00    -0.118 C  
HETATM   32  C   UNL     1      -5.982   9.477  69.735  1.00  0.00    -0.036 C  
HETATM   33  N   UNL     1     -10.522   7.060  69.171  1.00  0.00    -0.201 NA 
HETATM   34  H   UNL     1     -11.111   6.279  69.462  1.00  0.00     0.000 HD 
HETATM   35  C   UNL     1      -6.886   9.699  70.983  1.00  0.00    -0.002 C  
HETATM   36  C   UNL     1     -10.644   7.295  67.724  1.00  0.00    -0.221 C  
HETATM   37  C   UNL     1      -9.326   6.896  67.035  1.00  0.00    -0.170 C  
HETATM   38  C   UNL     1      -8.926   7.815  65.873  1.00  0.00    -0.113 C  
HETATM   39  N   UNL     1      -7.539   7.591  65.437  1.00  0.00    -0.089 NA 
HETATM   40  C   UNL     1      -6.494   8.487  65.988  1.00  0.00    -0.053 C  
HETATM   41  H   UNL     1      -7.304   6.846  64.780  1.00  0.00     0.000 HD 
HETATM   42  C   UNL     1      -6.121   8.409  67.511  1.00  0.00    -0.052 C  
ENDBRANCH  25  26
ENDBRANCH  23  25
ENDBRANCH   1  19
TORSDOF 4
ENDMDL
MODEL       94
REMARK 921   NORMALIZED FREE ENERGY PREDICTED BY IDOCK:   -3.25 KCAL/MOL
REMARK 922        TOTAL FREE ENERGY PREDICTED BY IDOCK:   -5.59 KCAL/MOL
REMARK 923 INTER-LIGAND FREE ENERGY PREDICTED BY IDOCK:   -4.55 KCAL/MOL
REMARK 924 INTRA-LIGAND FREE ENERGY PREDICTED BY IDOCK:   -1.04 KCAL/MOL
REMARK 927      BINDING AFFINITY PREDICTED BY RF-SCORE:    0.00 PKD
ROOT
HETATM    1  C   UNL     1      -7.178   8.655  67.723  1.00  0.00    -0.088 C  
ENDROOT
BRANCH   1   2
HETATM    2  N   UNL     1      -5.749   8.500  67.913  1.00  0.00    -0.039 NA 
HETATM    3  C   UNL     1      -5.241   7.511  66.936  1.00  0.00    -0.023 C  
HETATM    4  C   UNL     1      -5.649   7.777  65.445  1.00  0.00    -0.037 C  
HETATM    5  C   UNL     1      -5.248   8.242  69.295  1.00  0.00    -0.030 C  
HETATM    6  C   UNL     1      -6.136   8.182  70.576  1.00  0.00    -0.032 C  
HETATM    7  H   UNL     1      -6.170   6.201  64.012  1.00  0.00     0.000 HD 
HETATM    8  C   UNL     1      -7.023   6.940  70.699  1.00  0.00    -0.063 C  
HETATM    9  N   UNL     1      -6.533   6.812  64.744  1.00  0.00    -0.041 NA 
HETATM   10  C   UNL     1      -7.953   6.766  65.141  1.00  0.00    -0.128 C  
HETATM   11  N   UNL     1      -8.387   7.260  71.151  1.00  0.00    -0.111 NA 
HETATM   12  C   UNL     1      -8.231   5.701  66.214  1.00  0.00    -0.108 C  
HETATM   13  H   UNL     1      -8.672   8.191  70.847  1.00  0.00     0.000 HD 
HETATM   14  H   UNL     1      -9.979   4.529  68.472  1.00  0.00     0.000 HD 
HETATM   15  C   UNL     1      -9.598   5.836  66.911  1.00  0.00    -0.141 C  
HETATM   16  C   UNL     1      -9.356   6.232  70.720  1.00  0.00    -0.158 C  
HETATM   17  C   UNL     1      -9.884   6.428  69.274  1.00  0.00    -0.147 C  
HETATM   18  N   UNL     1      -9.471   5.398  68.314  1.00  0.00    -0.115 NA 
ENDBRANCH   1   2
BRANCH   1  19
HETATM   19  C   UNL     1      -7.816   9.928  68.175  1.00  0.00    -0.085 A  
HETATM   20  C   UNL     1      -8.888   9.909  69.049  1.00  0.00    -0.156 A  
HETATM   21  C   UNL     1      -9.796  10.932  68.947  1.00  0.00    -0.203 A  
HETATM   22  C   UNL     1      -7.399  11.092  67.549  1.00  0.00    -0.101 A  
HETATM   23  C   UNL     1      -9.476  12.078  68.223  1.00  0.00    -0.199 A  
HETATM   24  C   UNL     1      -8.273  12.156  67.502  1.00  0.00    -0.167 A  
BRANCH  23  25
HETATM   25  C   UNL     1     -10.380  13.254  68.185  1.00  0.00    -0.244 C  
BRANCH  25  26
HETATM   26  N   UNL     1     -11.796  13.030  68.417  1.00  0.00    -0.340 NA 
HETATM   27  C   UNL     1      -9.697  17.720  68.603  1.00  0.00    -0.346 C  
HETATM   28  H   UNL     1      -9.580  16.271  70.095  1.00  0.00     0.000 HD 
HETATM   29  N   UNL     1     -10.256  16.939  69.725  1.00  0.00    -0.043 NA 
HETATM   30  C   UNL     1      -8.958  16.861  67.544  1.00  0.00    -0.206 C  
HETATM   31  C   UNL     1     -11.511  16.282  69.326  1.00  0.00    -0.251 C  
HETATM   32  C   UNL     1     -12.498  13.894  69.405  1.00  0.00    -0.046 C  
HETATM   33  N   UNL     1      -9.628  16.817  66.243  1.00  0.00    -0.281 NA 
HETATM   34  H   UNL     1      -9.540  17.711  65.759  1.00  0.00     0.000 HD 
HETATM   35  C   UNL     1     -11.824  15.060  70.187  1.00  0.00    -0.357 C  
HETATM   36  C   UNL     1      -9.165  15.712  65.389  1.00  0.00     0.359 C  
HETATM   37  C   UNL     1     -10.376  14.859  64.967  1.00  0.00    -0.401 C  
HETATM   38  C   UNL     1     -10.087  13.353  64.906  1.00  0.00    -0.233 C  
HETATM   39  N   UNL     1     -11.317  12.554  64.793  1.00  0.00    -0.303 NA 
HETATM   40  C   UNL     1     -11.888  11.995  66.043  1.00  0.00    -0.148 C  
HETATM   41  H   UNL     1     -11.761  12.390  63.889  1.00  0.00     0.000 HD 
HETATM   42  C   UNL     1     -12.506  12.957  67.118  1.00  0.00     0.458 C  
ENDBRANCH  25  26
ENDBRANCH  23  25
ENDBRANCH   1  19
TORSDOF 4
ENDMDL
MODEL       95
REMARK 921   NORMALIZED FREE ENERGY PREDICTED BY IDOCK:   -3.25 KCAL/MOL
REMARK 922        TOTAL FREE ENERGY PREDICTED BY IDOCK:   -5.59 KCAL/MOL
REMARK 923 INTER-LIGAND FREE ENERGY PREDICTED BY IDOCK:   -4.82 KCAL/MOL
REMARK 924 INTRA-LIGAND FREE ENERGY PREDICTED BY IDOCK:   -0.76 KCAL/MOL
REMARK 927      BINDING AFFINITY PREDICTED BY RF-SCORE:    0.00 PKD
ROOT
HETATM    1  C   UNL     1      -8.441   7.437  71.970  1.00  0.00    -0.106 C  
ENDROOT
BRANCH   1   2
HETATM    2  N   UNL     1      -9.333   7.540  73.108  1.00  0.00    -0.183 NA 
HETATM    3  C   UNL     1      -8.585   7.186  74.335  1.00  0.00    -0.200 C  
HETATM    4  C   UNL     1      -7.228   7.949  74.532  1.00  0.00    -0.156 C  
HETATM    5  C   UNL     1     -10.654   6.850  73.030  1.00  0.00    -0.278 C  
HETATM    6  C   UNL     1     -11.187   6.067  71.790  1.00  0.00    -0.333 C  
HETATM    7  H   UNL     1      -5.412   7.039  75.358  1.00  0.00     0.000 HD 
HETATM    8  C   UNL     1     -10.504   4.724  71.523  1.00  0.00    -0.072 C  
HETATM    9  N   UNL     1      -5.952   7.193  74.506  1.00  0.00    -0.080 NA 
HETATM   10  C   UNL     1      -5.488   6.671  73.206  1.00  0.00    -0.038 C  
HETATM   11  N   UNL     1     -10.203   4.514  70.098  1.00  0.00    -0.148 NA 
HETATM   12  C   UNL     1      -5.943   5.225  72.956  1.00  0.00    -0.023 C  
HETATM   13  H   UNL     1     -10.029   5.398  69.619  1.00  0.00     0.000 HD 
HETATM   14  H   UNL     1      -6.524   2.863  71.054  1.00  0.00     0.000 HD 
HETATM   15  C   UNL     1      -5.792   4.749  71.498  1.00  0.00    -0.013 C  
HETATM   16  C   UNL     1      -9.082   3.570  69.913  1.00  0.00    -0.125 C  
HETATM   17  C   UNL     1      -7.680   4.226  70.021  1.00  0.00    -0.052 C  
HETATM   18  N   UNL     1      -6.883   3.809  71.181  1.00  0.00    -0.031 NA 
ENDBRANCH   1   2
BRANCH   1  19
HETATM   19  C   UNL     1      -8.841   8.110  70.698  1.00  0.00    -0.143 A  
HETATM   20  C   UNL     1      -8.509   7.559  69.473  1.00  0.00    -0.132 A  
HETATM   21  C   UNL     1      -8.315   8.426  68.429  1.00  0.00    -0.131 A  
HETATM   22  C   UNL     1      -9.396   9.375  70.808  1.00  0.00    -0.292 A  
HETATM   23  C   UNL     1      -8.743   9.748  68.532  1.00  0.00    -0.120 A  
HETATM   24  C   UNL     1      -9.274  10.235  69.738  1.00  0.00    -0.101 A  
BRANCH  23  25
HETATM   25  C   UNL     1      -8.659  10.687  67.386  1.00  0.00    -0.122 C  
BRANCH  25  26
HETATM   26  N   UNL     1      -9.163  10.236  66.101  1.00  0.00    -0.154 NA 
HETATM   27  C   UNL     1      -8.963  15.214  67.372  1.00  0.00    -0.183 C  
HETATM   28  H   UNL     1     -10.395  13.846  68.019  1.00  0.00     0.000 HD 
HETATM   29  N   UNL     1     -10.168  14.382  67.182  1.00  0.00    -0.256 NA 
HETATM   30  C   UNL     1      -7.775  14.462  68.026  1.00  0.00    -0.138 C  
HETATM   31  C   UNL     1     -10.018  13.513  66.003  1.00  0.00    -0.299 C  
HETATM   32  C   UNL     1     -10.274  10.997  65.468  1.00  0.00    -0.268 C  
HETATM   33  N   UNL     1      -6.629  14.271  67.134  1.00  0.00    -0.349 NA 
HETATM   34  H   UNL     1      -6.143  15.153  66.975  1.00  0.00     0.000 HD 
HETATM   35  C   UNL     1     -10.916  12.280  66.074  1.00  0.00    -0.327 C  
HETATM   36  C   UNL     1      -5.694  13.236  67.603  1.00  0.00    -0.087 C  
HETATM   37  C   UNL     1      -5.512  12.182  66.495  1.00  0.00     0.427 C  
HETATM   38  C   UNL     1      -5.387  10.743  67.017  1.00  0.00    -0.047 C  
HETATM   39  N   UNL     1      -5.512   9.748  65.942  1.00  0.00    -0.043 NA 
HETATM   40  C   UNL     1      -6.846   9.136  65.726  1.00  0.00    -0.077 C  
HETATM   41  H   UNL     1      -4.712   9.488  65.365  1.00  0.00     0.000 HD 
HETATM   42  C   UNL     1      -8.027  10.010  65.175  1.00  0.00    -0.145 C  
ENDBRANCH  25  26
ENDBRANCH  23  25
ENDBRANCH   1  19
TORSDOF 4
ENDMDL
MODEL       96
REMARK 921   NORMALIZED FREE ENERGY PREDICTED BY IDOCK:   -3.24 KCAL/MOL
REMARK 922        TOTAL FREE ENERGY PREDICTED BY IDOCK:   -5.58 KCAL/MOL
REMARK 923 INTER-LIGAND FREE ENERGY PREDICTED BY IDOCK:   -5.42 KCAL/MOL
REMARK 924 INTRA-LIGAND FREE ENERGY PREDICTED BY IDOCK:   -0.17 KCAL/MOL
REMARK 927      BINDING AFFINITY PREDICTED BY RF-SCORE:    0.00 PKD
ROOT
HETATM    1  C   UNL     1      -9.279  16.507  66.845  1.00  0.00    -0.226 C  
ENDROOT
BRANCH   1   2
HETATM    2  N   UNL     1     -10.664  16.677  67.238  1.00  0.00    -0.275 NA 
HETATM    3  C   UNL     1     -10.973  18.124  67.286  1.00  0.00    -0.069 C  
HETATM    4  C   UNL     1     -10.586  18.931  65.998  1.00  0.00    -0.403 C  
HETATM    5  C   UNL     1     -11.143  15.953  68.453  1.00  0.00    -0.345 C  
HETATM    6  C   UNL     1     -10.285  14.972  69.311  1.00  0.00    -0.244 C  
HETATM    7  H   UNL     1      -9.771  20.967  66.021  1.00  0.00     0.000 HD 
HETATM    8  C   UNL     1      -9.201  15.631  70.168  1.00  0.00     0.494 C  
HETATM    9  N   UNL     1      -9.535  19.976  66.078  1.00  0.00    -0.362 NA 
HETATM   10  C   UNL     1      -8.137  19.534  66.241  1.00  0.00    -0.334 C  
HETATM   11  N   UNL     1      -7.922  14.904  70.122  1.00  0.00    -0.239 NA 
HETATM   12  C   UNL     1      -7.703  19.484  67.715  1.00  0.00    -0.321 C  
HETATM   13  H   UNL     1      -7.795  14.429  69.229  1.00  0.00     0.000 HD 
HETATM   14  H   UNL     1      -5.827  18.475  69.949  1.00  0.00     0.000 HD 
HETATM   15  C   UNL     1      -6.394  18.713  67.972  1.00  0.00    -0.205 C  
HETATM   16  C   UNL     1      -6.782  15.791  70.429  1.00  0.00     0.411 C  
HETATM   17  C   UNL     1      -6.265  16.599  69.209  1.00  0.00    -0.194 C  
HETATM   18  N   UNL     1      -6.474  18.049  69.286  1.00  0.00    -0.251 NA 
ENDBRANCH   1   2
BRANCH   1  19
HETATM   19  C   UNL     1      -8.784  15.120  66.591  1.00  0.00    -0.308 A  
HETATM   20  C   UNL     1      -9.649  14.131  66.157  1.00  0.00    -0.278 A  
HETATM   21  C   UNL     1      -9.360  12.842  66.528  1.00  0.00    -0.224 A  
HETATM   22  C   UNL     1      -7.481  14.842  66.971  1.00  0.00     0.033 A  
HETATM   23  C   UNL     1      -8.101  12.528  67.035  1.00  0.00    -0.105 A  
HETATM   24  C   UNL     1      -7.155  13.538  67.276  1.00  0.00     0.028 A  
BRANCH  23  25
HETATM   25  C   UNL     1      -7.709  11.130  67.337  1.00  0.00    -0.120 C  
BRANCH  25  26
HETATM   26  N   UNL     1      -6.539  10.917  68.170  1.00  0.00    -0.061 NA 
HETATM   27  C   UNL     1     -10.506   7.647  68.132  1.00  0.00    -0.181 C  
HETATM   28  H   UNL     1     -10.445   9.478  69.122  1.00  0.00     0.000 HD 
HETATM   29  N   UNL     1     -10.081   8.532  69.234  1.00  0.00    -0.197 NA 
HETATM   30  C   UNL     1     -10.329   8.266  66.721  1.00  0.00    -0.290 C  
HETATM   31  C   UNL     1      -8.615   8.524  69.372  1.00  0.00    -0.128 C  
HETATM   32  C   UNL     1      -6.723  10.280  69.502  1.00  0.00    -0.073 C  
HETATM   33  N   UNL     1      -9.309   7.605  65.905  1.00  0.00    -0.398 NA 
HETATM   34  H   UNL     1      -9.630   6.687  65.597  1.00  0.00     0.000 HD 
HETATM   35  C   UNL     1      -8.091   9.784  70.057  1.00  0.00    -0.203 C  
HETATM   36  C   UNL     1      -8.865   8.417  64.761  1.00  0.00     0.120 C  
HETATM   37  C   UNL     1      -7.336   8.584  64.825  1.00  0.00    -0.091 C  
HETATM   38  C   UNL     1      -6.841   9.968  64.380  1.00  0.00    -0.127 C  
HETATM   39  N   UNL     1      -5.430  10.193  64.729  1.00  0.00    -0.094 NA 
HETATM   40  C   UNL     1      -5.144  10.928  65.985  1.00  0.00    -0.116 C  
HETATM   41  H   UNL     1      -4.676   9.857  64.130  1.00  0.00     0.000 HD 
HETATM   42  C   UNL     1      -5.473  10.267  67.371  1.00  0.00    -0.041 C  
ENDBRANCH  25  26
ENDBRANCH  23  25
ENDBRANCH   1  19
TORSDOF 4
ENDMDL
MODEL       97
REMARK 921   NORMALIZED FREE ENERGY PREDICTED BY IDOCK:   -3.23 KCAL/MOL
REMARK 922        TOTAL FREE ENERGY PREDICTED BY IDOCK:   -5.57 KCAL/MOL
REMARK 923 INTER-LIGAND FREE ENERGY PREDICTED BY IDOCK:   -4.65 KCAL/MOL
REMARK 924 INTRA-LIGAND FREE ENERGY PREDICTED BY IDOCK:   -0.92 KCAL/MOL
REMARK 927      BINDING AFFINITY PREDICTED BY RF-SCORE:    0.00 PKD
ROOT
HETATM    1  C   UNL     1      -8.204  10.575  67.975  1.00  0.00    -0.112 C  
ENDROOT
BRANCH   1   2
HETATM    2  N   UNL     1      -7.064  11.217  68.600  1.00  0.00    -0.085 NA 
HETATM    3  C   UNL     1      -7.026  10.837  70.030  1.00  0.00    -0.084 C  
HETATM    4  C   UNL     1      -7.107   9.296  70.313  1.00  0.00    -0.084 C  
HETATM    5  C   UNL     1      -6.888  12.686  68.398  1.00  0.00    -0.090 C  
HETATM    6  C   UNL     1      -7.804  13.587  67.513  1.00  0.00    -0.184 C  
HETATM    7  H   UNL     1      -8.206   8.409  71.991  1.00  0.00     0.000 HD 
HETATM    8  C   UNL     1      -9.196  13.864  68.086  1.00  0.00    -0.202 C  
HETATM    9  N   UNL     1      -8.284   8.744  71.030  1.00  0.00    -0.145 NA 
HETATM   10  C   UNL     1      -9.569   8.697  70.309  1.00  0.00    -0.170 C  
HETATM   11  N   UNL     1     -10.258  13.755  67.071  1.00  0.00    -0.252 NA 
HETATM   12  C   UNL     1     -10.437   9.939  70.568  1.00  0.00    -0.330 C  
HETATM   13  H   UNL     1     -10.014  13.080  66.347  1.00  0.00     0.000 HD 
HETATM   14  H   UNL     1     -12.738  11.841  69.784  1.00  0.00     0.000 HD 
HETATM   15  C   UNL     1     -11.616  10.111  69.591  1.00  0.00    -0.153 C  
HETATM   16  C   UNL     1     -11.564  13.442  67.685  1.00  0.00    -0.340 C  
HETATM   17  C   UNL     1     -11.788  11.930  67.953  1.00  0.00    -0.238 C  
HETATM   18  N   UNL     1     -11.854  11.550  69.369  1.00  0.00    -0.328 NA 
ENDBRANCH   1   2
BRANCH   1  19
HETATM   19  C   UNL     1      -7.946   9.577  66.894  1.00  0.00    -0.109 A  
HETATM   20  C   UNL     1      -8.978   8.813  66.378  1.00  0.00    -0.194 A  
HETATM   21  C   UNL     1      -8.657   7.564  65.910  1.00  0.00    -0.165 A  
HETATM   22  C   UNL     1      -6.621   9.339  66.567  1.00  0.00    -0.067 A  
HETATM   23  C   UNL     1      -7.325   7.227  65.680  1.00  0.00    -0.075 A  
HETATM   24  C   UNL     1      -6.293   8.114  66.026  1.00  0.00    -0.046 A  
BRANCH  23  25
HETATM   25  C   UNL     1      -6.944   5.932  65.065  1.00  0.00    -0.059 C  
BRANCH  25  26
HETATM   26  N   UNL     1      -5.719   5.298  65.519  1.00  0.00    -0.014 NA 
HETATM   27  C   UNL     1     -10.255   4.423  67.775  1.00  0.00     0.146 C  
HETATM   28  H   UNL     1      -9.066   6.113  68.041  1.00  0.00     0.000 HD 
HETATM   29  N   UNL     1      -9.093   5.138  68.339  1.00  0.00    -0.110 NA 
HETATM   30  C   UNL     1     -10.467   4.663  66.258  1.00  0.00    -0.207 C  
HETATM   31  C   UNL     1      -7.842   4.434  68.014  1.00  0.00    -0.080 C  
HETATM   32  C   UNL     1      -5.553   5.036  66.974  1.00  0.00    -0.013 C  
HETATM   33  N   UNL     1     -10.240   3.475  65.431  1.00  0.00    -0.399 NA 
HETATM   34  H   UNL     1     -10.993   2.798  65.555  1.00  0.00     0.000 HD 
HETATM   35  C   UNL     1      -6.628   5.360  68.053  1.00  0.00    -0.049 C  
HETATM   36  C   UNL     1     -10.045   3.788  64.007  1.00  0.00    -0.210 C  
HETATM   37  C   UNL     1      -8.705   3.193  63.538  1.00  0.00    -0.089 C  
HETATM   38  C   UNL     1      -7.947   4.075  62.536  1.00  0.00    -0.066 C  
HETATM   39  N   UNL     1      -6.559   3.629  62.340  1.00  0.00    -0.022 NA 
HETATM   40  C   UNL     1      -5.504   4.305  63.134  1.00  0.00    -0.013 C  
HETATM   41  H   UNL     1      -6.330   2.883  61.683  1.00  0.00     0.000 HD 
HETATM   42  C   UNL     1      -5.443   4.101  64.689  1.00  0.00    -0.013 C  
ENDBRANCH  25  26
ENDBRANCH  23  25
ENDBRANCH   1  19
TORSDOF 4
ENDMDL
MODEL       98
REMARK 921   NORMALIZED FREE ENERGY PREDICTED BY IDOCK:   -3.18 KCAL/MOL
REMARK 922        TOTAL FREE ENERGY PREDICTED BY IDOCK:   -5.51 KCAL/MOL
REMARK 923 INTER-LIGAND FREE ENERGY PREDICTED BY IDOCK:   -5.12 KCAL/MOL
REMARK 924 INTRA-LIGAND FREE ENERGY PREDICTED BY IDOCK:   -0.39 KCAL/MOL
REMARK 927      BINDING AFFINITY PREDICTED BY RF-SCORE:    0.00 PKD
ROOT
HETATM    1  C   UNL     1      -7.533  16.513  67.396  1.00  0.00    -0.149 C  
ENDROOT
BRANCH   1   2
HETATM    2  N   UNL     1      -6.410  16.803  68.267  1.00  0.00    -0.134 NA 
HETATM    3  C   UNL     1      -6.859  16.702  69.674  1.00  0.00    -0.057 C  
HETATM    4  C   UNL     1      -7.608  15.374  70.041  1.00  0.00     0.154 C  
HETATM    5  C   UNL     1      -5.625  18.046  68.009  1.00  0.00    -0.152 C  
HETATM    6  C   UNL     1      -5.875  19.039  66.833  1.00  0.00    -0.165 C  
HETATM    7  H   UNL     1      -9.324  15.264  71.402  1.00  0.00     0.000 HD 
HETATM    8  C   UNL     1      -7.135  19.900  66.962  1.00  0.00    -0.217 C  
HETATM    9  N   UNL     1      -9.038  15.424  70.435  1.00  0.00     0.664 NA 
HETATM   10  C   UNL     1     -10.031  15.713  69.384  1.00  0.00    -0.279 C  
HETATM   11  N   UNL     1      -7.885  19.999  65.700  1.00  0.00    -0.481 NA 
HETATM   12  C   UNL     1     -10.369  17.210  69.288  1.00  0.00    -0.257 C  
HETATM   13  H   UNL     1      -7.769  19.161  65.130  1.00  0.00     0.000 HD 
HETATM   14  H   UNL     1     -11.476  19.637  67.736  1.00  0.00     0.000 HD 
HETATM   15  C   UNL     1     -11.121  17.615  68.006  1.00  0.00     0.059 C  
HETATM   16  C   UNL     1      -9.312  20.295  65.939  1.00  0.00    -0.041 C  
HETATM   17  C   UNL     1     -10.173  19.042  66.250  1.00  0.00    -0.446 C  
HETATM   18  N   UNL     1     -10.710  18.976  67.614  1.00  0.00    -0.438 NA 
ENDBRANCH   1   2
BRANCH   1  19
HETATM   19  C   UNL     1      -7.738  15.100  66.958  1.00  0.00    -0.158 A  
HETATM   20  C   UNL     1      -8.913  14.719  66.334  1.00  0.00    -0.223 A  
HETATM   21  C   UNL     1      -9.326  13.424  66.517  1.00  0.00    -0.225 A  
HETATM   22  C   UNL     1      -6.786  14.176  67.359  1.00  0.00     0.012 A  
HETATM   23  C   UNL     1      -8.445  12.477  67.035  1.00  0.00    -0.161 A  
HETATM   24  C   UNL     1      -7.166  12.857  67.476  1.00  0.00    -0.149 A  
BRANCH  23  25
HETATM   25  C   UNL     1      -8.813  11.044  67.139  1.00  0.00    -0.140 C  
BRANCH  25  26
HETATM   26  N   UNL     1     -10.125  10.643  66.665  1.00  0.00    -0.212 NA 
HETATM   27  C   UNL     1      -5.844   8.133  65.321  1.00  0.00    -0.044 C  
HETATM   28  H   UNL     1      -6.495   9.945  64.527  1.00  0.00     0.000 HD 
HETATM   29  N   UNL     1      -6.716   8.952  64.455  1.00  0.00    -0.070 NA 
HETATM   30  C   UNL     1      -5.695   8.681  66.764  1.00  0.00    -0.048 C  
HETATM   31  C   UNL     1      -8.134   8.685  64.745  1.00  0.00    -0.149 C  
HETATM   32  C   UNL     1     -10.242  10.078  65.293  1.00  0.00    -0.126 C  
HETATM   33  N   UNL     1      -6.305   7.831  67.789  1.00  0.00    -0.050 NA 
HETATM   34  H   UNL     1      -5.761   6.979  67.925  1.00  0.00     0.000 HD 
HETATM   35  C   UNL     1      -9.038   9.846  64.333  1.00  0.00    -0.299 C  
HETATM   36  C   UNL     1      -6.517   8.526  69.069  1.00  0.00    -0.048 C  
HETATM   37  C   UNL     1      -8.002   8.420  69.460  1.00  0.00    -0.111 C  
HETATM   38  C   UNL     1      -8.563   9.684  70.128  1.00  0.00    -0.214 C  
HETATM   39  N   UNL     1     -10.031   9.661  70.217  1.00  0.00    -0.257 NA 
HETATM   40  C   UNL     1     -10.793  10.360  69.153  1.00  0.00    -0.236 C  
HETATM   41  H   UNL     1     -10.508   9.183  70.981  1.00  0.00     0.000 HD 
HETATM   42  C   UNL     1     -10.785   9.797  67.688  1.00  0.00    -0.274 C  
ENDBRANCH  25  26
ENDBRANCH  23  25
ENDBRANCH   1  19
TORSDOF 4
ENDMDL
MODEL       99
REMARK 921   NORMALIZED FREE ENERGY PREDICTED BY IDOCK:   -3.17 KCAL/MOL
REMARK 922        TOTAL FREE ENERGY PREDICTED BY IDOCK:   -5.49 KCAL/MOL
REMARK 923 INTER-LIGAND FREE ENERGY PREDICTED BY IDOCK:   -4.38 KCAL/MOL
REMARK 924 INTRA-LIGAND FREE ENERGY PREDICTED BY IDOCK:   -1.11 KCAL/MOL
REMARK 927      BINDING AFFINITY PREDICTED BY RF-SCORE:    0.00 PKD
ROOT
HETATM    1  C   UNL     1      -8.878   5.654  69.319  1.00  0.00    -0.111 C  
ENDROOT
BRANCH   1   2
HETATM    2  N   UNL     1      -9.940   4.688  69.115  1.00  0.00    -0.173 NA 
HETATM    3  C   UNL     1      -9.995   3.782  70.284  1.00  0.00     0.093 C  
HETATM    4  C   UNL     1     -10.061   4.498  71.679  1.00  0.00    -0.179 C  
HETATM    5  C   UNL     1      -9.975   3.947  67.820  1.00  0.00     0.128 C  
HETATM    6  C   UNL     1      -8.988   4.167  66.632  1.00  0.00    -0.128 C  
HETATM    7  H   UNL     1      -9.030   3.783  73.478  1.00  0.00     0.000 HD 
HETATM    8  C   UNL     1      -7.567   3.645  66.858  1.00  0.00    -0.080 C  
HETATM    9  N   UNL     1      -8.934   4.347  72.633  1.00  0.00    -0.114 NA 
HETATM   10  C   UNL     1      -7.670   5.039  72.319  1.00  0.00    -0.096 C  
HETATM   11  N   UNL     1      -6.536   4.590  66.398  1.00  0.00    -0.045 NA 
HETATM   12  C   UNL     1      -6.681   4.143  71.555  1.00  0.00    -0.030 C  
HETATM   13  H   UNL     1      -6.855   5.556  66.473  1.00  0.00     0.000 HD 
HETATM   14  H   UNL     1      -4.216   3.776  69.734  1.00  0.00     0.000 HD 
HETATM   15  C   UNL     1      -5.505   4.897  70.905  1.00  0.00    -0.004 C  
HETATM   16  C   UNL     1      -5.258   4.387  67.110  1.00  0.00    -0.012 C  
HETATM   17  C   UNL     1      -5.179   5.105  68.483  1.00  0.00     0.000 C  
HETATM   18  N   UNL     1      -5.131   4.218  69.650  1.00  0.00     0.000 NA 
ENDBRANCH   1   2
BRANCH   1  19
HETATM   19  C   UNL     1      -9.064   7.032  68.775  1.00  0.00    -0.133 A  
HETATM   20  C   UNL     1     -10.110   7.316  67.914  1.00  0.00    -0.217 A  
HETATM   21  C   UNL     1      -9.907   8.309  66.991  1.00  0.00    -0.298 A  
HETATM   22  C   UNL     1      -8.055   7.948  69.033  1.00  0.00    -0.124 A  
HETATM   23  C   UNL     1      -8.833   9.185  67.133  1.00  0.00    -0.130 A  
HETATM   24  C   UNL     1      -7.886   8.995  68.154  1.00  0.00    -0.100 A  
BRANCH  23  25
HETATM   25  C   UNL     1      -8.645  10.343  66.225  1.00  0.00    -0.142 C  
BRANCH  25  26
HETATM   26  N   UNL     1      -7.661  10.223  65.164  1.00  0.00    -0.141 NA 
HETATM   27  C   UNL     1     -12.054  12.822  64.544  1.00  0.00    -0.414 C  
HETATM   28  H   UNL     1     -11.845  10.750  64.496  1.00  0.00     0.000 HD 
HETATM   29  N   UNL     1     -11.660  11.554  63.897  1.00  0.00    -0.302 NA 
HETATM   30  C   UNL     1     -11.573  12.957  66.012  1.00  0.00    -0.375 C  
HETATM   31  C   UNL     1     -10.251  11.605  63.472  1.00  0.00    -0.436 C  
HETATM   32  C   UNL     1      -8.141  10.140  63.758  1.00  0.00    -0.160 C  
HETATM   33  N   UNL     1     -10.563  13.998  66.214  1.00  0.00    -0.279 NA 
HETATM   34  H   UNL     1     -10.978  14.926  66.135  1.00  0.00     0.000 HD 
HETATM   35  C   UNL     1      -9.638  10.213  63.335  1.00  0.00    -0.236 C  
HETATM   36  C   UNL     1      -9.829  13.858  67.481  1.00  0.00    -0.236 C  
HETATM   37  C   UNL     1      -8.320  13.793  67.186  1.00  0.00    -0.153 C  
HETATM   38  C   UNL     1      -7.548  12.824  68.093  1.00  0.00    -0.134 C  
HETATM   39  N   UNL     1      -6.186  12.565  67.600  1.00  0.00    -0.125 NA 
HETATM   40  C   UNL     1      -5.975  11.347  66.780  1.00  0.00    -0.143 C  
HETATM   41  H   UNL     1      -5.416  13.199  67.813  1.00  0.00     0.000 HD 
HETATM   42  C   UNL     1      -6.607  11.249  65.347  1.00  0.00     0.650 C  
ENDBRANCH  25  26
ENDBRANCH  23  25
ENDBRANCH   1  19
TORSDOF 4
ENDMDL
MODEL      100
REMARK 921   NORMALIZED FREE ENERGY PREDICTED BY IDOCK:   -3.16 KCAL/MOL
REMARK 922        TOTAL FREE ENERGY PREDICTED BY IDOCK:   -5.48 KCAL/MOL
REMARK 923 INTER-LIGAND FREE ENERGY PREDICTED BY IDOCK:   -4.27 KCAL/MOL
REMARK 924 INTRA-LIGAND FREE ENERGY PREDICTED BY IDOCK:   -1.21 KCAL/MOL
REMARK 927      BINDING AFFINITY PREDICTED BY RF-SCORE:    0.00 PKD
ROOT
HETATM    1  C   UNL     1     -10.591  13.055  67.743  1.00  0.00    -0.226 C  
ENDROOT
BRANCH   1   2
HETATM    2  N   UNL     1     -12.005  12.744  67.823  1.00  0.00    -0.318 NA 
HETATM    3  C   UNL     1     -12.643  13.081  66.530  1.00  0.00     0.328 C  
HETATM    4  C   UNL     1     -11.941  12.479  65.263  1.00  0.00    -0.438 C  
HETATM    5  C   UNL     1     -12.775  13.268  68.989  1.00  0.00     0.856 C  
HETATM    6  C   UNL     1     -12.168  14.082  70.174  1.00  0.00    -0.425 C  
HETATM    7  H   UNL     1     -11.734  13.534  63.352  1.00  0.00     0.000 HD 
HETATM    8  C   UNL     1     -11.759  15.518  69.837  1.00  0.00    -0.352 C  
HETATM    9  N   UNL     1     -11.315  13.388  64.271  1.00  0.00    -0.387 NA 
HETATM   10  C   UNL     1     -10.067  14.073  64.657  1.00  0.00    -0.067 C  
HETATM   11  N   UNL     1     -10.455  15.886  70.411  1.00  0.00    -0.187 NA 
HETATM   12  C   UNL     1     -10.320  15.468  65.251  1.00  0.00    -0.416 C  
HETATM   13  H   UNL     1      -9.841  15.076  70.492  1.00  0.00     0.000 HD 
HETATM   14  H   UNL     1      -9.423  17.894  66.936  1.00  0.00     0.000 HD 
HETATM   15  C   UNL     1      -9.111  16.083  65.981  1.00  0.00    -0.326 C  
HETATM   16  C   UNL     1      -9.813  16.975  69.646  1.00  0.00     0.214 C  
HETATM   17  C   UNL     1      -9.028  16.492  68.398  1.00  0.00    -0.219 C  
HETATM   18  N   UNL     1      -9.592  16.904  67.108  1.00  0.00    -0.239 NA 
ENDBRANCH   1   2
BRANCH   1  19
HETATM   19  C   UNL     1      -9.612  11.963  68.022  1.00  0.00    -0.193 A  
HETATM   20  C   UNL     1      -8.542  11.741  67.173  1.00  0.00    -0.168 A  
HETATM   21  C   UNL     1      -8.076  10.454  67.077  1.00  0.00    -0.116 A  
HETATM   22  C   UNL     1      -9.924  11.092  69.055  1.00  0.00    -0.155 A  
HETATM   23  C   UNL     1      -8.458   9.503  68.021  1.00  0.00    -0.119 A  
HETATM   24  C   UNL     1      -9.403   9.817  69.012  1.00  0.00    -0.161 A  
BRANCH  23  25
HETATM   25  C   UNL     1      -7.886   8.133  68.023  1.00  0.00    -0.122 C  
BRANCH  25  26
HETATM   26  N   UNL     1      -6.821   7.843  68.966  1.00  0.00    -0.056 NA 
HETATM   27  C   UNL     1     -10.111   4.237  67.352  1.00  0.00     0.030 C  
HETATM   28  H   UNL     1     -10.508   5.696  68.785  1.00  0.00     0.000 HD 
HETATM   29  N   UNL     1     -10.003   4.813  68.707  1.00  0.00    -0.145 NA 
HETATM   30  C   UNL     1      -9.856   5.256  66.211  1.00  0.00    -0.182 C  
HETATM   31  C   UNL     1      -8.591   4.956  69.099  1.00  0.00    -0.080 C  
HETATM   32  C   UNL     1      -7.071   6.829  70.027  1.00  0.00    -0.071 C  
HETATM   33  N   UNL     1      -8.634   4.997  65.447  1.00  0.00    -0.137 NA 
HETATM   34  H   UNL     1      -8.744   4.174  64.854  1.00  0.00     0.000 HD 
HETATM   35  C   UNL     1      -8.393   6.021  70.175  1.00  0.00    -0.120 C  
HETATM   36  C   UNL     1      -8.188   6.156  64.657  1.00  0.00    -0.094 C  
HETATM   37  C   UNL     1      -6.735   6.495  65.036  1.00  0.00    -0.042 C  
HETATM   38  C   UNL     1      -6.434   8.000  65.070  1.00  0.00    -0.048 C  
HETATM   39  N   UNL     1      -5.145   8.296  65.714  1.00  0.00    -0.028 NA 
HETATM   40  C   UNL     1      -5.166   8.667  67.150  1.00  0.00    -0.033 C  
HETATM   41  H   UNL     1      -4.269   8.248  65.193  1.00  0.00     0.000 HD 
HETATM   42  C   UNL     1      -5.559   7.597  68.228  1.00  0.00    -0.028 C  
ENDBRANCH  25  26
ENDBRANCH  23  25
ENDBRANCH   1  19
TORSDOF 4
ENDMDL
MODEL      101
REMARK 921   NORMALIZED FREE ENERGY PREDICTED BY IDOCK:   -3.12 KCAL/MOL
REMARK 922        TOTAL FREE ENERGY PREDICTED BY IDOCK:   -5.43 KCAL/MOL
REMARK 923 INTER-LIGAND FREE ENERGY PREDICTED BY IDOCK:   -4.12 KCAL/MOL
REMARK 924 INTRA-LIGAND FREE ENERGY PREDICTED BY IDOCK:   -1.31 KCAL/MOL
REMARK 927      BINDING AFFINITY PREDICTED BY RF-SCORE:    0.00 PKD
ROOT
HETATM    1  C   UNL     1      -8.465   5.058  64.771  1.00  0.00    -0.148 C  
ENDROOT
BRANCH   1   2
HETATM    2  N   UNL     1      -7.836   5.356  63.498  1.00  0.00    -0.087 NA 
HETATM    3  C   UNL     1      -8.208   4.305  62.524  1.00  0.00    -0.078 C  
HETATM    4  C   UNL     1      -9.746   4.017  62.409  1.00  0.00    -0.128 C  
HETATM    5  C   UNL     1      -6.372   5.646  63.490  1.00  0.00    -0.025 C  
HETATM    6  C   UNL     1      -5.462   5.714  64.755  1.00  0.00    -0.013 C  
HETATM    7  H   UNL     1     -10.606   2.020  62.125  1.00  0.00     0.000 HD 
HETATM    8  C   UNL     1      -5.160   4.366  65.415  1.00  0.00    -0.009 C  
HETATM    9  N   UNL     1     -10.275   2.692  62.818  1.00  0.00    -0.102 NA 
HETATM   10  C   UNL     1     -10.307   2.379  64.259  1.00  0.00     0.173 C  
HETATM   11  N   UNL     1      -5.258   4.420  66.883  1.00  0.00    -0.011 NA 
HETATM   12  C   UNL     1      -9.050   1.628  64.727  1.00  0.00    -0.123 C  
HETATM   13  H   UNL     1      -5.942   5.114  67.186  1.00  0.00     0.000 HD 
HETATM   14  H   UNL     1      -7.118   0.717  66.955  1.00  0.00     0.000 HD 
HETATM   15  C   UNL     1      -8.866   1.580  66.256  1.00  0.00    -0.117 C  
HETATM   16  C   UNL     1      -5.548   3.090  67.456  1.00  0.00    -0.018 C  
HETATM   17  C   UNL     1      -7.055   2.718  67.457  1.00  0.00    -0.053 C  
HETATM   18  N   UNL     1      -7.425   1.610  66.570  1.00  0.00    -0.059 NA 
ENDBRANCH   1   2
BRANCH   1  19
HETATM   19  C   UNL     1      -8.930   6.202  65.612  1.00  0.00    -0.056 A  
HETATM   20  C   UNL     1      -8.565   7.500  65.300  1.00  0.00    -0.023 A  
HETATM   21  C   UNL     1      -8.452   8.384  66.342  1.00  0.00    -0.127 A  
HETATM   22  C   UNL     1      -9.583   5.885  66.792  1.00  0.00    -0.165 A  
HETATM   23  C   UNL     1      -8.984   8.064  67.590  1.00  0.00    -0.138 A  
HETATM   24  C   UNL     1      -9.541   6.796  67.825  1.00  0.00    -0.133 A  
BRANCH  23  25
HETATM   25  C   UNL     1      -8.987   9.037  68.709  1.00  0.00    -0.137 C  
BRANCH  25  26
HETATM   26  N   UNL     1      -7.843   9.048  69.603  1.00  0.00    -0.084 NA 
HETATM   27  C   UNL     1     -10.102  13.376  67.992  1.00  0.00    -0.241 C  
HETATM   28  H   UNL     1      -8.784  12.204  66.885  1.00  0.00     0.000 HD 
HETATM   29  N   UNL     1      -8.754  12.882  67.645  1.00  0.00    -0.173 NA 
HETATM   30  C   UNL     1     -11.166  12.257  68.136  1.00  0.00    -0.269 C  
HETATM   31  C   UNL     1      -8.078  12.340  68.835  1.00  0.00     0.160 C  
HETATM   32  C   UNL     1      -6.856  10.155  69.478  1.00  0.00    -0.079 C  
HETATM   33  N   UNL     1     -11.660  12.080  69.504  1.00  0.00    -0.331 NA 
HETATM   34  H   UNL     1     -12.262  12.857  69.775  1.00  0.00     0.000 HD 
HETATM   35  C   UNL     1      -6.985  11.337  68.473  1.00  0.00    -0.078 C  
HETATM   36  C   UNL     1     -12.341  10.792  69.713  1.00  0.00    -0.236 C  
HETATM   37  C   UNL     1     -11.668  10.050  70.882  1.00  0.00    -0.462 C  
HETATM   38  C   UNL     1     -11.574   8.530  70.684  1.00  0.00    -0.194 C  
HETATM   39  N   UNL     1     -10.676   7.896  71.662  1.00  0.00    -0.219 NA 
HETATM   40  C   UNL     1      -9.276   7.642  71.243  1.00  0.00    -0.145 C  
HETATM   41  H   UNL     1     -11.004   7.641  72.593  1.00  0.00     0.000 HD 
HETATM   42  C   UNL     1      -8.302   8.849  70.999  1.00  0.00    -0.191 C  
ENDBRANCH  25  26
ENDBRANCH  23  25
ENDBRANCH   1  19
TORSDOF 4
ENDMDL
MODEL      102
REMARK 921   NORMALIZED FREE ENERGY PREDICTED BY IDOCK:   -3.12 KCAL/MOL
REMARK 922        TOTAL FREE ENERGY PREDICTED BY IDOCK:   -5.43 KCAL/MOL
REMARK 923 INTER-LIGAND FREE ENERGY PREDICTED BY IDOCK:   -4.59 KCAL/MOL
REMARK 924 INTRA-LIGAND FREE ENERGY PREDICTED BY IDOCK:   -0.84 KCAL/MOL
REMARK 927      BINDING AFFINITY PREDICTED BY RF-SCORE:    0.00 PKD
ROOT
HETATM    1  C   UNL     1      -8.157  14.958  68.311  1.00  0.00    -0.132 C  
ENDROOT
BRANCH   1   2
HETATM    2  N   UNL     1      -8.086  15.173  69.744  1.00  0.00    -0.103 NA 
HETATM    3  C   UNL     1      -9.337  15.825  70.192  1.00  0.00     0.500 C  
HETATM    4  C   UNL     1     -10.660  15.117  69.731  1.00  0.00    -0.252 C  
HETATM    5  C   UNL     1      -6.870  15.840  70.294  1.00  0.00     0.339 C  
HETATM    6  C   UNL     1      -5.629  16.278  69.457  1.00  0.00    -0.143 C  
HETATM    7  H   UNL     1     -12.477  16.183  69.122  1.00  0.00     0.000 HD 
HETATM    8  C   UNL     1      -5.848  17.492  68.551  1.00  0.00    -0.162 C  
HETATM    9  N   UNL     1     -11.579  15.819  68.801  1.00  0.00    -0.382 NA 
HETATM   10  C   UNL     1     -11.152  15.973  67.398  1.00  0.00    -0.167 C  
HETATM   11  N   UNL     1      -5.261  17.315  67.213  1.00  0.00    -0.127 NA 
HETATM   12  C   UNL     1     -10.439  17.310  67.142  1.00  0.00    -0.297 C  
HETATM   13  H   UNL     1      -5.257  16.334  66.934  1.00  0.00     0.000 HD 
HETATM   14  H   UNL     1      -8.566  19.098  65.461  1.00  0.00     0.000 HD 
HETATM   15  C   UNL     1      -9.675  17.383  65.806  1.00  0.00     0.049 C  
HETATM   16  C   UNL     1      -5.938  18.158  66.207  1.00  0.00    -0.184 C  
HETATM   17  C   UNL     1      -7.233  17.531  65.626  1.00  0.00     0.220 C  
HETATM   18  N   UNL     1      -8.476  18.225  65.980  1.00  0.00    -0.511 NA 
ENDBRANCH   1   2
BRANCH   1  19
HETATM   19  C   UNL     1      -8.061  13.557  67.803  1.00  0.00    -0.177 A  
HETATM   20  C   UNL     1      -9.188  12.891  67.354  1.00  0.00    -0.197 A  
HETATM   21  C   UNL     1      -9.207  11.527  67.499  1.00  0.00    -0.166 A  
HETATM   22  C   UNL     1      -6.844  12.915  67.965  1.00  0.00    -0.108 A  
HETATM   23  C   UNL     1      -8.029  10.840  67.787  1.00  0.00    -0.110 A  
HETATM   24  C   UNL     1      -6.837  11.539  68.039  1.00  0.00    -0.064 A  
BRANCH  23  25
HETATM   25  C   UNL     1      -7.984   9.358  67.836  1.00  0.00    -0.092 C  
BRANCH  25  26
HETATM   26  N   UNL     1      -6.809   8.696  67.298  1.00  0.00    -0.067 NA 
HETATM   27  C   UNL     1      -8.166   8.277  72.239  1.00  0.00    -0.155 C  
HETATM   28  H   UNL     1      -7.213   9.913  71.371  1.00  0.00     0.000 HD 
HETATM   29  N   UNL     1      -6.985   8.970  71.686  1.00  0.00    -0.265 NA 
HETATM   30  C   UNL     1      -9.438   8.399  71.359  1.00  0.00    -0.192 C  
HETATM   31  C   UNL     1      -6.368   8.171  70.616  1.00  0.00    -0.036 C  
HETATM   32  C   UNL     1      -5.614   8.550  68.173  1.00  0.00    -0.035 C  
HETATM   33  N   UNL     1      -9.867   7.134  70.758  1.00  0.00    -0.179 NA 
HETATM   34  H   UNL     1     -10.265   6.514  71.464  1.00  0.00     0.000 HD 
HETATM   35  C   UNL     1      -5.547   9.027  69.654  1.00  0.00    -0.033 C  
HETATM   36  C   UNL     1     -10.798   7.312  69.633  1.00  0.00    -0.222 C  
HETATM   37  C   UNL     1     -10.229   6.604  68.390  1.00  0.00    -0.188 C  
HETATM   38  C   UNL     1     -10.483   7.353  67.074  1.00  0.00    -0.333 C  
HETATM   39  N   UNL     1      -9.684   6.814  65.963  1.00  0.00    -0.395 NA 
HETATM   40  C   UNL     1      -8.404   7.493  65.647  1.00  0.00    -0.140 C  
HETATM   41  H   UNL     1      -9.997   6.002  65.430  1.00  0.00     0.000 HD 
HETATM   42  C   UNL     1      -7.207   7.419  66.660  1.00  0.00    -0.080 C  
ENDBRANCH  25  26
ENDBRANCH  23  25
ENDBRANCH   1  19
TORSDOF 4
ENDMDL
MODEL      103
REMARK 921   NORMALIZED FREE ENERGY PREDICTED BY IDOCK:   -3.11 KCAL/MOL
REMARK 922        TOTAL FREE ENERGY PREDICTED BY IDOCK:   -5.41 KCAL/MOL
REMARK 923 INTER-LIGAND FREE ENERGY PREDICTED BY IDOCK:   -4.22 KCAL/MOL
REMARK 924 INTRA-LIGAND FREE ENERGY PREDICTED BY IDOCK:   -1.19 KCAL/MOL
REMARK 927      BINDING AFFINITY PREDICTED BY RF-SCORE:    0.00 PKD
ROOT
HETATM    1  C   UNL     1      -7.266   6.437  70.871  1.00  0.00    -0.071 C  
ENDROOT
BRANCH   1   2
HETATM    2  N   UNL     1      -6.325   5.647  71.641  1.00  0.00    -0.042 NA 
HETATM    3  C   UNL     1      -6.534   4.215  71.328  1.00  0.00    -0.019 C  
HETATM    4  C   UNL     1      -6.544   3.861  69.800  1.00  0.00    -0.033 C  
HETATM    5  C   UNL     1      -6.232   5.900  73.109  1.00  0.00    -0.058 C  
HETATM    6  C   UNL     1      -7.028   6.995  73.884  1.00  0.00    -0.080 C  
HETATM    7  H   UNL     1      -7.872   2.372  68.890  1.00  0.00     0.000 HD 
HETATM    8  C   UNL     1      -8.523   6.715  74.058  1.00  0.00    -0.131 C  
HETATM    9  N   UNL     1      -7.789   3.348  69.175  1.00  0.00    -0.051 NA 
HETATM   10  C   UNL     1      -8.902   4.297  68.980  1.00  0.00    -0.096 C  
HETATM   11  N   UNL     1      -9.355   7.903  73.810  1.00  0.00    -0.333 NA 
HETATM   12  C   UNL     1      -9.901   4.282  70.148  1.00  0.00    -0.271 C  
HETATM   13  H   UNL     1      -8.921   8.526  73.128  1.00  0.00     0.000 HD 
HETATM   14  H   UNL     1     -12.152   5.601  71.798  1.00  0.00     0.000 HD 
HETATM   15  C   UNL     1     -10.878   5.473  70.170  1.00  0.00    -0.229 C  
HETATM   16  C   UNL     1     -10.726   7.531  73.405  1.00  0.00    -0.332 C  
HETATM   17  C   UNL     1     -10.875   7.220  71.892  1.00  0.00    -0.226 C  
HETATM   18  N   UNL     1     -11.183   5.822  71.570  1.00  0.00    -0.222 NA 
ENDBRANCH   1   2
BRANCH   1  19
HETATM   19  C   UNL     1      -6.726   7.516  69.991  1.00  0.00    -0.046 A  
HETATM   20  C   UNL     1      -5.989   8.559  70.525  1.00  0.00    -0.031 A  
HETATM   21  C   UNL     1      -6.058   9.767  69.880  1.00  0.00    -0.045 A  
HETATM   22  C   UNL     1      -7.142   7.512  68.669  1.00  0.00    -0.081 A  
HETATM   23  C   UNL     1      -6.583   9.841  68.591  1.00  0.00    -0.051 A  
HETATM   24  C   UNL     1      -7.146   8.707  67.983  1.00  0.00    -0.082 A  
BRANCH  23  25
HETATM   25  C   UNL     1      -6.567  11.105  67.814  1.00  0.00    -0.064 C  
BRANCH  25  26
HETATM   26  N   UNL     1      -5.365  11.429  67.068  1.00  0.00    -0.077 NA 
HETATM   27  C   UNL     1      -9.831  10.386  64.745  1.00  0.00    -0.340 C  
HETATM   28  H   UNL     1      -8.525   8.984  65.563  1.00  0.00     0.000 HD 
HETATM   29  N   UNL     1      -8.599   9.572  64.733  1.00  0.00    -0.164 NA 
HETATM   30  C   UNL     1     -10.101  11.100  66.095  1.00  0.00    -0.238 C  
HETATM   31  C   UNL     1      -7.413  10.427  64.562  1.00  0.00    -0.024 C  
HETATM   32  C   UNL     1      -5.145  10.767  65.754  1.00  0.00    -0.118 C  
HETATM   33  N   UNL     1      -9.992  12.559  66.027  1.00  0.00    -0.254 NA 
HETATM   34  H   UNL     1     -10.779  12.959  65.517  1.00  0.00     0.000 HD 
HETATM   35  C   UNL     1      -6.143   9.769  65.096  1.00  0.00    -0.086 C  
HETATM   36  C   UNL     1      -9.848  13.192  67.348  1.00  0.00    -0.226 C  
HETATM   37  C   UNL     1      -8.572  14.055  67.357  1.00  0.00    -0.211 C  
HETATM   38  C   UNL     1      -7.810  14.027  68.689  1.00  0.00    -0.130 C  
HETATM   39  N   UNL     1      -6.465  14.610  68.573  1.00  0.00    -0.084 NA 
HETATM   40  C   UNL     1      -5.331  13.679  68.356  1.00  0.00    -0.098 C  
HETATM   41  H   UNL     1      -6.316  15.617  68.640  1.00  0.00     0.000 HD 
HETATM   42  C   UNL     1      -5.207  12.902  66.997  1.00  0.00     0.418 C  
ENDBRANCH  25  26
ENDBRANCH  23  25
ENDBRANCH   1  19
TORSDOF 4
ENDMDL
MODEL      104
REMARK 921   NORMALIZED FREE ENERGY PREDICTED BY IDOCK:   -3.05 KCAL/MOL
REMARK 922        TOTAL FREE ENERGY PREDICTED BY IDOCK:   -5.34 KCAL/MOL
REMARK 923 INTER-LIGAND FREE ENERGY PREDICTED BY IDOCK:   -4.29 KCAL/MOL
REMARK 924 INTRA-LIGAND FREE ENERGY PREDICTED BY IDOCK:   -1.05 KCAL/MOL
REMARK 927      BINDING AFFINITY PREDICTED BY RF-SCORE:    0.00 PKD
ROOT
HETATM    1  C   UNL     1      -8.787  11.072  67.985  1.00  0.00    -0.138 C  
ENDROOT
BRANCH   1   2
HETATM    2  N   UNL     1      -9.209  10.403  66.769  1.00  0.00    -0.153 NA 
HETATM    3  C   UNL     1      -8.060  10.333  65.839  1.00  0.00    -0.143 C  
HETATM    4  C   UNL     1      -6.741   9.745  66.451  1.00  0.00    -0.080 C  
HETATM    5  C   UNL     1     -10.454  10.883  66.099  1.00  0.00    -0.229 C  
HETATM    6  C   UNL     1     -11.382  12.016  66.634  1.00  0.00    -0.399 C  
HETATM    7  H   UNL     1      -4.730  10.484  65.984  1.00  0.00     0.000 HD 
HETATM    8  C   UNL     1     -10.813  13.433  66.522  1.00  0.00    -0.282 C  
HETATM    9  N   UNL     1      -5.544  10.613  66.585  1.00  0.00    -0.057 NA 
HETATM   10  C   UNL     1      -5.572  11.668  67.615  1.00  0.00    -0.060 C  
HETATM   11  N   UNL     1     -11.044  14.234  67.735  1.00  0.00    -0.271 NA 
HETATM   12  C   UNL     1      -6.054  13.019  67.063  1.00  0.00     0.529 C  
HETATM   13  H   UNL     1     -11.074  13.647  68.569  1.00  0.00     0.000 HD 
HETATM   14  H   UNL     1      -7.233  15.842  67.473  1.00  0.00     0.000 HD 
HETATM   15  C   UNL     1      -6.431  14.053  68.141  1.00  0.00    -0.126 C  
HETATM   16  C   UNL     1     -10.046  15.314  67.871  1.00  0.00    -0.233 C  
HETATM   17  C   UNL     1      -8.714  14.864  68.528  1.00  0.00    -0.172 C  
HETATM   18  N   UNL     1      -7.543  14.886  67.644  1.00  0.00    -0.164 NA 
ENDBRANCH   1   2
BRANCH   1  19
HETATM   19  C   UNL     1      -8.688  10.263  69.236  1.00  0.00    -0.182 A  
HETATM   20  C   UNL     1      -7.453   9.927  69.763  1.00  0.00    -0.140 A  
HETATM   21  C   UNL     1      -7.371   8.750  70.461  1.00  0.00    -0.066 A  
HETATM   22  C   UNL     1      -9.868   9.731  69.732  1.00  0.00    -0.262 A  
HETATM   23  C   UNL     1      -8.533   8.104  70.879  1.00  0.00    -0.136 A  
HETATM   24  C   UNL     1      -9.796   8.588  70.499  1.00  0.00    -0.206 A  
BRANCH  23  25
HETATM   25  C   UNL     1      -8.488   6.894  71.736  1.00  0.00    -0.115 C  
BRANCH  25  26
HETATM   26  N   UNL     1      -9.444   6.795  72.824  1.00  0.00    -0.142 NA 
HETATM   27  C   UNL     1      -8.263   2.777  69.841  1.00  0.00    -0.040 C  
HETATM   28  H   UNL     1      -9.536   4.344  69.328  1.00  0.00     0.000 HD 
HETATM   29  N   UNL     1      -9.547   3.503  69.905  1.00  0.00    -0.180 NA 
HETATM   30  C   UNL     1      -7.017   3.685  70.008  1.00  0.00    -0.041 C  
HETATM   31  C   UNL     1      -9.905   3.803  71.301  1.00  0.00    -0.149 C  
HETATM   32  C   UNL     1     -10.610   5.884  72.662  1.00  0.00    -0.221 C  
HETATM   33  N   UNL     1      -6.270   3.448  71.245  1.00  0.00    -0.014 NA 
HETATM   34  H   UNL     1      -5.770   2.560  71.202  1.00  0.00     0.000 HD 
HETATM   35  C   UNL     1     -10.860   4.990  71.412  1.00  0.00    -0.010 C  
HETATM   36  C   UNL     1      -5.356   4.547  71.592  1.00  0.00    -0.004 C  
HETATM   37  C   UNL     1      -5.680   5.044  73.012  1.00  0.00    -0.021 C  
HETATM   38  C   UNL     1      -5.550   6.564  73.187  1.00  0.00    -0.038 C  
HETATM   39  N   UNL     1      -6.144   7.033  74.448  1.00  0.00    -0.077 NA 
HETATM   40  C   UNL     1      -7.532   7.553  74.400  1.00  0.00    -0.132 C  
HETATM   41  H   UNL     1      -5.621   7.002  75.323  1.00  0.00     0.000 HD 
HETATM   42  C   UNL     1      -8.723   6.576  74.100  1.00  0.00    -0.139 C  
ENDBRANCH  25  26
ENDBRANCH  23  25
ENDBRANCH   1  19
TORSDOF 4
ENDMDL
MODEL      105
REMARK 921   NORMALIZED FREE ENERGY PREDICTED BY IDOCK:   -3.04 KCAL/MOL
REMARK 922        TOTAL FREE ENERGY PREDICTED BY IDOCK:   -5.33 KCAL/MOL
REMARK 923 INTER-LIGAND FREE ENERGY PREDICTED BY IDOCK:   -5.08 KCAL/MOL
REMARK 924 INTRA-LIGAND FREE ENERGY PREDICTED BY IDOCK:   -0.24 KCAL/MOL
REMARK 927      BINDING AFFINITY PREDICTED BY RF-SCORE:    0.00 PKD
ROOT
HETATM    1  C   UNL     1      -7.441  16.640  67.351  1.00  0.00    -0.161 C  
ENDROOT
BRANCH   1   2
HETATM    2  N   UNL     1      -6.377  17.144  68.197  1.00  0.00    -0.144 NA 
HETATM    3  C   UNL     1      -6.775  16.983  69.613  1.00  0.00    -0.063 C  
HETATM    4  C   UNL     1      -7.259  15.545  70.010  1.00  0.00     0.080 C  
HETATM    5  C   UNL     1      -5.838  18.507  67.910  1.00  0.00    -0.175 C  
HETATM    6  C   UNL     1      -6.288  19.420  66.728  1.00  0.00    -0.186 C  
HETATM    7  H   UNL     1      -8.902  15.140  71.404  1.00  0.00     0.000 HD 
HETATM    8  C   UNL     1      -7.682  20.035  66.872  1.00  0.00    -0.293 C  
HETATM    9  N   UNL     1      -8.667  15.336  70.431  1.00  0.00     0.790 NA 
HETATM   10  C   UNL     1      -9.715  15.422  69.396  1.00  0.00    -0.273 C  
HETATM   11  N   UNL     1      -8.460  19.976  65.623  1.00  0.00    -0.486 NA 
HETATM   12  C   UNL     1     -10.324  16.829  69.290  1.00  0.00    -0.309 C  
HETATM   13  H   UNL     1      -8.201  19.165  65.061  1.00  0.00     0.000 HD 
HETATM   14  H   UNL     1     -11.887  18.988  67.733  1.00  0.00     0.000 HD 
HETATM   15  C   UNL     1     -11.160  17.070  68.018  1.00  0.00    -0.149 C  
HETATM   16  C   UNL     1      -9.913  20.007  65.887  1.00  0.00    -0.368 C  
HETATM   17  C   UNL     1     -10.522  18.622  66.229  1.00  0.00    -0.424 C  
HETATM   18  N   UNL     1     -11.014  18.478  67.603  1.00  0.00    -0.266 NA 
ENDBRANCH   1   2
BRANCH   1  19
HETATM   19  C   UNL     1      -7.425  15.191  66.986  1.00  0.00    -0.073 A  
HETATM   20  C   UNL     1      -8.582  14.555  66.571  1.00  0.00     0.022 A  
HETATM   21  C   UNL     1      -8.694  13.218  66.849  1.00  0.00    -0.152 A  
HETATM   22  C   UNL     1      -6.257  14.494  67.248  1.00  0.00     0.398 A  
HETATM   23  C   UNL     1      -7.571  12.490  67.239  1.00  0.00    -0.131 A  
HETATM   24  C   UNL     1      -6.342  13.134  67.457  1.00  0.00    -0.142 A  
BRANCH  23  25
HETATM   25  C   UNL     1      -7.624  11.020  67.435  1.00  0.00    -0.110 C  
BRANCH  25  26
HETATM   26  N   UNL     1      -6.490  10.233  66.984  1.00  0.00    -0.071 NA 
HETATM   27  C   UNL     1      -9.225   8.961  71.148  1.00  0.00    -0.256 C  
HETATM   28  H   UNL     1      -7.780  10.458  71.048  1.00  0.00     0.000 HD 
HETATM   29  N   UNL     1      -7.829   9.441  71.100  1.00  0.00    -0.329 NA 
HETATM   30  C   UNL     1     -10.155   9.622  70.097  1.00  0.00    -0.262 C  
HETATM   31  C   UNL     1      -7.098   8.802  69.995  1.00  0.00    -0.047 C  
HETATM   32  C   UNL     1      -5.636   9.570  68.006  1.00  0.00    -0.040 C  
HETATM   33  N   UNL     1     -10.627   8.702  69.060  1.00  0.00    -0.331 NA 
HETATM   34  H   UNL     1     -11.314   8.051  69.439  1.00  0.00     0.000 HD 
HETATM   35  C   UNL     1      -5.897   9.628  69.540  1.00  0.00    -0.033 C  
HETATM   36  C   UNL     1     -11.157   9.390  67.872  1.00  0.00     0.077 C  
HETATM   37  C   UNL     1     -10.406   8.892  66.624  1.00  0.00    -0.294 C  
HETATM   38  C   UNL     1     -10.139   9.984  65.579  1.00  0.00    -0.255 C  
HETATM   39  N   UNL     1      -9.177   9.551  64.554  1.00  0.00    -0.400 NA 
HETATM   40  C   UNL     1      -7.757   9.934  64.743  1.00  0.00    -0.138 C  
HETATM   41  H   UNL     1      -9.475   9.008  63.744  1.00  0.00     0.000 HD 
HETATM   42  C   UNL     1      -6.926   9.303  65.915  1.00  0.00    -0.089 C  
ENDBRANCH  25  26
ENDBRANCH  23  25
ENDBRANCH   1  19
TORSDOF 4
ENDMDL
MODEL      106
REMARK 921   NORMALIZED FREE ENERGY PREDICTED BY IDOCK:   -3.03 KCAL/MOL
REMARK 922        TOTAL FREE ENERGY PREDICTED BY IDOCK:   -5.32 KCAL/MOL
REMARK 923 INTER-LIGAND FREE ENERGY PREDICTED BY IDOCK:   -4.01 KCAL/MOL
REMARK 924 INTRA-LIGAND FREE ENERGY PREDICTED BY IDOCK:   -1.31 KCAL/MOL
REMARK 927      BINDING AFFINITY PREDICTED BY RF-SCORE:    0.00 PKD
ROOT
HETATM    1  C   UNL     1      -8.505   5.051  64.983  1.00  0.00    -0.146 C  
ENDROOT
BRANCH   1   2
HETATM    2  N   UNL     1      -7.772   5.658  63.889  1.00  0.00    -0.088 NA 
HETATM    3  C   UNL     1      -7.599   4.655  62.814  1.00  0.00    -0.060 C  
HETATM    4  C   UNL     1      -8.915   3.932  62.360  1.00  0.00    -0.092 C  
HETATM    5  C   UNL     1      -6.501   6.374  64.207  1.00  0.00    -0.033 C  
HETATM    6  C   UNL     1      -5.919   6.577  65.640  1.00  0.00    -0.033 C  
HETATM    7  H   UNL     1      -9.029   1.811  61.815  1.00  0.00     0.000 HD 
HETATM    8  C   UNL     1      -5.339   5.320  66.293  1.00  0.00    -0.012 C  
HETATM    9  N   UNL     1      -9.066   2.473  62.590  1.00  0.00    -0.087 NA 
HETATM   10  C   UNL     1      -9.272   2.013  63.976  1.00  0.00    -0.114 C  
HETATM   11  N   UNL     1      -5.727   5.185  67.706  1.00  0.00    -0.016 NA 
HETATM   12  C   UNL     1      -7.957   1.629  64.672  1.00  0.00    -0.069 C  
HETATM   13  H   UNL     1      -6.640   5.605  67.884  1.00  0.00     0.000 HD 
HETATM   14  H   UNL     1      -6.298   1.109  67.223  1.00  0.00     0.000 HD 
HETATM   15  C   UNL     1      -8.062   1.476  66.201  1.00  0.00    -0.076 C  
HETATM   16  C   UNL     1      -5.686   3.776  68.148  1.00  0.00    -0.022 C  
HETATM   17  C   UNL     1      -6.968   2.971  67.810  1.00  0.00    -0.049 C  
HETATM   18  N   UNL     1      -6.792   1.904  66.818  1.00  0.00    -0.038 NA 
ENDBRANCH   1   2
BRANCH   1  19
HETATM   19  C   UNL     1      -9.114   5.951  66.008  1.00  0.00    -0.154 A  
HETATM   20  C   UNL     1      -9.324   7.292  65.735  1.00  0.00     0.159 A  
HETATM   21  C   UNL     1      -9.269   8.162  66.793  1.00  0.00    -0.206 A  
HETATM   22  C   UNL     1      -9.289   5.424  67.278  1.00  0.00    -0.118 A  
HETATM   23  C   UNL     1      -9.317   7.675  68.098  1.00  0.00    -0.146 A  
HETATM   24  C   UNL     1      -9.311   6.293  68.347  1.00  0.00    -0.113 A  
BRANCH  23  25
HETATM   25  C   UNL     1      -9.378   8.587  69.268  1.00  0.00    -0.154 C  
BRANCH  25  26
HETATM   26  N   UNL     1      -9.200  10.008  69.032  1.00  0.00    -0.167 NA 
HETATM   27  C   UNL     1     -12.637   8.201  72.401  1.00  0.00    -0.226 C  
HETATM   28  H   UNL     1     -12.863   8.241  70.331  1.00  0.00     0.000 HD 
HETATM   29  N   UNL     1     -12.907   8.885  71.120  1.00  0.00    -0.209 NA 
HETATM   30  C   UNL     1     -11.400   7.267  72.368  1.00  0.00    -0.284 C  
HETATM   31  C   UNL     1     -11.998  10.030  70.942  1.00  0.00    -0.361 C  
HETATM   32  C   UNL     1     -10.392  10.895  69.111  1.00  0.00    -0.208 C  
HETATM   33  N   UNL     1     -10.286   7.726  73.201  1.00  0.00    -0.340 NA 
HETATM   34  H   UNL     1     -10.502   7.610  74.191  1.00  0.00     0.000 HD 
HETATM   35  C   UNL     1     -11.826  10.409  69.472  1.00  0.00    -0.218 C  
HETATM   36  C   UNL     1      -9.006   7.083  72.864  1.00  0.00    -0.126 C  
HETATM   37  C   UNL     1      -7.963   8.170  72.547  1.00  0.00    -0.195 C  
HETATM   38  C   UNL     1      -7.003   7.800  71.409  1.00  0.00    -0.053 C  
HETATM   39  N   UNL     1      -6.225   8.957  70.938  1.00  0.00    -0.042 NA 
HETATM   40  C   UNL     1      -6.730   9.684  69.748  1.00  0.00    -0.062 C  
HETATM   41  H   UNL     1      -5.370   9.249  71.412  1.00  0.00     0.000 HD 
HETATM   42  C   UNL     1      -8.063  10.507  69.842  1.00  0.00     0.152 C  
ENDBRANCH  25  26
ENDBRANCH  23  25
ENDBRANCH   1  19
TORSDOF 4
ENDMDL
MODEL      107
REMARK 921   NORMALIZED FREE ENERGY PREDICTED BY IDOCK:   -3.02 KCAL/MOL
REMARK 922        TOTAL FREE ENERGY PREDICTED BY IDOCK:   -5.31 KCAL/MOL
REMARK 923 INTER-LIGAND FREE ENERGY PREDICTED BY IDOCK:   -4.53 KCAL/MOL
REMARK 924 INTRA-LIGAND FREE ENERGY PREDICTED BY IDOCK:   -0.78 KCAL/MOL
REMARK 927      BINDING AFFINITY PREDICTED BY RF-SCORE:    0.00 PKD
ROOT
HETATM    1  C   UNL     1      -9.640  12.221  66.195  1.00  0.00    -0.240 C  
ENDROOT
BRANCH   1   2
HETATM    2  N   UNL     1     -10.653  12.235  65.157  1.00  0.00    -0.276 NA 
HETATM    3  C   UNL     1     -11.988  12.286  65.794  1.00  0.00    -0.293 C  
HETATM    4  C   UNL     1     -12.174  13.418  66.864  1.00  0.00    -0.289 C  
HETATM    5  C   UNL     1     -10.574  11.200  64.085  1.00  0.00    -0.368 C  
HETATM    6  C   UNL     1      -9.448  10.129  63.952  1.00  0.00    -0.332 C  
HETATM    7  H   UNL     1     -13.315  13.180  68.722  1.00  0.00     0.000 HD 
HETATM    8  C   UNL     1      -9.489   9.006  64.991  1.00  0.00     0.154 C  
HETATM    9  N   UNL     1     -12.402  13.052  68.285  1.00  0.00     0.043 NA 
HETATM   10  C   UNL     1     -11.265  12.498  69.044  1.00  0.00    -0.268 C  
HETATM   11  N   UNL     1      -8.158   8.684  65.531  1.00  0.00    -0.107 NA 
HETATM   12  C   UNL     1     -11.233  10.962  69.020  1.00  0.00    -0.327 C  
HETATM   13  H   UNL     1      -7.549   9.503  65.534  1.00  0.00     0.000 HD 
HETATM   14  H   UNL     1      -9.733   8.283  69.343  1.00  0.00     0.000 HD 
HETATM   15  C   UNL     1      -9.903  10.342  69.490  1.00  0.00    -0.220 C  
HETATM   16  C   UNL     1      -8.249   8.075  66.873  1.00  0.00    -0.115 C  
HETATM   17  C   UNL     1      -8.372   9.105  68.027  1.00  0.00    -0.120 C  
HETATM   18  N   UNL     1      -9.656   9.099  68.736  1.00  0.00    -0.157 NA 
ENDBRANCH   1   2
BRANCH   1  19
HETATM   19  C   UNL     1      -8.814  13.451  66.390  1.00  0.00     0.105 A  
HETATM   20  C   UNL     1      -7.854  13.505  67.386  1.00  0.00    -0.157 A  
HETATM   21  C   UNL     1      -7.592  14.734  67.934  1.00  0.00    -0.149 A  
HETATM   22  C   UNL     1      -9.174  14.569  65.654  1.00  0.00     0.283 A  
HETATM   23  C   UNL     1      -8.039  15.891  67.299  1.00  0.00    -0.213 A  
HETATM   24  C   UNL     1      -8.851  15.811  66.156  1.00  0.00    -0.346 A  
BRANCH  23  25
HETATM   25  C   UNL     1      -7.677  17.242  67.795  1.00  0.00    -0.190 C  
BRANCH  25  26
HETATM   26  N   UNL     1      -7.496  17.415  69.225  1.00  0.00    -0.109 NA 
HETATM   27  C   UNL     1      -6.006  20.972  65.825  1.00  0.00    -0.255 C  
HETATM   28  H   UNL     1      -4.994  19.205  66.264  1.00  0.00     0.000 HD 
HETATM   29  N   UNL     1      -5.146  20.126  66.676  1.00  0.00    -0.158 NA 
HETATM   30  C   UNL     1      -7.278  20.255  65.303  1.00  0.00    -0.122 C  
HETATM   31  C   UNL     1      -5.697  20.030  68.038  1.00  0.00    -0.205 C  
HETATM   32  C   UNL     1      -6.291  18.145  69.704  1.00  0.00    -0.179 C  
HETATM   33  N   UNL     1      -8.527  20.785  65.856  1.00  0.00    -0.062 NA 
HETATM   34  H   UNL     1      -8.735  21.704  65.465  1.00  0.00     0.000 HD 
HETATM   35  C   UNL     1      -5.218  18.778  68.769  1.00  0.00    -0.189 C  
HETATM   36  C   UNL     1      -9.669  19.873  65.687  1.00  0.00    -0.018 C  
HETATM   37  C   UNL     1     -10.299  19.592  67.063  1.00  0.00    -0.581 C  
HETATM   38  C   UNL     1     -10.794  18.150  67.240  1.00  0.00    -0.217 C  
HETATM   39  N   UNL     1     -11.112  17.838  68.642  1.00  0.00    -0.075 NA 
HETATM   40  C   UNL     1     -10.066  17.162  69.448  1.00  0.00    -0.116 C  
HETATM   41  H   UNL     1     -12.017  18.079  69.046  1.00  0.00     0.000 HD 
HETATM   42  C   UNL     1      -8.750  17.930  69.825  1.00  0.00     1.337 C  
ENDBRANCH  25  26
ENDBRANCH  23  25
ENDBRANCH   1  19
TORSDOF 4
ENDMDL
MODEL      108
REMARK 921   NORMALIZED FREE ENERGY PREDICTED BY IDOCK:   -3.01 KCAL/MOL
REMARK 922        TOTAL FREE ENERGY PREDICTED BY IDOCK:   -5.29 KCAL/MOL
REMARK 923 INTER-LIGAND FREE ENERGY PREDICTED BY IDOCK:   -4.81 KCAL/MOL
REMARK 924 INTRA-LIGAND FREE ENERGY PREDICTED BY IDOCK:   -0.48 KCAL/MOL
REMARK 927      BINDING AFFINITY PREDICTED BY RF-SCORE:    0.00 PKD
ROOT
HETATM    1  C   UNL     1      -7.077   7.316  71.193  1.00  0.00    -0.061 C  
ENDROOT
BRANCH   1   2
HETATM    2  N   UNL     1      -6.502   8.641  71.317  1.00  0.00    -0.055 NA 
HETATM    3  C   UNL     1      -6.115   8.865  72.728  1.00  0.00    -0.012 C  
HETATM    4  C   UNL     1      -5.229   7.737  73.363  1.00  0.00    -0.041 C  
HETATM    5  C   UNL     1      -7.263   9.792  70.747  1.00  0.00     0.003 C  
HETATM    6  C   UNL     1      -8.610   9.682  69.970  1.00  0.00    -0.237 C  
HETATM    7  H   UNL     1      -5.418   7.042  75.434  1.00  0.00     0.000 HD 
HETATM    8  C   UNL     1      -9.832   9.338  70.826  1.00  0.00    -0.283 C  
HETATM    9  N   UNL     1      -5.767   6.925  74.482  1.00  0.00    -0.063 NA 
HETATM   10  C   UNL     1      -6.824   5.943  74.174  1.00  0.00    -0.081 C  
HETATM   11  N   UNL     1     -10.700   8.330  70.196  1.00  0.00    -0.238 NA 
HETATM   12  C   UNL     1      -8.236   6.515  74.375  1.00  0.00    -0.138 C  
HETATM   13  H   UNL     1     -10.165   7.694  69.605  1.00  0.00     0.000 HD 
HETATM   14  H   UNL     1     -11.277   6.457  73.847  1.00  0.00     0.000 HD 
HETATM   15  C   UNL     1      -9.364   5.672  73.749  1.00  0.00    -0.137 C  
HETATM   16  C   UNL     1     -11.494   7.594  71.201  1.00  0.00    -0.275 C  
HETATM   17  C   UNL     1     -10.740   6.406  71.855  1.00  0.00    -0.224 C  
HETATM   18  N   UNL     1     -10.437   6.569  73.282  1.00  0.00    -0.238 NA 
ENDBRANCH   1   2
BRANCH   1  19
HETATM   19  C   UNL     1      -6.960   6.617  69.878  1.00  0.00    -0.063 A  
HETATM   20  C   UNL     1      -6.501   7.290  68.759  1.00  0.00    -0.040 A  
HETATM   21  C   UNL     1      -6.977   6.877  67.542  1.00  0.00    -0.083 A  
HETATM   22  C   UNL     1      -7.489   5.338  69.800  1.00  0.00    -0.065 A  
HETATM   23  C   UNL     1      -7.630   5.651  67.428  1.00  0.00    -0.089 A  
HETATM   24  C   UNL     1      -7.904   4.879  68.569  1.00  0.00    -0.081 A  
BRANCH  23  25
HETATM   25  C   UNL     1      -8.055   5.113  66.112  1.00  0.00    -0.108 C  
BRANCH  25  26
HETATM   26  N   UNL     1      -9.184   4.200  66.084  1.00  0.00    -0.140 NA 
HETATM   27  C   UNL     1      -9.789   9.305  66.051  1.00  0.00    -0.293 C  
HETATM   28  H   UNL     1      -9.337   8.142  67.718  1.00  0.00     0.000 HD 
HETATM   29  N   UNL     1     -10.142   8.365  67.133  1.00  0.00    -0.237 NA 
HETATM   30  C   UNL     1      -8.492   8.930  65.288  1.00  0.00    -0.169 C  
HETATM   31  C   UNL     1     -10.770   7.152  66.583  1.00  0.00    -0.022 C  
HETATM   32  C   UNL     1     -10.435   4.597  66.785  1.00  0.00    -0.030 C  
HETATM   33  N   UNL     1      -8.715   8.532  63.897  1.00  0.00    -0.413 NA 
HETATM   34  H   UNL     1      -8.966   9.338  63.324  1.00  0.00     0.000 HD 
HETATM   35  C   UNL     1     -10.636   5.955  67.521  1.00  0.00    -0.347 C  
HETATM   36  C   UNL     1      -7.577   7.806  63.311  1.00  0.00    -0.126 C  
HETATM   37  C   UNL     1      -8.066   6.449  62.774  1.00  0.00    -0.072 C  
HETATM   38  C   UNL     1      -7.066   5.301  62.977  1.00  0.00    -0.042 C  
HETATM   39  N   UNL     1      -7.673   3.984  62.728  1.00  0.00    -0.060 NA 
HETATM   40  C   UNL     1      -8.177   3.230  63.902  1.00  0.00    -0.089 C  
HETATM   41  H   UNL     1      -7.745   3.604  61.785  1.00  0.00     0.000 HD 
HETATM   42  C   UNL     1      -9.428   3.755  64.691  1.00  0.00    -0.165 C  
ENDBRANCH  25  26
ENDBRANCH  23  25
ENDBRANCH   1  19
TORSDOF 4
ENDMDL
MODEL      109
REMARK 921   NORMALIZED FREE ENERGY PREDICTED BY IDOCK:   -2.99 KCAL/MOL
REMARK 922        TOTAL FREE ENERGY PREDICTED BY IDOCK:   -5.27 KCAL/MOL
REMARK 923 INTER-LIGAND FREE ENERGY PREDICTED BY IDOCK:   -4.51 KCAL/MOL
REMARK 924 INTRA-LIGAND FREE ENERGY PREDICTED BY IDOCK:   -0.76 KCAL/MOL
REMARK 927      BINDING AFFINITY PREDICTED BY RF-SCORE:    0.00 PKD
ROOT
HETATM    1  C   UNL     1      -8.567  10.383  66.269  1.00  0.00    -0.142 C  
ENDROOT
BRANCH   1   2
HETATM    2  N   UNL     1      -9.909  10.067  65.819  1.00  0.00    -0.260 NA 
HETATM    3  C   UNL     1     -10.284   8.731  66.336  1.00  0.00    -0.186 C  
HETATM    4  C   UNL     1     -10.080   8.532  67.878  1.00  0.00    -0.207 C  
HETATM    5  C   UNL     1     -10.215  10.220  64.366  1.00  0.00    -0.035 C  
HETATM    6  C   UNL     1      -9.221  10.754  63.289  1.00  0.00    -0.295 C  
HETATM    7  H   UNL     1      -9.372   6.670  68.796  1.00  0.00     0.000 HD 
HETATM    8  C   UNL     1      -8.087   9.797  62.917  1.00  0.00    -0.139 C  
HETATM    9  N   UNL     1      -9.081   7.547  68.363  1.00  0.00    -0.134 NA 
HETATM   10  C   UNL     1      -7.653   7.878  68.200  1.00  0.00    -0.116 C  
HETATM   11  N   UNL     1      -6.784  10.475  62.810  1.00  0.00    -0.264 NA 
HETATM   12  C   UNL     1      -7.061   7.310  66.900  1.00  0.00    -0.086 C  
HETATM   13  H   UNL     1      -6.730  11.278  63.436  1.00  0.00     0.000 HD 
HETATM   14  H   UNL     1      -4.906   7.295  64.690  1.00  0.00     0.000 HD 
HETATM   15  C   UNL     1      -5.694   7.902  66.507  1.00  0.00    -0.039 C  
HETATM   16  C   UNL     1      -5.665   9.538  63.036  1.00  0.00    -0.082 C  
HETATM   17  C   UNL     1      -5.324   9.310  64.532  1.00  0.00    -0.054 C  
HETATM   18  N   UNL     1      -5.598   7.959  65.036  1.00  0.00    -0.036 NA 
ENDBRANCH   1   2
BRANCH   1  19
HETATM   19  C   UNL     1      -8.184  11.822  66.388  1.00  0.00    -0.006 A  
HETATM   20  C   UNL     1      -6.937  12.182  66.868  1.00  0.00     0.006 A  
HETATM   21  C   UNL     1      -6.845  13.378  67.533  1.00  0.00    -0.154 A  
HETATM   22  C   UNL     1      -9.183  12.755  66.163  1.00  0.00    -0.040 A  
HETATM   23  C   UNL     1      -7.880  14.307  67.442  1.00  0.00    -0.207 A  
HETATM   24  C   UNL     1      -9.068  13.990  66.764  1.00  0.00    -0.250 A  
BRANCH  23  25
HETATM   25  C   UNL     1      -7.771  15.658  68.047  1.00  0.00    -0.126 C  
BRANCH  25  26
HETATM   26  N   UNL     1      -7.507  15.744  69.473  1.00  0.00    -0.211 NA 
HETATM   27  C   UNL     1      -6.147  19.472  66.205  1.00  0.00    -0.170 C  
HETATM   28  H   UNL     1      -5.143  17.668  66.483  1.00  0.00     0.000 HD 
HETATM   29  N   UNL     1      -5.256  18.565  66.956  1.00  0.00    -0.128 NA 
HETATM   30  C   UNL     1      -7.459  18.805  65.716  1.00  0.00    -0.112 C  
HETATM   31  C   UNL     1      -5.731  18.397  68.338  1.00  0.00    -0.176 C  
HETATM   32  C   UNL     1      -6.264  16.427  69.924  1.00  0.00    -0.163 C  
HETATM   33  N   UNL     1      -8.665  19.320  66.368  1.00  0.00    -0.339 NA 
HETATM   34  H   UNL     1      -8.878  20.263  66.043  1.00  0.00     0.000 HD 
HETATM   35  C   UNL     1      -5.234  17.098  68.968  1.00  0.00    -0.147 C  
HETATM   36  C   UNL     1      -9.831  18.436  66.211  1.00  0.00    -0.331 C  
HETATM   37  C   UNL     1     -10.387  18.084  67.603  1.00  0.00    -0.397 C  
HETATM   38  C   UNL     1     -10.897  16.641  67.724  1.00  0.00    -0.292 C  
HETATM   39  N   UNL     1     -11.142  16.252  69.122  1.00  0.00    -0.318 NA 
HETATM   40  C   UNL     1     -10.065  15.515  69.826  1.00  0.00    -0.285 C  
HETATM   41  H   UNL     1     -12.019  16.481  69.590  1.00  0.00     0.000 HD 
HETATM   42  C   UNL     1      -8.716  16.241  70.171  1.00  0.00     1.413 C  
ENDBRANCH  25  26
ENDBRANCH  23  25
ENDBRANCH   1  19
TORSDOF 4
ENDMDL
MODEL      110
REMARK 921   NORMALIZED FREE ENERGY PREDICTED BY IDOCK:   -2.90 KCAL/MOL
REMARK 922        TOTAL FREE ENERGY PREDICTED BY IDOCK:   -5.16 KCAL/MOL
REMARK 923 INTER-LIGAND FREE ENERGY PREDICTED BY IDOCK:   -4.59 KCAL/MOL
REMARK 924 INTRA-LIGAND FREE ENERGY PREDICTED BY IDOCK:   -0.57 KCAL/MOL
REMARK 927      BINDING AFFINITY PREDICTED BY RF-SCORE:    0.00 PKD
ROOT
HETATM    1  C   UNL     1      -8.559   5.647  68.611  1.00  0.00    -0.104 C  
ENDROOT
BRANCH   1   2
HETATM    2  N   UNL     1      -7.609   5.054  67.689  1.00  0.00    -0.086 NA 
HETATM    3  C   UNL     1      -7.513   3.604  67.969  1.00  0.00    -0.062 C  
HETATM    4  C   UNL     1      -8.884   2.844  68.028  1.00  0.00    -0.129 C  
HETATM    5  C   UNL     1      -6.269   5.697  67.552  1.00  0.00    -0.030 C  
HETATM    6  C   UNL     1      -5.819   7.000  68.282  1.00  0.00    -0.022 C  
HETATM    7  H   UNL     1      -9.335   1.228  69.441  1.00  0.00     0.000 HD 
HETATM    8  C   UNL     1      -5.561   6.852  69.783  1.00  0.00    -0.019 C  
HETATM    9  N   UNL     1      -9.331   2.240  69.308  1.00  0.00    -0.124 NA 
HETATM   10  C   UNL     1      -9.771   3.151  70.382  1.00  0.00    -0.029 C  
HETATM   11  N   UNL     1      -6.120   7.965  70.567  1.00  0.00    -0.033 NA 
HETATM   12  C   UNL     1      -8.635   3.507  71.354  1.00  0.00    -0.108 C  
HETATM   13  H   UNL     1      -6.951   8.355  70.121  1.00  0.00     0.000 HD 
HETATM   14  H   UNL     1      -7.393   5.337  73.507  1.00  0.00     0.000 HD 
HETATM   15  C   UNL     1      -8.933   4.704  72.276  1.00  0.00    -0.126 C  
HETATM   16  C   UNL     1      -6.394   7.564  71.962  1.00  0.00    -0.042 C  
HETATM   17  C   UNL     1      -7.760   6.855  72.158  1.00  0.00    -0.093 C  
HETATM   18  N   UNL     1      -7.681   5.440  72.535  1.00  0.00    -0.100 NA 
ENDBRANCH   1   2
BRANCH   1  19
HETATM   19  C   UNL     1      -9.262   6.896  68.192  1.00  0.00    -0.126 A  
HETATM   20  C   UNL     1      -9.831   6.997  66.934  1.00  0.00    -0.259 A  
HETATM   21  C   UNL     1      -9.885   8.247  66.372  1.00  0.00    -0.283 A  
HETATM   22  C   UNL     1      -9.164   7.984  69.044  1.00  0.00    -0.148 A  
HETATM   23  C   UNL     1      -9.670   9.376  67.160  1.00  0.00    -0.225 A  
HETATM   24  C   UNL     1      -9.290   9.247  68.506  1.00  0.00    -0.143 A  
BRANCH  23  25
HETATM   25  C   UNL     1      -9.835  10.747  66.618  1.00  0.00    -0.200 C  
BRANCH  25  26
HETATM   26  N   UNL     1     -10.254  10.885  65.234  1.00  0.00    -0.279 NA 
HETATM   27  C   UNL     1      -9.866  14.922  68.395  1.00  0.00    -0.216 C  
HETATM   28  H   UNL     1     -11.427  13.543  68.364  1.00  0.00     0.000 HD 
HETATM   29  N   UNL     1     -11.098  14.342  67.823  1.00  0.00    -0.278 NA 
HETATM   30  C   UNL     1      -8.785  13.871  68.758  1.00  0.00     0.006 C  
HETATM   31  C   UNL     1     -10.900  13.998  66.405  1.00  0.00    -0.299 C  
HETATM   32  C   UNL     1     -11.259  11.929  64.898  1.00  0.00    -0.292 C  
HETATM   33  N   UNL     1      -7.581  13.946  67.928  1.00  0.00    -0.138 NA 
HETATM   34  H   UNL     1      -7.031  14.773  68.160  1.00  0.00     0.000 HD 
HETATM   35  C   UNL     1     -11.873  12.922  65.930  1.00  0.00    -0.476 C  
HETATM   36  C   UNL     1      -6.753  12.731  67.995  1.00  0.00    -0.100 C  
HETATM   37  C   UNL     1      -6.540  12.187  66.570  1.00  0.00     0.498 C  
HETATM   38  C   UNL     1      -6.546  10.654  66.481  1.00  0.00    -0.108 C  
HETATM   39  N   UNL     1      -6.638  10.178  65.092  1.00  0.00    -0.119 NA 
HETATM   40  C   UNL     1      -7.983   9.821  64.578  1.00  0.00    -0.144 C  
HETATM   41  H   UNL     1      -5.809  10.096  64.504  1.00  0.00     0.000 HD 
HETATM   42  C   UNL     1      -9.059  10.942  64.358  1.00  0.00    -0.158 C  
ENDBRANCH  25  26
ENDBRANCH  23  25
ENDBRANCH   1  19
TORSDOF 4
ENDMDL
MODEL      111
REMARK 921   NORMALIZED FREE ENERGY PREDICTED BY IDOCK:   -2.88 KCAL/MOL
REMARK 922        TOTAL FREE ENERGY PREDICTED BY IDOCK:   -5.14 KCAL/MOL
REMARK 923 INTER-LIGAND FREE ENERGY PREDICTED BY IDOCK:   -4.08 KCAL/MOL
REMARK 924 INTRA-LIGAND FREE ENERGY PREDICTED BY IDOCK:   -1.06 KCAL/MOL
REMARK 927      BINDING AFFINITY PREDICTED BY RF-SCORE:    0.00 PKD
ROOT
HETATM    1  C   UNL     1      -7.104  10.270  67.819  1.00  0.00    -0.085 C  
ENDROOT
BRANCH   1   2
HETATM    2  N   UNL     1      -6.739   9.948  66.453  1.00  0.00    -0.082 NA 
HETATM    3  C   UNL     1      -6.245  11.175  65.788  1.00  0.00     0.096 C  
HETATM    4  C   UNL     1      -5.127  11.951  66.568  1.00  0.00     0.088 C  
HETATM    5  C   UNL     1      -7.730   9.209  65.617  1.00  0.00    -0.094 C  
HETATM    6  C   UNL     1      -9.118   8.696  66.111  1.00  0.00    -0.250 C  
HETATM    7  H   UNL     1      -4.980  14.137  66.658  1.00  0.00     0.000 HD 
HETATM    8  C   UNL     1     -10.170   9.784  66.344  1.00  0.00    -0.217 C  
HETATM    9  N   UNL     1      -5.406  13.314  67.085  1.00  0.00    -0.276 NA 
HETATM   10  C   UNL     1      -6.319  13.439  68.237  1.00  0.00    -0.102 C  
HETATM   11  N   UNL     1     -10.928   9.582  67.590  1.00  0.00    -0.471 NA 
HETATM   12  C   UNL     1      -7.775  13.684  67.811  1.00  0.00    -0.166 C  
HETATM   13  H   UNL     1     -10.364   9.111  68.297  1.00  0.00     0.000 HD 
HETATM   14  H   UNL     1     -10.806  13.645  68.394  1.00  0.00     0.000 HD 
HETATM   15  C   UNL     1      -8.813  13.480  68.931  1.00  0.00     0.229 C  
HETATM   16  C   UNL     1     -11.483  10.852  68.099  1.00  0.00    -0.295 C  
HETATM   17  C   UNL     1     -10.482  11.683  68.946  1.00  0.00    -0.175 C  
HETATM   18  N   UNL     1     -10.059  12.953  68.345  1.00  0.00    -0.236 NA 
ENDBRANCH   1   2
BRANCH   1  19
HETATM   19  C   UNL     1      -6.999   9.193  68.849  1.00  0.00    -0.064 A  
HETATM   20  C   UNL     1      -6.145   8.120  68.663  1.00  0.00    -0.044 A  
HETATM   21  C   UNL     1      -6.507   6.927  69.234  1.00  0.00    -0.043 A  
HETATM   22  C   UNL     1      -7.909   9.236  69.893  1.00  0.00    -0.109 A  
HETATM   23  C   UNL     1      -7.507   6.894  70.204  1.00  0.00    -0.090 A  
HETATM   24  C   UNL     1      -8.228   8.055  70.528  1.00  0.00    -0.118 A  
BRANCH  23  25
HETATM   25  C   UNL     1      -7.847   5.645  70.930  1.00  0.00    -0.105 C  
BRANCH  25  26
HETATM   26  N   UNL     1      -6.777   4.701  71.196  1.00  0.00    -0.030 NA 
HETATM   27  C   UNL     1      -7.988   8.463  74.484  1.00  0.00    -0.151 C  
HETATM   28  H   UNL     1      -6.886   8.684  72.730  1.00  0.00     0.000 HD 
HETATM   29  N   UNL     1      -6.757   8.334  73.679  1.00  0.00    -0.120 NA 
HETATM   30  C   UNL     1      -9.269   7.973  73.760  1.00  0.00    -0.110 C  
HETATM   31  C   UNL     1      -6.275   6.943  73.687  1.00  0.00    -0.063 C  
HETATM   32  C   UNL     1      -5.575   5.179  71.931  1.00  0.00    -0.012 C  
HETATM   33  N   UNL     1      -9.863   6.772  74.351  1.00  0.00    -0.405 NA 
HETATM   34  H   UNL     1     -10.303   6.988  75.245  1.00  0.00     0.000 HD 
HETATM   35  C   UNL     1      -5.398   6.627  72.477  1.00  0.00    -0.037 C  
HETATM   36  C   UNL     1     -10.809   6.090  73.453  1.00  0.00    -0.231 C  
HETATM   37  C   UNL     1     -10.372   4.625  73.279  1.00  0.00    -0.236 C  
HETATM   38  C   UNL     1     -10.587   4.073  71.863  1.00  0.00     0.193 C  
HETATM   39  N   UNL     1      -9.897   2.791  71.653  1.00  0.00    -0.158 NA 
HETATM   40  C   UNL     1      -8.560   2.829  71.012  1.00  0.00    -0.064 C  
HETATM   41  H   UNL     1     -10.322   1.908  71.939  1.00  0.00     0.000 HD 
HETATM   42  C   UNL     1      -7.343   3.460  71.776  1.00  0.00    -0.047 C  
ENDBRANCH  25  26
ENDBRANCH  23  25
ENDBRANCH   1  19
TORSDOF 4
ENDMDL
MODEL      112
REMARK 921   NORMALIZED FREE ENERGY PREDICTED BY IDOCK:   -2.81 KCAL/MOL
REMARK 922        TOTAL FREE ENERGY PREDICTED BY IDOCK:   -5.05 KCAL/MOL
REMARK 923 INTER-LIGAND FREE ENERGY PREDICTED BY IDOCK:   -3.81 KCAL/MOL
REMARK 924 INTRA-LIGAND FREE ENERGY PREDICTED BY IDOCK:   -1.24 KCAL/MOL
REMARK 927      BINDING AFFINITY PREDICTED BY RF-SCORE:    0.00 PKD
ROOT
HETATM    1  C   UNL     1      -8.513   4.984  64.796  1.00  0.00    -0.148 C  
ENDROOT
BRANCH   1   2
HETATM    2  N   UNL     1      -7.813   5.216  63.547  1.00  0.00    -0.078 NA 
HETATM    3  C   UNL     1      -8.176   4.146  62.590  1.00  0.00    -0.077 C  
HETATM    4  C   UNL     1      -9.716   3.909  62.408  1.00  0.00    -0.120 C  
HETATM    5  C   UNL     1      -6.340   5.452  63.602  1.00  0.00    -0.022 C  
HETATM    6  C   UNL     1      -5.491   5.531  64.908  1.00  0.00    -0.013 C  
HETATM    7  H   UNL     1     -10.635   1.935  62.146  1.00  0.00     0.000 HD 
HETATM    8  C   UNL     1      -5.272   4.197  65.626  1.00  0.00    -0.009 C  
HETATM    9  N   UNL     1     -10.313   2.619  62.832  1.00  0.00    -0.124 NA 
HETATM   10  C   UNL     1     -10.427   2.356  64.279  1.00  0.00     0.251 C  
HETATM   11  N   UNL     1      -5.439   4.304  67.085  1.00  0.00    -0.013 NA 
HETATM   12  C   UNL     1      -9.223   1.578  64.834  1.00  0.00    -0.111 C  
HETATM   13  H   UNL     1      -6.111   5.032  67.331  1.00  0.00     0.000 HD 
HETATM   14  H   UNL     1      -7.437   0.675  67.184  1.00  0.00     0.000 HD 
HETATM   15  C   UNL     1      -9.115   1.575  66.371  1.00  0.00    -0.036 C  
HETATM   16  C   UNL     1      -5.806   3.006  67.686  1.00  0.00    -0.023 C  
HETATM   17  C   UNL     1      -7.324   2.688  67.624  1.00  0.00    -0.056 C  
HETATM   18  N   UNL     1      -7.691   1.564  66.755  1.00  0.00    -0.064 NA 
ENDBRANCH   1   2
BRANCH   1  19
HETATM   19  C   UNL     1      -8.949   6.172  65.590  1.00  0.00    -0.056 A  
HETATM   20  C   UNL     1      -8.427   7.426  65.327  1.00  0.00    -0.066 A  
HETATM   21  C   UNL     1      -8.337   8.299  66.380  1.00  0.00    -0.117 A  
HETATM   22  C   UNL     1      -9.751   5.926  66.693  1.00  0.00    -0.184 A  
HETATM   23  C   UNL     1      -9.027   8.038  67.563  1.00  0.00    -0.143 A  
HETATM   24  C   UNL     1      -9.729   6.833  67.730  1.00  0.00    -0.140 A  
BRANCH  23  25
HETATM   25  C   UNL     1      -9.051   9.012  68.682  1.00  0.00    -0.137 C  
BRANCH  25  26
HETATM   26  N   UNL     1     -10.158   9.951  68.741  1.00  0.00    -0.166 NA 
HETATM   27  C   UNL     1      -8.086   7.889  72.970  1.00  0.00    -0.147 C  
HETATM   28  H   UNL     1      -9.416   6.941  71.677  1.00  0.00     0.000 HD 
HETATM   29  N   UNL     1      -9.432   7.643  72.417  1.00  0.00    -0.155 NA 
HETATM   30  C   UNL     1      -6.987   8.079  71.893  1.00  0.00    -0.072 C  
HETATM   31  C   UNL     1     -10.044   8.902  71.961  1.00  0.00    -0.281 C  
HETATM   32  C   UNL     1     -11.178   9.778  69.810  1.00  0.00    -0.202 C  
HETATM   33  N   UNL     1      -6.432   9.434  71.843  1.00  0.00    -0.298 NA 
HETATM   34  H   UNL     1      -5.841   9.614  72.654  1.00  0.00     0.000 HD 
HETATM   35  C   UNL     1     -11.124   8.673  70.906  1.00  0.00    -0.310 C  
HETATM   36  C   UNL     1      -5.708   9.719  70.594  1.00  0.00    -0.066 C  
HETATM   37  C   UNL     1      -6.312  10.974  69.937  1.00  0.00    -0.137 C  
HETATM   38  C   UNL     1      -6.373  10.908  68.404  1.00  0.00    -0.053 C  
HETATM   39  N   UNL     1      -7.211  11.973  67.834  1.00  0.00    -0.093 NA 
HETATM   40  C   UNL     1      -8.620  11.638  67.513  1.00  0.00    -0.149 C  
HETATM   41  H   UNL     1      -6.839  12.908  67.665  1.00  0.00     0.000 HD 
HETATM   42  C   UNL     1      -9.636  11.337  68.671  1.00  0.00    -0.190 C  
ENDBRANCH  25  26
ENDBRANCH  23  25
ENDBRANCH   1  19
TORSDOF 4
ENDMDL
MODEL      113
REMARK 921   NORMALIZED FREE ENERGY PREDICTED BY IDOCK:   -2.81 KCAL/MOL
REMARK 922        TOTAL FREE ENERGY PREDICTED BY IDOCK:   -5.05 KCAL/MOL
REMARK 923 INTER-LIGAND FREE ENERGY PREDICTED BY IDOCK:   -4.37 KCAL/MOL
REMARK 924 INTRA-LIGAND FREE ENERGY PREDICTED BY IDOCK:   -0.68 KCAL/MOL
REMARK 927      BINDING AFFINITY PREDICTED BY RF-SCORE:    0.00 PKD
ROOT
HETATM    1  C   UNL     1      -8.333   7.685  66.569  1.00  0.00    -0.129 C  
ENDROOT
BRANCH   1   2
HETATM    2  N   UNL     1      -7.225   7.451  65.663  1.00  0.00    -0.064 NA 
HETATM    3  C   UNL     1      -6.974   5.995  65.582  1.00  0.00    -0.061 C  
HETATM    4  C   UNL     1      -8.235   5.117  65.266  1.00  0.00    -0.126 C  
HETATM    5  C   UNL     1      -5.971   8.233  65.872  1.00  0.00    -0.044 C  
HETATM    6  C   UNL     1      -5.769   9.335  66.957  1.00  0.00    -0.045 C  
HETATM    7  H   UNL     1      -8.622   3.151  66.157  1.00  0.00     0.000 HD 
HETATM    8  C   UNL     1      -5.652   8.822  68.394  1.00  0.00    -0.038 C  
HETATM    9  N   UNL     1      -8.733   4.158  66.283  1.00  0.00    -0.113 NA 
HETATM   10  C   UNL     1      -9.395   4.707  67.482  1.00  0.00    -0.144 C  
HETATM   11  N   UNL     1      -6.427   9.631  69.350  1.00  0.00    -0.043 NA 
HETATM   12  C   UNL     1      -8.421   4.902  68.655  1.00  0.00    -0.089 C  
HETATM   13  H   UNL     1      -7.250  10.042  68.909  1.00  0.00     0.000 HD 
HETATM   14  H   UNL     1      -7.653   6.211  71.343  1.00  0.00     0.000 HD 
HETATM   15  C   UNL     1      -8.964   5.779  69.798  1.00  0.00    -0.129 C  
HETATM   16  C   UNL     1      -6.790   8.851  70.550  1.00  0.00    -0.054 C  
HETATM   17  C   UNL     1      -8.069   7.988  70.379  1.00  0.00    -0.112 C  
HETATM   18  N   UNL     1      -7.849   6.538  70.397  1.00  0.00    -0.108 NA 
ENDBRANCH   1   2
BRANCH   1  19
HETATM   19  C   UNL     1      -9.119   8.946  66.409  1.00  0.00    -0.217 A  
HETATM   20  C   UNL     1      -8.564  10.049  65.784  1.00  0.00    -0.156 A  
HETATM   21  C   UNL     1      -9.002  11.283  66.190  1.00  0.00    -0.210 A  
HETATM   22  C   UNL     1     -10.341   9.007  67.061  1.00  0.00    -0.339 A  
HETATM   23  C   UNL     1     -10.161  11.394  66.955  1.00  0.00    -0.246 A  
HETATM   24  C   UNL     1     -10.831  10.247  67.410  1.00  0.00    -0.336 A  
BRANCH  23  25
HETATM   25  C   UNL     1     -10.733  12.715  67.316  1.00  0.00    -0.237 C  
BRANCH  25  26
HETATM   26  N   UNL     1     -12.144  12.775  67.655  1.00  0.00    -0.351 NA 
HETATM   27  C   UNL     1      -8.770  16.269  69.342  1.00  0.00    -0.044 C  
HETATM   28  H   UNL     1      -9.026  14.349  70.110  1.00  0.00     0.000 HD 
HETATM   29  N   UNL     1      -9.491  15.256  70.139  1.00  0.00     0.093 NA 
HETATM   30  C   UNL     1      -8.350  15.779  67.932  1.00  0.00    -0.149 C  
HETATM   31  C   UNL     1     -10.896  15.162  69.711  1.00  0.00    -0.284 C  
HETATM   32  C   UNL     1     -12.529  13.290  68.996  1.00  0.00     0.278 C  
HETATM   33  N   UNL     1      -9.050  16.453  66.836  1.00  0.00    -0.206 NA 
HETATM   34  H   UNL     1      -8.723  17.414  66.734  1.00  0.00     0.000 HD 
HETATM   35  C   UNL     1     -11.519  13.812  70.060  1.00  0.00    -0.188 C  
HETATM   36  C   UNL     1      -8.958  15.730  65.557  1.00  0.00     0.489 C  
HETATM   37  C   UNL     1     -10.378  15.464  65.025  1.00  0.00    -0.362 C  
HETATM   38  C   UNL     1     -10.540  14.103  64.335  1.00  0.00    -0.095 C  
HETATM   39  N   UNL     1     -11.953  13.760  64.107  1.00  0.00    -0.512 NA 
HETATM   40  C   UNL     1     -12.617  12.890  65.109  1.00  0.00    -0.471 C  
HETATM   41  H   UNL     1     -12.457  14.106  63.291  1.00  0.00     0.000 HD 
HETATM   42  C   UNL     1     -12.891  13.433  66.556  1.00  0.00     0.468 C  
ENDBRANCH  25  26
ENDBRANCH  23  25
ENDBRANCH   1  19
TORSDOF 4
ENDMDL
MODEL      114
REMARK 921   NORMALIZED FREE ENERGY PREDICTED BY IDOCK:   -2.65 KCAL/MOL
REMARK 922        TOTAL FREE ENERGY PREDICTED BY IDOCK:   -4.86 KCAL/MOL
REMARK 923 INTER-LIGAND FREE ENERGY PREDICTED BY IDOCK:   -5.39 KCAL/MOL
REMARK 924 INTRA-LIGAND FREE ENERGY PREDICTED BY IDOCK:    0.54 KCAL/MOL
REMARK 927      BINDING AFFINITY PREDICTED BY RF-SCORE:    0.00 PKD
ROOT
HETATM    1  C   UNL     1     -10.480   7.112  70.304  1.00  0.00    -0.217 C  
ENDROOT
BRANCH   1   2
HETATM    2  N   UNL     1     -11.218   7.992  71.189  1.00  0.00    -0.256 NA 
HETATM    3  C   UNL     1     -10.276   8.957  71.799  1.00  0.00    -0.344 C  
HETATM    4  C   UNL     1      -9.354   9.720  70.785  1.00  0.00     0.152 C  
HETATM    5  C   UNL     1     -12.128   7.372  72.197  1.00  0.00    -0.252 C  
HETATM    6  C   UNL     1     -12.399   5.843  72.342  1.00  0.00     0.038 C  
HETATM    7  H   UNL     1      -7.253  10.219  71.167  1.00  0.00     0.000 HD 
HETATM    8  C   UNL     1     -11.244   5.027  72.928  1.00  0.00    -0.271 C  
HETATM    9  N   UNL     1      -7.887   9.499  70.820  1.00  0.00    -0.296 NA 
HETATM   10  C   UNL     1      -7.375   8.203  70.335  1.00  0.00    -0.062 C  
HETATM   11  N   UNL     1     -11.022   3.761  72.210  1.00  0.00     0.294 NA 
HETATM   12  C   UNL     1      -7.201   7.178  71.467  1.00  0.00    -0.077 C  
HETATM   13  H   UNL     1     -11.282   3.840  71.227  1.00  0.00     0.000 HD 
HETATM   14  H   UNL     1      -6.917   4.269  72.460  1.00  0.00     0.000 HD 
HETATM   15  C   UNL     1      -7.006   5.725  70.991  1.00  0.00    -0.066 C  
HETATM   16  C   UNL     1      -9.632   3.287  72.364  1.00  0.00    -0.134 C  
HETATM   17  C   UNL     1      -8.632   3.927  71.364  1.00  0.00    -0.088 C  
HETATM   18  N   UNL     1      -7.626   4.809  71.966  1.00  0.00    -0.088 NA 
ENDBRANCH   1   2
BRANCH   1  19
HETATM   19  C   UNL     1     -10.339   7.510  68.871  1.00  0.00    -0.220 A  
HETATM   20  C   UNL     1      -9.449   6.852  68.041  1.00  0.00    -0.124 A  
HETATM   21  C   UNL     1      -8.897   7.577  67.016  1.00  0.00    -0.134 A  
HETATM   22  C   UNL     1     -11.003   8.659  68.474  1.00  0.00     0.123 A  
HETATM   23  C   UNL     1      -9.451   8.803  66.654  1.00  0.00    -0.263 A  
HETATM   24  C   UNL     1     -10.504   9.361  67.397  1.00  0.00    -0.343 A  
BRANCH  23  25
HETATM   25  C   UNL     1      -8.959   9.563  65.478  1.00  0.00    -0.194 C  
BRANCH  25  26
HETATM   26  N   UNL     1      -9.944  10.160  64.594  1.00  0.00    -0.305 NA 
HETATM   27  C   UNL     1      -6.820  13.000  67.526  1.00  0.00    -0.151 C  
HETATM   28  H   UNL     1      -8.524  11.996  68.177  1.00  0.00     0.000 HD 
HETATM   29  N   UNL     1      -8.282  12.841  67.661  1.00  0.00    -0.162 NA 
HETATM   30  C   UNL     1      -6.084  11.710  67.080  1.00  0.00    -0.138 C  
HETATM   31  C   UNL     1      -8.932  12.881  66.341  1.00  0.00    -0.005 C  
HETATM   32  C   UNL     1     -10.608  11.422  65.020  1.00  0.00    -0.299 C  
HETATM   33  N   UNL     1      -5.497  11.794  65.741  1.00  0.00    -0.356 NA 
HETATM   34  H   UNL     1      -4.682  12.407  65.740  1.00  0.00     0.000 HD 
HETATM   35  C   UNL     1     -10.288  12.179  66.343  1.00  0.00    -0.246 C  
HETATM   36  C   UNL     1      -5.164  10.480  65.169  1.00  0.00    -0.134 C  
HETATM   37  C   UNL     1      -5.868  10.329  63.808  1.00  0.00    -0.146 C  
HETATM   38  C   UNL     1      -6.386   8.912  63.527  1.00  0.00    -0.089 C  
HETATM   39  N   UNL     1      -7.298   8.871  62.374  1.00  0.00    -0.099 NA 
HETATM   40  C   UNL     1      -8.755   8.926  62.649  1.00  0.00    -0.135 C  
HETATM   41  H   UNL     1      -6.943   8.807  61.420  1.00  0.00     0.000 HD 
HETATM   42  C   UNL     1      -9.393  10.241  63.220  1.00  0.00    -0.306 C  
ENDBRANCH  25  26
ENDBRANCH  23  25
ENDBRANCH   1  19
TORSDOF 4
ENDMDL
MODEL      115
REMARK 921   NORMALIZED FREE ENERGY PREDICTED BY IDOCK:   -2.59 KCAL/MOL
REMARK 922        TOTAL FREE ENERGY PREDICTED BY IDOCK:   -4.78 KCAL/MOL
REMARK 923 INTER-LIGAND FREE ENERGY PREDICTED BY IDOCK:   -3.59 KCAL/MOL
REMARK 924 INTRA-LIGAND FREE ENERGY PREDICTED BY IDOCK:   -1.19 KCAL/MOL
REMARK 927      BINDING AFFINITY PREDICTED BY RF-SCORE:    0.00 PKD
ROOT
HETATM    1  C   UNL     1      -8.582   9.626  66.906  1.00  0.00    -0.128 C  
ENDROOT
BRANCH   1   2
HETATM    2  N   UNL     1      -9.822   9.291  66.232  1.00  0.00    -0.273 NA 
HETATM    3  C   UNL     1     -10.484   8.192  66.969  1.00  0.00    -0.326 C  
HETATM    4  C   UNL     1     -10.656   8.431  68.509  1.00  0.00    -0.106 C  
HETATM    5  C   UNL     1      -9.775   9.042  64.761  1.00  0.00     0.740 C  
HETATM    6  C   UNL     1      -8.503   9.171  63.867  1.00  0.00    -0.189 C  
HETATM    7  H   UNL     1     -10.435   6.865  70.030  1.00  0.00     0.000 HD 
HETATM    8  C   UNL     1      -7.459   8.067  64.056  1.00  0.00    -0.109 C  
HETATM    9  N   UNL     1      -9.936   7.558  69.470  1.00  0.00    -0.177 NA 
HETATM   10  C   UNL     1      -8.475   7.725  69.590  1.00  0.00    -0.133 C  
HETATM   11  N   UNL     1      -6.084   8.591  64.106  1.00  0.00    -0.066 NA 
HETATM   12  C   UNL     1      -7.695   6.765  68.677  1.00  0.00    -0.113 C  
HETATM   13  H   UNL     1      -6.058   9.535  64.493  1.00  0.00     0.000 HD 
HETATM   14  H   UNL     1      -5.129   5.961  67.163  1.00  0.00     0.000 HD 
HETATM   15  C   UNL     1      -6.207   7.120  68.498  1.00  0.00    -0.035 C  
HETATM   16  C   UNL     1      -5.183   7.681  64.843  1.00  0.00    -0.029 C  
HETATM   17  C   UNL     1      -5.217   7.870  66.383  1.00  0.00    -0.025 C  
HETATM   18  N   UNL     1      -5.780   6.744  67.137  1.00  0.00    -0.013 NA 
ENDBRANCH   1   2
BRANCH   1  19
HETATM   19  C   UNL     1      -8.173  11.062  66.955  1.00  0.00    -0.138 A  
HETATM   20  C   UNL     1      -7.061  11.454  67.682  1.00  0.00    -0.092 A  
HETATM   21  C   UNL     1      -7.077  12.718  68.214  1.00  0.00    -0.104 A  
HETATM   22  C   UNL     1      -9.045  11.981  66.394  1.00  0.00    -0.193 A  
HETATM   23  C   UNL     1      -8.016  13.648  67.773  1.00  0.00    -0.172 A  
HETATM   24  C   UNL     1      -9.021  13.275  66.867  1.00  0.00    -0.212 A  
BRANCH  23  25
HETATM   25  C   UNL     1      -7.993  15.058  68.236  1.00  0.00    -0.128 C  
BRANCH  25  26
HETATM   26  N   UNL     1      -7.866  15.304  69.662  1.00  0.00    -0.202 NA 
HETATM   27  C   UNL     1      -6.106  18.615  66.144  1.00  0.00    -0.176 C  
HETATM   28  H   UNL     1      -5.178  16.842  66.722  1.00  0.00     0.000 HD 
HETATM   29  N   UNL     1      -5.314  17.788  67.077  1.00  0.00    -0.127 NA 
HETATM   30  C   UNL     1      -7.381  17.914  65.607  1.00  0.00     0.042 C  
HETATM   31  C   UNL     1      -5.925  17.786  68.416  1.00  0.00    -0.172 C  
HETATM   32  C   UNL     1      -6.656  16.017  70.153  1.00  0.00     0.141 C  
HETATM   33  N   UNL     1      -8.631  18.515  66.074  1.00  0.00    -0.503 NA 
HETATM   34  H   UNL     1      -8.790  19.418  65.626  1.00  0.00     0.000 HD 
HETATM   35  C   UNL     1      -5.523  16.561  69.234  1.00  0.00    -0.137 C  
HETATM   36  C   UNL     1      -9.798  17.634  65.904  1.00  0.00    -0.073 C  
HETATM   37  C   UNL     1     -10.494  17.452  67.265  1.00  0.00    -0.321 C  
HETATM   38  C   UNL     1     -11.049  16.039  67.497  1.00  0.00    -0.207 C  
HETATM   39  N   UNL     1     -11.436  15.816  68.899  1.00  0.00    -0.357 NA 
HETATM   40  C   UNL     1     -10.450  15.150  69.785  1.00  0.00    -0.233 C  
HETATM   41  H   UNL     1     -12.348  16.109  69.249  1.00  0.00     0.000 HD 
HETATM   42  C   UNL     1      -9.124  15.893  70.177  1.00  0.00     0.755 C  
ENDBRANCH  25  26
ENDBRANCH  23  25
ENDBRANCH   1  19
TORSDOF 4
ENDMDL
MODEL      116
REMARK 921   NORMALIZED FREE ENERGY PREDICTED BY IDOCK:   -2.40 KCAL/MOL
REMARK 922        TOTAL FREE ENERGY PREDICTED BY IDOCK:   -4.54 KCAL/MOL
REMARK 923 INTER-LIGAND FREE ENERGY PREDICTED BY IDOCK:   -3.58 KCAL/MOL
REMARK 924 INTRA-LIGAND FREE ENERGY PREDICTED BY IDOCK:   -0.96 KCAL/MOL
REMARK 927      BINDING AFFINITY PREDICTED BY RF-SCORE:    0.00 PKD
ROOT
HETATM    1  C   UNL     1      -9.146  13.894  67.005  1.00  0.00    -0.250 C  
ENDROOT
BRANCH   1   2
HETATM    2  N   UNL     1      -9.626  14.101  65.652  1.00  0.00    -0.155 NA 
HETATM    3  C   UNL     1      -9.729  15.556  65.398  1.00  0.00    -0.197 C  
HETATM    4  C   UNL     1      -8.441  16.385  65.739  1.00  0.00     0.307 C  
HETATM    5  C   UNL     1     -10.848  13.362  65.220  1.00  0.00    -0.309 C  
HETATM    6  C   UNL     1     -11.628  12.328  66.090  1.00  0.00    -0.450 C  
HETATM    7  H   UNL     1      -8.467  18.390  66.626  1.00  0.00     0.000 HD 
HETATM    8  C   UNL     1     -12.435  12.926  67.245  1.00  0.00     0.499 C  
HETATM    9  N   UNL     1      -8.485  17.390  66.830  1.00  0.00    -0.241 NA 
HETATM   10  C   UNL     1      -8.553  16.896  68.218  1.00  0.00    -0.230 C  
HETATM   11  N   UNL     1     -12.295  12.156  68.492  1.00  0.00    -0.078 NA 
HETATM   12  C   UNL     1      -9.997  16.791  68.735  1.00  0.00    -0.269 C  
HETATM   13  H   UNL     1     -11.383  11.702  68.550  1.00  0.00     0.000 HD 
HETATM   14  H   UNL     1     -12.089  15.656  70.701  1.00  0.00     0.000 HD 
HETATM   15  C   UNL     1     -10.155  15.968  70.028  1.00  0.00    -0.039 C  
HETATM   16  C   UNL     1     -12.556  12.995  69.680  1.00  0.00     0.295 C  
HETATM   17  C   UNL     1     -11.328  13.817  70.153  1.00  0.00     0.040 C  
HETATM   18  N   UNL     1     -11.455  15.271  70.002  1.00  0.00    -0.269 NA 
ENDBRANCH   1   2
BRANCH   1  19
HETATM   19  C   UNL     1      -8.609  12.548  67.364  1.00  0.00    -0.187 A  
HETATM   20  C   UNL     1      -8.053  11.729  66.396  1.00  0.00     0.032 A  
HETATM   21  C   UNL     1      -8.159  10.375  66.586  1.00  0.00    -0.122 A  
HETATM   22  C   UNL     1      -8.852  12.101  68.653  1.00  0.00    -0.004 A  
HETATM   23  C   UNL     1      -8.522   9.873  67.834  1.00  0.00    -0.121 A  
HETATM   24  C   UNL     1      -8.888  10.742  68.875  1.00  0.00    -0.154 A  
BRANCH  23  25
HETATM   25  C   UNL     1      -8.535   8.416  68.115  1.00  0.00    -0.132 C  
BRANCH  25  26
HETATM   26  N   UNL     1      -8.893   7.985  69.454  1.00  0.00    -0.144 NA 
HETATM   27  C   UNL     1      -9.022   4.796  65.423  1.00  0.00    -0.149 C  
HETATM   28  H   UNL     1     -10.452   6.240  65.882  1.00  0.00     0.000 HD 
HETATM   29  N   UNL     1     -10.168   5.313  66.198  1.00  0.00    -0.199 NA 
HETATM   30  C   UNL     1      -7.873   5.821  65.239  1.00  0.00    -0.106 C  
HETATM   31  C   UNL     1      -9.870   5.295  67.639  1.00  0.00    -0.155 C  
HETATM   32  C   UNL     1      -9.969   6.968  69.607  1.00  0.00    -0.173 C  
HETATM   33  N   UNL     1      -6.640   5.462  65.943  1.00  0.00    -0.044 NA 
HETATM   34  H   UNL     1      -6.177   4.675  65.487  1.00  0.00     0.000 HD 
HETATM   35  C   UNL     1     -10.719   6.297  68.419  1.00  0.00    -0.356 C  
HETATM   36  C   UNL     1      -5.712   6.593  66.103  1.00  0.00    -0.025 C  
HETATM   37  C   UNL     1      -5.381   6.767  67.597  1.00  0.00    -0.012 C  
HETATM   38  C   UNL     1      -5.247   8.231  68.040  1.00  0.00    -0.034 C  
HETATM   39  N   UNL     1      -5.227   8.369  69.504  1.00  0.00    -0.030 NA 
HETATM   40  C   UNL     1      -6.508   8.692  70.179  1.00  0.00    -0.038 C  
HETATM   41  H   UNL     1      -4.365   8.248  70.036  1.00  0.00     0.000 HD 
HETATM   42  C   UNL     1      -7.666   7.633  70.207  1.00  0.00    -0.091 C  
ENDBRANCH  25  26
ENDBRANCH  23  25
ENDBRANCH   1  19
TORSDOF 4
ENDMDL
MODEL      117
REMARK 921   NORMALIZED FREE ENERGY PREDICTED BY IDOCK:   -2.37 KCAL/MOL
REMARK 922        TOTAL FREE ENERGY PREDICTED BY IDOCK:   -4.51 KCAL/MOL
REMARK 923 INTER-LIGAND FREE ENERGY PREDICTED BY IDOCK:   -4.44 KCAL/MOL
REMARK 924 INTRA-LIGAND FREE ENERGY PREDICTED BY IDOCK:   -0.07 KCAL/MOL
REMARK 927      BINDING AFFINITY PREDICTED BY RF-SCORE:    0.00 PKD
ROOT
HETATM    1  C   UNL     1      -7.293  16.704  67.388  1.00  0.00    -0.161 C  
ENDROOT
BRANCH   1   2
HETATM    2  N   UNL     1      -6.192  17.041  68.269  1.00  0.00    -0.134 NA 
HETATM    3  C   UNL     1      -6.626  16.851  69.671  1.00  0.00    -0.138 C  
HETATM    4  C   UNL     1      -7.273  15.456  69.985  1.00  0.00     0.033 C  
HETATM    5  C   UNL     1      -5.501  18.348  68.061  1.00  0.00    -0.158 C  
HETATM    6  C   UNL     1      -5.829  19.367  66.926  1.00  0.00    -0.173 C  
HETATM    7  H   UNL     1      -8.971  15.165  71.341  1.00  0.00     0.000 HD 
HETATM    8  C   UNL     1      -7.149  20.125  67.091  1.00  0.00    -0.254 C  
HETATM    9  N   UNL     1      -8.701  15.384  70.382  1.00  0.00     0.811 NA 
HETATM   10  C   UNL     1      -9.717  15.641  69.344  1.00  0.00    -0.292 C  
HETATM   11  N   UNL     1      -7.910  20.220  65.835  1.00  0.00    -0.535 NA 
HETATM   12  C   UNL     1     -10.166  17.111  69.309  1.00  0.00    -0.231 C  
HETATM   13  H   UNL     1      -7.734  19.416  65.231  1.00  0.00     0.000 HD 
HETATM   14  H   UNL     1     -11.456  19.510  67.857  1.00  0.00     0.000 HD 
HETATM   15  C   UNL     1     -10.951  17.511  68.045  1.00  0.00    -0.134 C  
HETATM   16  C   UNL     1      -9.354  20.399  66.087  1.00  0.00    -0.100 C  
HETATM   17  C   UNL     1     -10.119  19.074  66.348  1.00  0.00    -0.415 C  
HETATM   18  N   UNL     1     -10.643  18.913  67.708  1.00  0.00    -0.417 NA 
ENDBRANCH   1   2
BRANCH   1  19
HETATM   19  C   UNL     1      -7.454  15.278  66.974  1.00  0.00    -0.125 A  
HETATM   20  C   UNL     1      -8.659  14.821  66.471  1.00  0.00    -0.075 A  
HETATM   21  C   UNL     1      -8.972  13.505  66.696  1.00  0.00    -0.133 A  
HETATM   22  C   UNL     1      -6.411  14.417  67.280  1.00  0.00     0.312 A  
HETATM   23  C   UNL     1      -7.986  12.618  67.125  1.00  0.00    -0.123 A  
HETATM   24  C   UNL     1      -6.697  13.078  67.436  1.00  0.00    -0.123 A  
BRANCH  23  25
HETATM   25  C   UNL     1      -8.254  11.165  67.267  1.00  0.00    -0.136 C  
BRANCH  25  26
HETATM   26  N   UNL     1      -8.291  10.360  66.059  1.00  0.00    -0.143 NA 
HETATM   27  C   UNL     1      -5.743   8.868  70.268  1.00  0.00    -0.033 C  
HETATM   28  H   UNL     1      -5.092  10.283  68.885  1.00  0.00     0.000 HD 
HETATM   29  N   UNL     1      -5.173   9.270  68.966  1.00  0.00    -0.037 NA 
HETATM   30  C   UNL     1      -7.002   9.674  70.680  1.00  0.00    -0.110 C  
HETATM   31  C   UNL     1      -5.952   8.695  67.858  1.00  0.00    -0.047 C  
HETATM   32  C   UNL     1      -7.088   9.559  65.703  1.00  0.00    -0.093 C  
HETATM   33  N   UNL     1      -8.233   8.881  70.704  1.00  0.00    -0.144 NA 
HETATM   34  H   UNL     1      -8.235   8.237  71.495  1.00  0.00     0.000 HD 
HETATM   35  C   UNL     1      -5.793   9.490  66.564  1.00  0.00    -0.055 C  
HETATM   36  C   UNL     1      -9.454   9.704  70.695  1.00  0.00    -0.124 C  
HETATM   37  C   UNL     1     -10.339   9.280  69.509  1.00  0.00    -0.223 C  
HETATM   38  C   UNL     1     -11.065  10.447  68.825  1.00  0.00    -0.250 C  
HETATM   39  N   UNL     1     -11.655  10.056  67.536  1.00  0.00    -0.314 NA 
HETATM   40  C   UNL     1     -10.871  10.339  66.309  1.00  0.00     0.085 C  
HETATM   41  H   UNL     1     -12.570   9.607  67.486  1.00  0.00     0.000 HD 
HETATM   42  C   UNL     1      -9.537   9.558  66.036  1.00  0.00    -0.251 C  
ENDBRANCH  25  26
ENDBRANCH  23  25
ENDBRANCH   1  19
TORSDOF 4
ENDMDL
MODEL      118
REMARK 921   NORMALIZED FREE ENERGY PREDICTED BY IDOCK:   -2.33 KCAL/MOL
REMARK 922        TOTAL FREE ENERGY PREDICTED BY IDOCK:   -4.45 KCAL/MOL
REMARK 923 INTER-LIGAND FREE ENERGY PREDICTED BY IDOCK:   -3.85 KCAL/MOL
REMARK 924 INTRA-LIGAND FREE ENERGY PREDICTED BY IDOCK:   -0.60 KCAL/MOL
REMARK 927      BINDING AFFINITY PREDICTED BY RF-SCORE:    0.00 PKD
ROOT
HETATM    1  C   UNL     1      -8.271   8.735  67.944  1.00  0.00    -0.111 C  
ENDROOT
BRANCH   1   2
HETATM    2  N   UNL     1      -7.808   7.823  66.915  1.00  0.00    -0.106 NA 
HETATM    3  C   UNL     1      -8.677   6.625  66.913  1.00  0.00    -0.116 C  
HETATM    4  C   UNL     1     -10.217   6.918  66.843  1.00  0.00    -0.240 C  
HETATM    5  C   UNL     1      -6.358   7.473  66.888  1.00  0.00    -0.049 C  
HETATM    6  C   UNL     1      -5.274   8.057  67.846  1.00  0.00    -0.033 C  
HETATM    7  H   UNL     1     -11.739   5.771  67.928  1.00  0.00     0.000 HD 
HETATM    8  C   UNL     1      -5.338   7.550  69.290  1.00  0.00    -0.015 C  
HETATM    9  N   UNL     1     -11.085   6.552  67.989  1.00  0.00    -0.279 NA 
HETATM   10  C   UNL     1     -10.972   7.355  69.222  1.00  0.00    -0.070 C  
HETATM   11  N   UNL     1      -5.157   8.627  70.277  1.00  0.00    -0.022 NA 
HETATM   12  C   UNL     1      -9.984   6.750  70.231  1.00  0.00    -0.192 C  
HETATM   13  H   UNL     1      -5.502   9.520  69.923  1.00  0.00     0.000 HD 
HETATM   14  H   UNL     1      -8.120   7.007  72.679  1.00  0.00     0.000 HD 
HETATM   15  C   UNL     1      -9.565   7.702  71.367  1.00  0.00    -0.158 C  
HETATM   16  C   UNL     1      -5.777   8.285  71.573  1.00  0.00    -0.036 C  
HETATM   17  C   UNL     1      -7.297   8.594  71.647  1.00  0.00    -0.093 C  
HETATM   18  N   UNL     1      -8.168   7.418  71.747  1.00  0.00    -0.102 NA 
ENDBRANCH   1   2
BRANCH   1  19
HETATM   19  C   UNL     1      -8.042  10.198  67.743  1.00  0.00    -0.109 A  
HETATM   20  C   UNL     1      -7.913  11.047  68.829  1.00  0.00    -0.144 A  
HETATM   21  C   UNL     1      -8.327  12.343  68.661  1.00  0.00     0.006 A  
HETATM   22  C   UNL     1      -8.141  10.674  66.446  1.00  0.00    -0.148 A  
HETATM   23  C   UNL     1      -8.562  12.840  67.381  1.00  0.00    -0.194 A  
HETATM   24  C   UNL     1      -8.485  11.996  66.261  1.00  0.00     0.086 A  
BRANCH  23  25
HETATM   25  C   UNL     1      -8.897  14.266  67.148  1.00  0.00    -0.229 C  
BRANCH  25  26
HETATM   26  N   UNL     1      -9.306  14.658  65.811  1.00  0.00    -0.143 NA 
HETATM   27  C   UNL     1     -12.710  13.535  69.497  1.00  0.00     0.417 C  
HETATM   28  H   UNL     1     -11.620  12.154  68.381  1.00  0.00     0.000 HD 
HETATM   29  N   UNL     1     -12.428  12.767  68.268  1.00  0.00     0.210 NA 
HETATM   30  C   UNL     1     -11.456  14.193  70.130  1.00  0.00    -0.163 C  
HETATM   31  C   UNL     1     -12.273  13.669  67.115  1.00  0.00    -0.297 C  
HETATM   32  C   UNL     1     -10.537  14.049  65.238  1.00  0.00    -0.363 C  
HETATM   33  N   UNL     1     -11.459  15.657  70.070  1.00  0.00    -0.313 NA 
HETATM   34  H   UNL     1     -12.143  16.045  70.719  1.00  0.00     0.000 HD 
HETATM   35  C   UNL     1     -11.450  13.039  65.994  1.00  0.00    -0.374 C  
HETATM   36  C   UNL     1     -10.131  16.249  70.291  1.00  0.00     0.446 C  
HETATM   37  C   UNL     1      -9.778  17.156  69.098  1.00  0.00    -0.150 C  
HETATM   38  C   UNL     1      -8.297  17.110  68.696  1.00  0.00    -0.257 C  
HETATM   39  N   UNL     1      -8.054  17.745  67.391  1.00  0.00    -0.208 NA 
HETATM   40  C   UNL     1      -8.000  16.863  66.200  1.00  0.00    -0.255 C  
HETATM   41  H   UNL     1      -7.928  18.754  67.308  1.00  0.00     0.000 HD 
HETATM   42  C   UNL     1      -9.300  16.137  65.704  1.00  0.00    -0.046 C  
ENDBRANCH  25  26
ENDBRANCH  23  25
ENDBRANCH   1  19
TORSDOF 4
ENDMDL
MODEL      119
REMARK 921   NORMALIZED FREE ENERGY PREDICTED BY IDOCK:   -2.31 KCAL/MOL
REMARK 922        TOTAL FREE ENERGY PREDICTED BY IDOCK:   -4.43 KCAL/MOL
REMARK 923 INTER-LIGAND FREE ENERGY PREDICTED BY IDOCK:   -4.29 KCAL/MOL
REMARK 924 INTRA-LIGAND FREE ENERGY PREDICTED BY IDOCK:   -0.13 KCAL/MOL
REMARK 927      BINDING AFFINITY PREDICTED BY RF-SCORE:    0.00 PKD
ROOT
HETATM    1  C   UNL     1      -7.770  11.435  68.348  1.00  0.00    -0.127 C  
ENDROOT
BRANCH   1   2
HETATM    2  N   UNL     1      -6.607  11.398  67.483  1.00  0.00    -0.071 NA 
HETATM    3  C   UNL     1      -5.956  12.727  67.500  1.00  0.00    -0.143 C  
HETATM    4  C   UNL     1      -5.655  13.303  68.927  1.00  0.00    -0.073 C  
HETATM    5  C   UNL     1      -6.780  10.867  66.098  1.00  0.00    -0.103 C  
HETATM    6  C   UNL     1      -8.106  10.289  65.516  1.00  0.00    -0.156 C  
HETATM    7  H   UNL     1      -5.851  15.420  69.467  1.00  0.00     0.000 HD 
HETATM    8  C   UNL     1      -9.196  11.323  65.223  1.00  0.00    -0.172 C  
HETATM    9  N   UNL     1      -6.349  14.533  69.382  1.00  0.00    -0.116 NA 
HETATM   10  C   UNL     1      -7.785  14.433  69.708  1.00  0.00     0.318 C  
HETATM   11  N   UNL     1     -10.530  10.880  65.660  1.00  0.00    -0.235 NA 
HETATM   12  C   UNL     1      -8.686  14.788  68.515  1.00  0.00    -0.174 C  
HETATM   13  H   UNL     1     -10.471  10.262  66.469  1.00  0.00     0.000 HD 
HETATM   14  H   UNL     1     -11.403  14.684  67.053  1.00  0.00     0.000 HD 
HETATM   15  C   UNL     1     -10.161  14.374  68.681  1.00  0.00    -0.242 C  
HETATM   16  C   UNL     1     -11.424  12.026  65.921  1.00  0.00    -0.333 C  
HETATM   17  C   UNL     1     -11.262  12.644  67.335  1.00  0.00    -0.290 C  
HETATM   18  N   UNL     1     -10.710  14.003  67.363  1.00  0.00    -0.281 NA 
ENDBRANCH   1   2
BRANCH   1  19
HETATM   19  C   UNL     1      -8.188  10.169  69.022  1.00  0.00    -0.132 A  
HETATM   20  C   UNL     1      -8.210  10.078  70.403  1.00  0.00     0.151 A  
HETATM   21  C   UNL     1      -7.975   8.844  70.952  1.00  0.00    -0.173 A  
HETATM   22  C   UNL     1      -8.379   9.062  68.210  1.00  0.00    -0.121 A  
HETATM   23  C   UNL     1      -8.032   7.704  70.153  1.00  0.00    -0.109 A  
HETATM   24  C   UNL     1      -8.220   7.811  68.766  1.00  0.00    -0.128 A  
BRANCH  23  25
HETATM   25  C   UNL     1      -7.901   6.342  70.728  1.00  0.00    -0.106 C  
BRANCH  25  26
HETATM   26  N   UNL     1      -8.707   6.015  71.891  1.00  0.00    -0.137 NA 
HETATM   27  C   UNL     1     -10.276   5.009  67.099  1.00  0.00    -0.186 C  
HETATM   28  H   UNL     1     -10.316   6.872  68.030  1.00  0.00     0.000 HD 
HETATM   29  N   UNL     1     -10.839   5.997  68.041  1.00  0.00    -0.297 NA 
HETATM   30  C   UNL     1      -8.734   4.867  67.182  1.00  0.00    -0.103 C  
HETATM   31  C   UNL     1     -10.926   5.430  69.397  1.00  0.00     0.155 C  
HETATM   32  C   UNL     1     -10.188   6.115  71.778  1.00  0.00    -0.202 C  
HETATM   33  N   UNL     1      -8.283   3.571  67.694  1.00  0.00    -0.084 NA 
HETATM   34  H   UNL     1      -8.437   2.835  67.004  1.00  0.00     0.000 HD 
HETATM   35  C   UNL     1     -10.945   6.511  70.476  1.00  0.00    -0.348 C  
HETATM   36  C   UNL     1      -6.883   3.580  68.146  1.00  0.00    -0.050 C  
HETATM   37  C   UNL     1      -6.821   3.100  69.607  1.00  0.00    -0.034 C  
HETATM   38  C   UNL     1      -5.780   3.836  70.462  1.00  0.00    -0.013 C  
HETATM   39  N   UNL     1      -5.949   3.568  71.899  1.00  0.00    -0.012 NA 
HETATM   40  C   UNL     1      -6.722   4.554  72.693  1.00  0.00    -0.051 C  
HETATM   41  H   UNL     1      -5.551   2.736  72.333  1.00  0.00     0.000 HD 
HETATM   42  C   UNL     1      -8.265   4.716  72.452  1.00  0.00    -0.114 C  
ENDBRANCH  25  26
ENDBRANCH  23  25
ENDBRANCH   1  19
TORSDOF 4
ENDMDL
MODEL      120
REMARK 921   NORMALIZED FREE ENERGY PREDICTED BY IDOCK:   -2.30 KCAL/MOL
REMARK 922        TOTAL FREE ENERGY PREDICTED BY IDOCK:   -4.42 KCAL/MOL
REMARK 923 INTER-LIGAND FREE ENERGY PREDICTED BY IDOCK:   -4.00 KCAL/MOL
REMARK 924 INTRA-LIGAND FREE ENERGY PREDICTED BY IDOCK:   -0.41 KCAL/MOL
REMARK 927      BINDING AFFINITY PREDICTED BY RF-SCORE:    0.00 PKD
ROOT
HETATM    1  C   UNL     1      -8.650   8.358  68.057  1.00  0.00    -0.135 C  
ENDROOT
BRANCH   1   2
HETATM    2  N   UNL     1      -8.787   7.982  69.451  1.00  0.00    -0.144 NA 
HETATM    3  C   UNL     1      -7.468   7.540  69.959  1.00  0.00    -0.083 C  
HETATM    4  C   UNL     1      -6.284   8.534  69.693  1.00  0.00    -0.039 C  
HETATM    5  C   UNL     1      -9.883   7.038  69.819  1.00  0.00    -0.169 C  
HETATM    6  C   UNL     1     -10.942   6.461  68.829  1.00  0.00    -0.404 C  
HETATM    7  H   UNL     1      -4.248   7.910  69.170  1.00  0.00     0.000 HD 
HETATM    8  C   UNL     1     -10.413   5.415  67.844  1.00  0.00    -0.133 C  
HETATM    9  N   UNL     1      -5.173   8.126  68.798  1.00  0.00    -0.027 NA 
HETATM   10  C   UNL     1      -5.450   8.043  67.351  1.00  0.00    -0.037 C  
HETATM   11  N   UNL     1     -10.918   5.618  66.477  1.00  0.00    -0.695 NA 
HETATM   12  C   UNL     1      -5.857   6.629  66.909  1.00  0.00    -0.014 C  
HETATM   13  H   UNL     1     -11.098   6.605  66.288  1.00  0.00     0.000 HD 
HETATM   14  H   UNL     1      -7.196   4.704  64.901  1.00  0.00     0.000 HD 
HETATM   15  C   UNL     1      -6.485   6.553  65.504  1.00  0.00    -0.039 C  
HETATM   16  C   UNL     1     -10.009   5.034  65.470  1.00  0.00    -0.012 C  
HETATM   17  C   UNL     1      -8.826   5.958  65.076  1.00  0.00     0.066 C  
HETATM   18  N   UNL     1      -7.500   5.482  65.485  1.00  0.00    -0.073 NA 
ENDBRANCH   1   2
BRANCH   1  19
HETATM   19  C   UNL     1      -9.139   9.706  67.640  1.00  0.00    -0.141 A  
HETATM   20  C   UNL     1      -9.034  10.118  66.322  1.00  0.00    -0.168 A  
HETATM   21  C   UNL     1      -8.886  11.462  66.097  1.00  0.00    -0.186 A  
HETATM   22  C   UNL     1      -9.532  10.569  68.650  1.00  0.00    -0.172 A  
HETATM   23  C   UNL     1      -9.149  12.373  67.119  1.00  0.00    -0.199 A  
HETATM   24  C   UNL     1      -9.460  11.925  68.413  1.00  0.00    -0.189 A  
BRANCH  23  25
HETATM   25  C   UNL     1      -9.116  13.838  66.885  1.00  0.00    -0.242 C  
BRANCH  25  26
HETATM   26  N   UNL     1      -9.592  14.332  65.605  1.00  0.00    -0.179 NA 
HETATM   27  C   UNL     1     -12.778  13.357  69.520  1.00  0.00     0.454 C  
HETATM   28  H   UNL     1     -11.925  11.936  68.259  1.00  0.00     0.000 HD 
HETATM   29  N   UNL     1     -12.675  12.626  68.241  1.00  0.00     0.792 NA 
HETATM   30  C   UNL     1     -11.418  13.861  70.070  1.00  0.00    -0.140 C  
HETATM   31  C   UNL     1     -12.525  13.565  67.117  1.00  0.00    -0.007 C  
HETATM   32  C   UNL     1     -10.919  13.871  65.115  1.00  0.00    -0.350 C  
HETATM   33  N   UNL     1     -11.282  15.319  70.070  1.00  0.00    -0.266 NA 
HETATM   34  H   UNL     1     -11.869  15.738  70.792  1.00  0.00     0.000 HD 
HETATM   35  C   UNL     1     -11.863  12.916  65.904  1.00  0.00    -0.476 C  
HETATM   36  C   UNL     1      -9.888  15.772  70.201  1.00  0.00     0.108 C  
HETATM   37  C   UNL     1      -9.546  16.699  69.020  1.00  0.00    -0.246 C  
HETATM   38  C   UNL     1      -8.114  16.532  68.491  1.00  0.00    -0.218 C  
HETATM   39  N   UNL     1      -7.917  17.205  67.197  1.00  0.00    -0.183 NA 
HETATM   40  C   UNL     1      -8.047  16.381  65.971  1.00  0.00     0.039 C  
HETATM   41  H   UNL     1      -7.700  18.200  67.145  1.00  0.00     0.000 HD 
HETATM   42  C   UNL     1      -9.449  15.807  65.559  1.00  0.00    -0.099 C  
ENDBRANCH  25  26
ENDBRANCH  23  25
ENDBRANCH   1  19
TORSDOF 4
ENDMDL
MODEL      121
REMARK 921   NORMALIZED FREE ENERGY PREDICTED BY IDOCK:   -2.29 KCAL/MOL
REMARK 922        TOTAL FREE ENERGY PREDICTED BY IDOCK:   -4.41 KCAL/MOL
REMARK 923 INTER-LIGAND FREE ENERGY PREDICTED BY IDOCK:   -3.20 KCAL/MOL
REMARK 924 INTRA-LIGAND FREE ENERGY PREDICTED BY IDOCK:   -1.20 KCAL/MOL
REMARK 927      BINDING AFFINITY PREDICTED BY RF-SCORE:    0.00 PKD
ROOT
HETATM    1  C   UNL     1     -11.061  12.825  68.026  1.00  0.00    -0.250 C  
ENDROOT
BRANCH   1   2
HETATM    2  N   UNL     1     -12.388  13.397  68.153  1.00  0.00    -0.063 NA 
HETATM    3  C   UNL     1     -12.770  14.009  66.860  1.00  0.00     0.285 C  
HETATM    4  C   UNL     1     -12.609  13.077  65.609  1.00  0.00    -0.285 C  
HETATM    5  C   UNL     1     -12.653  14.302  69.310  1.00  0.00     0.158 C  
HETATM    6  C   UNL     1     -11.632  14.641  70.439  1.00  0.00    -0.326 C  
HETATM    7  H   UNL     1     -11.917  13.763  63.644  1.00  0.00     0.000 HD 
HETATM    8  C   UNL     1     -10.481  15.561  70.023  1.00  0.00    -0.309 C  
HETATM    9  N   UNL     1     -11.619  13.424  64.559  1.00  0.00    -0.355 NA 
HETATM   10  C   UNL     1     -10.188  13.265  64.883  1.00  0.00    -0.296 C  
HETATM   11  N   UNL     1      -9.181  15.115  70.549  1.00  0.00     0.252 NA 
HETATM   12  C   UNL     1      -9.556  14.561  65.413  1.00  0.00    -0.023 C  
HETATM   13  H   UNL     1      -9.149  14.101  70.655  1.00  0.00     0.000 HD 
HETATM   14  H   UNL     1      -7.338  16.053  66.958  1.00  0.00     0.000 HD 
HETATM   15  C   UNL     1      -8.182  14.375  66.085  1.00  0.00     1.285 C  
HETATM   16  C   UNL     1      -8.062  15.605  69.718  1.00  0.00     0.054 C  
HETATM   17  C   UNL     1      -7.764  14.723  68.477  1.00  0.00    -0.120 C  
HETATM   18  N   UNL     1      -8.043  15.352  67.182  1.00  0.00    -0.200 NA 
ENDBRANCH   1   2
BRANCH   1  19
HETATM   19  C   UNL     1     -10.873  11.392  68.403  1.00  0.00    -0.248 A  
HETATM   20  C   UNL     1     -11.259  10.935  69.652  1.00  0.00    -0.348 A  
HETATM   21  C   UNL     1     -10.550   9.887  70.180  1.00  0.00    -0.350 A  
HETATM   22  C   UNL     1     -10.150  10.603  67.523  1.00  0.00    -0.217 A  
HETATM   23  C   UNL     1      -9.708   9.133  69.364  1.00  0.00    -0.170 A  
HETATM   24  C   UNL     1      -9.491   9.502  68.026  1.00  0.00    -0.147 A  
BRANCH  23  25
HETATM   25  C   UNL     1      -9.014   7.921  69.867  1.00  0.00    -0.146 C  
BRANCH  25  26
HETATM   26  N   UNL     1      -8.650   7.881  71.272  1.00  0.00    -0.121 NA 
HETATM   27  C   UNL     1      -8.745   3.656  68.344  1.00  0.00    -0.103 C  
HETATM   28  H   UNL     1     -10.406   4.611  69.162  1.00  0.00     0.000 HD 
HETATM   29  N   UNL     1      -9.649   3.997  69.461  1.00  0.00    -0.195 NA 
HETATM   30  C   UNL     1      -8.318   4.875  67.485  1.00  0.00    -0.105 C  
HETATM   31  C   UNL     1      -8.891   4.572  70.584  1.00  0.00    -0.100 C  
HETATM   32  C   UNL     1      -9.030   6.683  72.069  1.00  0.00    -0.139 C  
HETATM   33  N   UNL     1      -6.896   5.207  67.592  1.00  0.00    -0.059 NA 
HETATM   34  H   UNL     1      -6.324   4.512  67.112  1.00  0.00     0.000 HD 
HETATM   35  C   UNL     1      -9.765   5.439  71.488  1.00  0.00    -0.209 C  
HETATM   36  C   UNL     1      -6.580   6.564  67.117  1.00  0.00    -0.055 C  
HETATM   37  C   UNL     1      -5.862   7.336  68.239  1.00  0.00    -0.023 C  
HETATM   38  C   UNL     1      -6.248   8.819  68.321  1.00  0.00    -0.054 C  
HETATM   39  N   UNL     1      -5.782   9.448  69.566  1.00  0.00    -0.034 NA 
HETATM   40  C   UNL     1      -6.745   9.540  70.690  1.00  0.00    -0.110 C  
HETATM   41  H   UNL     1      -4.831   9.808  69.654  1.00  0.00     0.000 HD 
HETATM   42  C   UNL     1      -7.218   8.235  71.423  1.00  0.00    -0.080 C  
ENDBRANCH  25  26
ENDBRANCH  23  25
ENDBRANCH   1  19
TORSDOF 4
ENDMDL
MODEL      122
REMARK 921   NORMALIZED FREE ENERGY PREDICTED BY IDOCK:   -2.27 KCAL/MOL
REMARK 922        TOTAL FREE ENERGY PREDICTED BY IDOCK:   -4.38 KCAL/MOL
REMARK 923 INTER-LIGAND FREE ENERGY PREDICTED BY IDOCK:   -4.79 KCAL/MOL
REMARK 924 INTRA-LIGAND FREE ENERGY PREDICTED BY IDOCK:    0.41 KCAL/MOL
REMARK 927      BINDING AFFINITY PREDICTED BY RF-SCORE:    0.00 PKD
ROOT
HETATM    1  C   UNL     1      -8.925  17.472  66.979  1.00  0.00    -0.240 C  
ENDROOT
BRANCH   1   2
HETATM    2  N   UNL     1     -10.289  17.798  67.351  1.00  0.00    -0.356 NA 
HETATM    3  C   UNL     1     -10.369  19.244  67.657  1.00  0.00    -0.429 C  
HETATM    4  C   UNL     1      -9.778  20.192  66.555  1.00  0.00    -0.426 C  
HETATM    5  C   UNL     1     -10.951  16.959  68.393  1.00  0.00    -0.296 C  
HETATM    6  C   UNL     1     -10.314  15.713  69.082  1.00  0.00    -0.241 C  
HETATM    7  H   UNL     1      -8.656  22.027  66.983  1.00  0.00     0.000 HD 
HETATM    8  C   UNL     1      -9.197  16.019  70.082  1.00  0.00     0.810 C  
HETATM    9  N   UNL     1      -8.583  21.016  66.863  1.00  0.00     0.131 NA 
HETATM   10  C   UNL     1      -7.285  20.326  66.988  1.00  0.00    -0.271 C  
HETATM   11  N   UNL     1      -8.048  15.109  69.945  1.00  0.00    -0.337 NA 
HETATM   12  C   UNL     1      -6.959  19.944  68.441  1.00  0.00    -0.335 C  
HETATM   13  H   UNL     1      -7.941  14.786  68.984  1.00  0.00     0.000 HD 
HETATM   14  H   UNL     1      -5.411  18.255  70.510  1.00  0.00     0.000 HD 
HETATM   15  C   UNL     1      -5.807  18.933  68.594  1.00  0.00    -0.208 C  
HETATM   16  C   UNL     1      -6.805  15.726  70.450  1.00  0.00     0.519 C  
HETATM   17  C   UNL     1      -6.090  16.640  69.419  1.00  0.00    -0.200 C  
HETATM   18  N   UNL     1      -6.073  18.068  69.758  1.00  0.00    -0.237 NA 
ENDBRANCH   1   2
BRANCH   1  19
HETATM   19  C   UNL     1      -8.645  16.101  66.457  1.00  0.00    -0.341 A  
HETATM   20  C   UNL     1      -9.532  15.480  65.595  1.00  0.00    -0.271 A  
HETATM   21  C   UNL     1      -9.594  14.111  65.643  1.00  0.00    -0.115 A  
HETATM   22  C   UNL     1      -7.563  15.432  67.007  1.00  0.00    -0.195 A  
HETATM   23  C   UNL     1      -8.594  13.390  66.293  1.00  0.00     0.509 A  
HETATM   24  C   UNL     1      -7.576  14.054  66.996  1.00  0.00     0.212 A  
BRANCH  23  25
HETATM   25  C   UNL     1      -8.561  11.906  66.267  1.00  0.00    -0.016 C  
BRANCH  25  26
HETATM   26  N   UNL     1      -8.879  11.198  67.494  1.00  0.00    -0.138 NA 
HETATM   27  C   UNL     1     -12.342  11.900  63.760  1.00  0.00    -0.434 C  
HETATM   28  H   UNL     1     -11.743  13.329  65.152  1.00  0.00     0.000 HD 
HETATM   29  N   UNL     1     -12.339  12.502  65.108  1.00  0.00    -0.573 NA 
HETATM   30  C   UNL     1     -10.931  11.740  63.137  1.00  0.00    -0.194 C  
HETATM   31  C   UNL     1     -11.962  11.504  66.122  1.00  0.00     0.725 C  
HETATM   32  C   UNL     1     -10.252  11.328  68.052  1.00  0.00    -0.183 C  
HETATM   33  N   UNL     1     -10.506  10.348  62.977  1.00  0.00    -0.387 NA 
HETATM   34  H   UNL     1     -11.024   9.894  62.225  1.00  0.00     0.000 HD 
HETATM   35  C   UNL     1     -11.397  12.147  67.386  1.00  0.00    -0.393 C  
HETATM   36  C   UNL     1      -9.056  10.203  62.776  1.00  0.00    -0.285 C  
HETATM   37  C   UNL     1      -8.490   9.250  63.844  1.00  0.00    -0.198 C  
HETATM   38  C   UNL     1      -7.102   9.649  64.364  1.00  0.00    -0.118 C  
HETATM   39  N   UNL     1      -6.725   8.903  65.575  1.00  0.00    -0.071 NA 
HETATM   40  C   UNL     1      -6.971   9.553  66.885  1.00  0.00    -0.081 C  
HETATM   41  H   UNL     1      -6.311   7.972  65.516  1.00  0.00     0.000 HD 
HETATM   42  C   UNL     1      -8.442   9.786  67.379  1.00  0.00    -0.121 C  
ENDBRANCH  25  26
ENDBRANCH  23  25
ENDBRANCH   1  19
TORSDOF 4
ENDMDL
MODEL      123
REMARK 921   NORMALIZED FREE ENERGY PREDICTED BY IDOCK:   -2.11 KCAL/MOL
REMARK 922        TOTAL FREE ENERGY PREDICTED BY IDOCK:   -4.19 KCAL/MOL
REMARK 923 INTER-LIGAND FREE ENERGY PREDICTED BY IDOCK:   -3.80 KCAL/MOL
REMARK 924 INTRA-LIGAND FREE ENERGY PREDICTED BY IDOCK:   -0.39 KCAL/MOL
REMARK 927      BINDING AFFINITY PREDICTED BY RF-SCORE:    0.00 PKD
ROOT
HETATM    1  C   UNL     1      -8.197   5.149  70.508  1.00  0.00    -0.102 C  
ENDROOT
BRANCH   1   2
HETATM    2  N   UNL     1      -6.830   4.977  70.960  1.00  0.00    -0.042 NA 
HETATM    3  C   UNL     1      -6.797   3.914  71.990  1.00  0.00    -0.030 C  
HETATM    4  C   UNL     1      -7.494   2.569  71.581  1.00  0.00    -0.040 C  
HETATM    5  C   UNL     1      -6.070   6.192  71.375  1.00  0.00    -0.036 C  
HETATM    6  C   UNL     1      -6.607   7.655  71.307  1.00  0.00    -0.041 C  
HETATM    7  H   UNL     1      -8.671   1.326  72.953  1.00  0.00     0.000 HD 
HETATM    8  C   UNL     1      -7.676   8.007  72.345  1.00  0.00    -0.114 C  
HETATM    9  N   UNL     1      -8.705   2.120  72.313  1.00  0.00    -0.065 NA 
HETATM   10  C   UNL     1      -9.961   2.860  72.083  1.00  0.00    -0.165 C  
HETATM   11  N   UNL     1      -8.789   8.782  71.772  1.00  0.00    -0.313 NA 
HETATM   12  C   UNL     1     -10.183   3.978  73.114  1.00  0.00    -0.220 C  
HETATM   13  H   UNL     1      -8.938   8.551  70.790  1.00  0.00     0.000 HD 
HETATM   14  H   UNL     1     -11.528   6.612  73.999  1.00  0.00     0.000 HD 
HETATM   15  C   UNL     1     -11.277   4.993  72.732  1.00  0.00    -0.222 C  
HETATM   16  C   UNL     1     -10.027   8.617  72.560  1.00  0.00    -0.187 C  
HETATM   17  C   UNL     1     -10.841   7.347  72.197  1.00  0.00    -0.235 C  
HETATM   18  N   UNL     1     -10.903   6.324  73.247  1.00  0.00    -0.260 NA 
ENDBRANCH   1   2
BRANCH   1  19
HETATM   19  C   UNL     1      -8.424   5.543  69.085  1.00  0.00    -0.104 A  
HETATM   20  C   UNL     1      -7.916   4.775  68.051  1.00  0.00    -0.085 A  
HETATM   21  C   UNL     1      -7.589   5.428  66.890  1.00  0.00    -0.089 A  
HETATM   22  C   UNL     1      -9.004   6.781  68.864  1.00  0.00    -0.131 A  
HETATM   23  C   UNL     1      -8.044   6.727  66.669  1.00  0.00    -0.110 A  
HETATM   24  C   UNL     1      -8.745   7.419  67.670  1.00  0.00    -0.125 A  
BRANCH  23  25
HETATM   25  C   UNL     1      -7.813   7.425  65.380  1.00  0.00    -0.118 C  
BRANCH  25  26
HETATM   26  N   UNL     1      -6.668   7.020  64.584  1.00  0.00    -0.042 NA 
HETATM   27  C   UNL     1      -9.946  10.658  63.018  1.00  0.00    -0.187 C  
HETATM   28  H   UNL     1     -10.280   8.604  62.947  1.00  0.00     0.000 HD 
HETATM   29  N   UNL     1      -9.752   9.313  62.440  1.00  0.00     0.764 NA 
HETATM   30  C   UNL     1      -9.816  10.706  64.562  1.00  0.00    -0.327 C  
HETATM   31  C   UNL     1      -8.320   8.981  62.368  1.00  0.00    -0.189 C  
HETATM   32  C   UNL     1      -6.799   7.023  63.101  1.00  0.00    -0.056 C  
HETATM   33  N   UNL     1      -8.649  11.452  65.038  1.00  0.00    -0.362 NA 
HETATM   34  H   UNL     1      -8.776  12.454  64.895  1.00  0.00     0.000 HD 
HETATM   35  C   UNL     1      -8.077   7.473  62.333  1.00  0.00    -0.125 C  
HETATM   36  C   UNL     1      -8.306  11.162  66.439  1.00  0.00    -0.167 C  
HETATM   37  C   UNL     1      -6.840  10.696  66.514  1.00  0.00    -0.124 C  
HETATM   38  C   UNL     1      -6.591   9.585  67.544  1.00  0.00    -0.063 C  
HETATM   39  N   UNL     1      -5.267   8.964  67.385  1.00  0.00    -0.033 NA 
HETATM   40  C   UNL     1      -5.189   7.710  66.597  1.00  0.00    -0.024 C  
HETATM   41  H   UNL     1      -4.433   9.381  67.800  1.00  0.00     0.000 HD 
HETATM   42  C   UNL     1      -5.460   7.739  65.051  1.00  0.00    -0.033 C  
ENDBRANCH  25  26
ENDBRANCH  23  25
ENDBRANCH   1  19
TORSDOF 4
ENDMDL
MODEL      124
REMARK 921   NORMALIZED FREE ENERGY PREDICTED BY IDOCK:   -2.03 KCAL/MOL
REMARK 922        TOTAL FREE ENERGY PREDICTED BY IDOCK:   -4.08 KCAL/MOL
REMARK 923 INTER-LIGAND FREE ENERGY PREDICTED BY IDOCK:   -5.47 KCAL/MOL
REMARK 924 INTRA-LIGAND FREE ENERGY PREDICTED BY IDOCK:    1.39 KCAL/MOL
REMARK 927      BINDING AFFINITY PREDICTED BY RF-SCORE:    0.00 PKD
ROOT
HETATM    1  C   UNL     1      -7.207  16.908  67.396  1.00  0.00    -0.159 C  
ENDROOT
BRANCH   1   2
HETATM    2  N   UNL     1      -6.136  17.188  68.334  1.00  0.00    -0.143 NA 
HETATM    3  C   UNL     1      -6.636  16.967  69.709  1.00  0.00    -0.030 C  
HETATM    4  C   UNL     1      -7.332  15.581  69.951  1.00  0.00    -0.008 C  
HETATM    5  C   UNL     1      -5.404  18.481  68.197  1.00  0.00    -0.167 C  
HETATM    6  C   UNL     1      -5.656  19.543  67.082  1.00  0.00    -0.171 C  
HETATM    7  H   UNL     1      -9.094  15.295  71.224  1.00  0.00     0.000 HD 
HETATM    8  C   UNL     1      -6.962  20.331  67.214  1.00  0.00    -0.266 C  
HETATM    9  N   UNL     1      -8.777  15.536  70.285  1.00  0.00     0.605 NA 
HETATM   10  C   UNL     1      -9.740  15.852  69.213  1.00  0.00    -0.263 C  
HETATM   11  N   UNL     1      -7.665  20.484  65.930  1.00  0.00    -0.527 NA 
HETATM   12  C   UNL     1     -10.149  17.334  69.205  1.00  0.00    -0.252 C  
HETATM   13  H   UNL     1      -7.483  19.695  65.309  1.00  0.00     0.000 HD 
HETATM   14  H   UNL     1     -11.313  19.810  67.777  1.00  0.00     0.000 HD 
HETATM   15  C   UNL     1     -10.868  17.793  67.922  1.00  0.00    -0.218 C  
HETATM   16  C   UNL     1      -9.113  20.695  66.126  1.00  0.00     0.291 C  
HETATM   17  C   UNL     1      -9.922  19.384  66.312  1.00  0.00    -0.430 C  
HETATM   18  N   UNL     1     -10.510  19.197  67.643  1.00  0.00    -0.423 NA 
ENDBRANCH   1   2
BRANCH   1  19
HETATM   19  C   UNL     1      -7.397  15.496  66.945  1.00  0.00    -0.058 A  
HETATM   20  C   UNL     1      -8.443  15.160  66.104  1.00  0.00     0.322 A  
HETATM   21  C   UNL     1      -8.953  13.892  66.218  1.00  0.00     0.081 A  
HETATM   22  C   UNL     1      -6.594  14.536  67.540  1.00  0.00    -0.106 A  
HETATM   23  C   UNL     1      -8.244  12.915  66.914  1.00  0.00    -0.012 A  
HETATM   24  C   UNL     1      -7.060  13.241  67.596  1.00  0.00    -0.163 A  
BRANCH  23  25
HETATM   25  C   UNL     1      -8.702  11.504  66.961  1.00  0.00    -0.169 C  
BRANCH  25  26
HETATM   26  N   UNL     1      -9.651  11.132  67.995  1.00  0.00    -0.171 NA 
HETATM   27  C   UNL     1     -11.071  11.869  63.109  1.00  0.00    -0.183 C  
HETATM   28  H   UNL     1     -10.673  13.365  64.502  1.00  0.00     0.000 HD 
HETATM   29  N   UNL     1     -11.414  12.700  64.280  1.00  0.00    -0.339 NA 
HETATM   30  C   UNL     1      -9.637  11.282  63.150  1.00  0.00    -0.374 C  
HETATM   31  C   UNL     1     -11.752  11.854  65.436  1.00  0.00    -0.162 C  
HETATM   32  C   UNL     1     -11.035  11.670  67.913  1.00  0.00    -0.225 C  
HETATM   33  N   UNL     1      -9.595   9.825  63.298  1.00  0.00    -0.513 NA 
HETATM   34  H   UNL     1      -9.891   9.365  62.437  1.00  0.00     0.000 HD 
HETATM   35  C   UNL     1     -11.557  12.583  66.764  1.00  0.00    -0.446 C  
HETATM   36  C   UNL     1      -8.283   9.324  63.735  1.00  0.00    -0.166 C  
HETATM   37  C   UNL     1      -8.463   8.489  65.016  1.00  0.00    -0.183 C  
HETATM   38  C   UNL     1      -7.328   8.658  66.036  1.00  0.00    -0.085 C  
HETATM   39  N   UNL     1      -7.670   8.090  67.349  1.00  0.00    -0.100 NA 
HETATM   40  C   UNL     1      -8.203   9.016  68.378  1.00  0.00    -0.116 C  
HETATM   41  H   UNL     1      -7.546   7.097  67.546  1.00  0.00     0.000 HD 
HETATM   42  C   UNL     1      -9.621   9.663  68.189  1.00  0.00    -0.143 C  
ENDBRANCH  25  26
ENDBRANCH  23  25
ENDBRANCH   1  19
TORSDOF 4
ENDMDL
MODEL      125
REMARK 921   NORMALIZED FREE ENERGY PREDICTED BY IDOCK:   -1.77 KCAL/MOL
REMARK 922        TOTAL FREE ENERGY PREDICTED BY IDOCK:   -3.76 KCAL/MOL
REMARK 923 INTER-LIGAND FREE ENERGY PREDICTED BY IDOCK:   -2.68 KCAL/MOL
REMARK 924 INTRA-LIGAND FREE ENERGY PREDICTED BY IDOCK:   -1.08 KCAL/MOL
REMARK 927      BINDING AFFINITY PREDICTED BY RF-SCORE:    0.00 PKD
ROOT
HETATM    1  C   UNL     1      -9.021  17.497  68.756  1.00  0.00    -0.211 C  
ENDROOT
BRANCH   1   2
HETATM    2  N   UNL     1     -10.144  18.404  68.615  1.00  0.00    -0.381 NA 
HETATM    3  C   UNL     1     -10.504  18.499  67.182  1.00  0.00    -0.409 C  
HETATM    4  C   UNL     1     -10.715  17.125  66.455  1.00  0.00    -0.074 C  
HETATM    5  C   UNL     1     -10.050  19.744  69.267  1.00  0.00    -0.216 C  
HETATM    6  C   UNL     1      -8.859  20.234  70.146  1.00  0.00     1.397 C  
HETATM    7  H   UNL     1     -10.096  16.716  64.392  1.00  0.00     0.000 HD 
HETATM    8  C   UNL     1      -7.570  20.549  69.383  1.00  0.00     0.817 C  
HETATM    9  N   UNL     1      -9.791  16.723  65.366  1.00  0.00    -0.508 NA 
HETATM   10  C   UNL     1      -8.418  16.334  65.737  1.00  0.00     0.347 C  
HETATM   11  N   UNL     1      -6.369  20.031  70.059  1.00  0.00    -0.358 NA 
HETATM   12  C   UNL     1      -7.431  17.511  65.661  1.00  0.00     0.270 C  
HETATM   13  H   UNL     1      -6.577  19.187  70.592  1.00  0.00     0.000 HD 
HETATM   14  H   UNL     1      -4.759  18.853  66.427  1.00  0.00     0.000 HD 
HETATM   15  C   UNL     1      -6.080  17.259  66.357  1.00  0.00    -0.206 C  
HETATM   16  C   UNL     1      -5.263  19.810  69.106  1.00  0.00    -0.181 C  
HETATM   17  C   UNL     1      -5.329  18.446  68.369  1.00  0.00    -0.169 C  
HETATM   18  N   UNL     1      -5.586  18.527  66.926  1.00  0.00    -0.142 NA 
ENDBRANCH   1   2
BRANCH   1  19
HETATM   19  C   UNL     1      -9.300  16.093  69.183  1.00  0.00    -0.238 A  
HETATM   20  C   UNL     1      -8.331  15.112  69.057  1.00  0.00    -0.209 A  
HETATM   21  C   UNL     1      -8.764  13.829  68.848  1.00  0.00     0.146 A  
HETATM   22  C   UNL     1     -10.605  15.794  69.537  1.00  0.00    -0.272 A  
HETATM   23  C   UNL     1     -10.100  13.499  69.071  1.00  0.00     0.076 A  
HETATM   24  C   UNL     1     -11.035  14.492  69.403  1.00  0.00    -0.275 A  
BRANCH  23  25
HETATM   25  C   UNL     1     -10.584  12.100  68.970  1.00  0.00    -0.079 C  
BRANCH  25  26
HETATM   26  N   UNL     1     -11.665  11.820  68.041  1.00  0.00    -0.485 NA 
HETATM   27  C   UNL     1      -6.822  10.352  67.133  1.00  0.00    -0.083 C  
HETATM   28  H   UNL     1      -7.579  12.277  66.889  1.00  0.00     0.000 HD 
HETATM   29  N   UNL     1      -7.602  11.377  66.410  1.00  0.00    -0.078 NA 
HETATM   30  C   UNL     1      -7.102  10.305  68.657  1.00  0.00    -0.075 C  
HETATM   31  C   UNL     1      -8.981  10.915  66.182  1.00  0.00    -0.183 C  
HETATM   32  C   UNL     1     -11.366  11.826  66.584  1.00  0.00    -0.316 C  
HETATM   33  N   UNL     1      -7.773   9.081  69.101  1.00  0.00    -0.090 NA 
HETATM   34  H   UNL     1      -7.135   8.286  69.069  1.00  0.00     0.000 HD 
HETATM   35  C   UNL     1      -9.953  12.075  65.978  1.00  0.00    -0.258 C  
HETATM   36  C   UNL     1      -8.388   9.206  70.432  1.00  0.00    -0.185 C  
HETATM   37  C   UNL     1      -9.882   8.847  70.333  1.00  0.00    -0.224 C  
HETATM   38  C   UNL     1     -10.791   9.706  71.223  1.00  0.00    -0.296 C  
HETATM   39  N   UNL     1     -12.214   9.543  70.888  1.00  0.00    -0.397 NA 
HETATM   40  C   UNL     1     -12.822  10.542  69.977  1.00  0.00     0.023 C  
HETATM   41  H   UNL     1     -12.762   8.771  71.268  1.00  0.00     0.000 HD 
HETATM   42  C   UNL     1     -12.384  10.597  68.471  1.00  0.00     0.835 C  
ENDBRANCH  25  26
ENDBRANCH  23  25
ENDBRANCH   1  19
TORSDOF 4
ENDMDL
MODEL      126
REMARK 921   NORMALIZED FREE ENERGY PREDICTED BY IDOCK:   -1.63 KCAL/MOL
REMARK 922        TOTAL FREE ENERGY PREDICTED BY IDOCK:   -3.60 KCAL/MOL
REMARK 923 INTER-LIGAND FREE ENERGY PREDICTED BY IDOCK:   -3.50 KCAL/MOL
REMARK 924 INTRA-LIGAND FREE ENERGY PREDICTED BY IDOCK:   -0.10 KCAL/MOL
REMARK 927      BINDING AFFINITY PREDICTED BY RF-SCORE:    0.00 PKD
ROOT
HETATM    1  C   UNL     1      -8.490   4.583  66.442  1.00  0.00    -0.112 C  
ENDROOT
BRANCH   1   2
HETATM    2  N   UNL     1      -9.789   3.939  66.477  1.00  0.00    -0.166 NA 
HETATM    3  C   UNL     1      -9.759   2.860  67.490  1.00  0.00     0.209 C  
HETATM    4  C   UNL     1      -9.237   3.288  68.905  1.00  0.00    -0.163 C  
HETATM    5  C   UNL     1     -10.383   3.488  65.184  1.00  0.00     0.201 C  
HETATM    6  C   UNL     1      -9.746   3.707  63.777  1.00  0.00    -0.157 C  
HETATM    7  H   UNL     1      -7.980   2.028  70.187  1.00  0.00     0.000 HD 
HETATM    8  C   UNL     1      -8.517   2.846  63.476  1.00  0.00    -0.086 C  
HETATM    9  N   UNL     1      -7.974   2.708  69.426  1.00  0.00    -0.042 NA 
HETATM   10  C   UNL     1      -6.708   3.147  68.807  1.00  0.00    -0.040 C  
HETATM   11  N   UNL     1      -7.438   3.606  62.824  1.00  0.00    -0.052 NA 
HETATM   12  C   UNL     1      -6.255   2.217  67.671  1.00  0.00    -0.024 C  
HETATM   13  H   UNL     1      -7.448   4.586  63.108  1.00  0.00     0.000 HD 
HETATM   14  H   UNL     1      -4.593   1.665  65.128  1.00  0.00     0.000 HD 
HETATM   15  C   UNL     1      -5.148   2.798  66.770  1.00  0.00    -0.004 C  
HETATM   16  C   UNL     1      -6.118   2.989  63.062  1.00  0.00    -0.014 C  
HETATM   17  C   UNL     1      -5.467   3.393  64.412  1.00  0.00    -0.009 C  
HETATM   18  N   UNL     1      -5.338   2.309  65.392  1.00  0.00    -0.008 NA 
ENDBRANCH   1   2
BRANCH   1  19
HETATM   19  C   UNL     1      -8.434   6.037  66.101  1.00  0.00    -0.134 A  
HETATM   20  C   UNL     1      -7.394   6.543  65.341  1.00  0.00    -0.076 A  
HETATM   21  C   UNL     1      -7.029   7.845  65.569  1.00  0.00    -0.059 A  
HETATM   22  C   UNL     1      -9.361   6.860  66.719  1.00  0.00    -0.190 A  
HETATM   23  C   UNL     1      -7.870   8.687  66.294  1.00  0.00    -0.102 A  
HETATM   24  C   UNL     1      -9.040   8.190  66.890  1.00  0.00    -0.185 A  
BRANCH  23  25
HETATM   25  C   UNL     1      -7.569  10.131  66.464  1.00  0.00    -0.109 C  
BRANCH  25  26
HETATM   26  N   UNL     1      -6.217  10.581  66.185  1.00  0.00    -0.100 NA 
HETATM   27  C   UNL     1      -9.998  10.958  62.722  1.00  0.00    -0.137 C  
HETATM   28  H   UNL     1      -8.949   9.222  63.198  1.00  0.00     0.000 HD 
HETATM   29  N   UNL     1      -8.811  10.081  62.665  1.00  0.00    -0.211 NA 
HETATM   30  C   UNL     1     -10.579  11.141  64.148  1.00  0.00    -0.368 C  
HETATM   31  C   UNL     1      -7.608  10.808  63.104  1.00  0.00     0.155 C  
HETATM   32  C   UNL     1      -5.693  10.436  64.800  1.00  0.00    -0.133 C  
HETATM   33  N   UNL     1     -10.438  12.500  64.677  1.00  0.00    -0.304 NA 
HETATM   34  H   UNL     1     -11.072  13.141  64.202  1.00  0.00     0.000 HD 
HETATM   35  C   UNL     1      -6.514   9.868  63.605  1.00  0.00    -0.125 C  
HETATM   36  C   UNL     1     -10.610  12.575  66.136  1.00  0.00    -0.253 C  
HETATM   37  C   UNL     1      -9.365  13.232  66.758  1.00  0.00    -0.254 C  
HETATM   38  C   UNL     1      -8.949  12.629  68.107  1.00  0.00    -0.199 C  
HETATM   39  N   UNL     1      -7.608  13.067  68.524  1.00  0.00    -0.135 NA 
HETATM   40  C   UNL     1      -6.468  12.171  68.216  1.00  0.00    -0.055 C  
HETATM   41  H   UNL     1      -7.468  13.955  69.006  1.00  0.00     0.000 HD 
HETATM   42  C   UNL     1      -6.028  11.948  66.726  1.00  0.00    -0.053 C  
ENDBRANCH  25  26
ENDBRANCH  23  25
ENDBRANCH   1  19
TORSDOF 4
ENDMDL
MODEL      127
REMARK 921   NORMALIZED FREE ENERGY PREDICTED BY IDOCK:   -1.63 KCAL/MOL
REMARK 922        TOTAL FREE ENERGY PREDICTED BY IDOCK:   -3.59 KCAL/MOL
REMARK 923 INTER-LIGAND FREE ENERGY PREDICTED BY IDOCK:   -5.34 KCAL/MOL
REMARK 924 INTRA-LIGAND FREE ENERGY PREDICTED BY IDOCK:    1.74 KCAL/MOL
REMARK 927      BINDING AFFINITY PREDICTED BY RF-SCORE:    0.00 PKD
ROOT
HETATM    1  C   UNL     1      -8.672  10.818  66.965  1.00  0.00    -0.136 C  
ENDROOT
BRANCH   1   2
HETATM    2  N   UNL     1      -9.942  10.677  67.650  1.00  0.00    -0.166 NA 
HETATM    3  C   UNL     1     -10.047   9.301  68.185  1.00  0.00    -0.187 C  
HETATM    4  C   UNL     1      -8.820   8.823  69.038  1.00  0.00    -0.137 C  
HETATM    5  C   UNL     1     -11.179  11.102  66.930  1.00  0.00    -0.186 C  
HETATM    6  C   UNL     1     -11.216  11.746  65.510  1.00  0.00    -0.316 C  
HETATM    7  H   UNL     1      -8.009   6.786  68.994  1.00  0.00     0.000 HD 
HETATM    8  C   UNL     1     -10.906  10.793  64.353  1.00  0.00     0.101 C  
HETATM    9  N   UNL     1      -7.978   7.703  68.547  1.00  0.00    -0.121 NA 
HETATM   10  C   UNL     1      -7.097   7.960  67.393  1.00  0.00    -0.083 C  
HETATM   11  N   UNL     1     -10.005  11.390  63.353  1.00  0.00    -0.364 NA 
HETATM   12  C   UNL     1      -7.754   7.587  66.055  1.00  0.00    -0.094 C  
HETATM   13  H   UNL     1      -9.371  12.066  63.779  1.00  0.00     0.000 HD 
HETATM   14  H   UNL     1      -7.948   7.811  62.982  1.00  0.00     0.000 HD 
HETATM   15  C   UNL     1      -7.036   8.145  64.811  1.00  0.00    -0.074 C  
HETATM   16  C   UNL     1      -9.265  10.354  62.603  1.00  0.00    -0.303 C  
HETATM   17  C   UNL     1      -7.987   9.847  63.322  1.00  0.00    -0.151 C  
HETATM   18  N   UNL     1      -8.036   8.451  63.771  1.00  0.00    -0.157 NA 
ENDBRANCH   1   2
BRANCH   1  19
HETATM   19  C   UNL     1      -8.150  12.197  66.726  1.00  0.00    -0.055 A  
HETATM   20  C   UNL     1      -6.879  12.552  67.145  1.00  0.00    -0.058 A  
HETATM   21  C   UNL     1      -6.678  13.865  67.485  1.00  0.00    -0.132 A  
HETATM   22  C   UNL     1      -9.048  13.129  66.232  1.00  0.00     0.009 A  
HETATM   23  C   UNL     1      -7.614  14.831  67.120  1.00  0.00    -0.114 A  
HETATM   24  C   UNL     1      -8.819  14.461  66.502  1.00  0.00    -0.122 A  
BRANCH  23  25
HETATM   25  C   UNL     1      -7.379  16.276  67.364  1.00  0.00    -0.163 C  
BRANCH  25  26
HETATM   26  N   UNL     1      -6.329  16.646  68.297  1.00  0.00    -0.132 NA 
HETATM   27  C   UNL     1      -9.208  20.154  65.882  1.00  0.00    -0.082 C  
HETATM   28  H   UNL     1      -7.616  19.100  65.049  1.00  0.00     0.000 HD 
HETATM   29  N   UNL     1      -7.770  19.882  65.686  1.00  0.00    -0.361 NA 
HETATM   30  C   UNL     1     -10.058  18.887  66.160  1.00  0.00    -0.393 C  
HETATM   31  C   UNL     1      -7.101  19.671  66.980  1.00  0.00    -0.208 C  
HETATM   32  C   UNL     1      -5.554  17.889  68.035  1.00  0.00    -0.150 C  
HETATM   33  N   UNL     1     -10.616  18.832  67.513  1.00  0.00    -0.432 NA 
HETATM   34  H   UNL     1     -11.369  19.511  67.623  1.00  0.00     0.000 HD 
HETATM   35  C   UNL     1      -5.818  18.854  66.842  1.00  0.00    -0.164 C  
HETATM   36  C   UNL     1     -11.064  17.485  67.902  1.00  0.00     0.021 C  
HETATM   37  C   UNL     1     -10.360  17.077  69.209  1.00  0.00    -0.276 C  
HETATM   38  C   UNL     1      -9.975  15.592  69.272  1.00  0.00    -0.264 C  
HETATM   39  N   UNL     1      -9.056  15.302  70.383  1.00  0.00     0.072 NA 
HETATM   40  C   UNL     1      -7.605  15.261  70.078  1.00  0.00     0.125 C  
HETATM   41  H   UNL     1      -9.402  15.135  71.327  1.00  0.00     0.000 HD 
HETATM   42  C   UNL     1      -6.851  16.580  69.682  1.00  0.00    -0.081 C  
ENDBRANCH  25  26
ENDBRANCH  23  25
ENDBRANCH   1  19
TORSDOF 4
ENDMDL
MODEL      128
REMARK 921   NORMALIZED FREE ENERGY PREDICTED BY IDOCK:   -1.56 KCAL/MOL
REMARK 922        TOTAL FREE ENERGY PREDICTED BY IDOCK:   -3.51 KCAL/MOL
REMARK 923 INTER-LIGAND FREE ENERGY PREDICTED BY IDOCK:   -3.65 KCAL/MOL
REMARK 924 INTRA-LIGAND FREE ENERGY PREDICTED BY IDOCK:    0.14 KCAL/MOL
REMARK 927      BINDING AFFINITY PREDICTED BY RF-SCORE:    0.00 PKD
ROOT
HETATM    1  C   UNL     1      -9.452  12.499  67.681  1.00  0.00    -0.188 C  
ENDROOT
BRANCH   1   2
HETATM    2  N   UNL     1     -10.316  12.299  68.828  1.00  0.00    -0.182 NA 
HETATM    3  C   UNL     1     -10.518  10.846  69.027  1.00  0.00    -0.219 C  
HETATM    4  C   UNL     1      -9.203   9.992  69.079  1.00  0.00    -0.178 C  
HETATM    5  C   UNL     1     -11.598  13.062  68.883  1.00  0.00    -0.311 C  
HETATM    6  C   UNL     1     -12.064  14.113  67.828  1.00  0.00    -0.321 C  
HETATM    7  H   UNL     1      -9.001   7.990  68.208  1.00  0.00     0.000 HD 
HETATM    8  C   UNL     1     -12.502  13.534  66.480  1.00  0.00    -0.253 C  
HETATM    9  N   UNL     1      -8.938   8.990  68.017  1.00  0.00    -0.133 NA 
HETATM   10  C   UNL     1      -8.582   9.488  66.675  1.00  0.00    -0.134 C  
HETATM   11  N   UNL     1     -11.983  14.304  65.337  1.00  0.00    -0.370 NA 
HETATM   12  C   UNL     1      -9.804   9.624  65.752  1.00  0.00    -0.373 C  
HETATM   13  H   UNL     1     -11.087  14.739  65.557  1.00  0.00     0.000 HD 
HETATM   14  H   UNL     1     -11.195  10.804  63.262  1.00  0.00     0.000 HD 
HETATM   15  C   UNL     1      -9.555  10.452  64.477  1.00  0.00    -0.309 C  
HETATM   16  C   UNL     1     -11.894  13.473  64.120  1.00  0.00    -0.437 C  
HETATM   17  C   UNL     1     -10.597  12.626  64.026  1.00  0.00    -0.427 C  
HETATM   18  N   UNL     1     -10.790  11.175  64.122  1.00  0.00    -0.352 NA 
ENDBRANCH   1   2
BRANCH   1  19
HETATM   19  C   UNL     1      -8.549  13.689  67.677  1.00  0.00    -0.185 A  
HETATM   20  C   UNL     1      -7.469  13.757  68.540  1.00  0.00    -0.119 A  
HETATM   21  C   UNL     1      -7.080  15.005  68.956  1.00  0.00    -0.133 A  
HETATM   22  C   UNL     1      -8.944  14.771  66.906  1.00  0.00    -0.276 A  
HETATM   23  C   UNL     1      -7.547  16.138  68.292  1.00  0.00    -0.146 A  
HETATM   24  C   UNL     1      -8.500  16.024  67.267  1.00  0.00    -0.206 A  
BRANCH  23  25
HETATM   25  C   UNL     1      -7.059  17.497  68.634  1.00  0.00    -0.243 C  
BRANCH  25  26
HETATM   26  N   UNL     1      -5.815  17.944  68.032  1.00  0.00    -0.156 NA 
HETATM   27  C   UNL     1     -10.403  19.129  66.036  1.00  0.00    -0.463 C  
HETATM   28  H   UNL     1      -9.428  17.297  65.851  1.00  0.00     0.000 HD 
HETATM   29  N   UNL     1      -9.374  18.238  65.462  1.00  0.00     0.141 NA 
HETATM   30  C   UNL     1     -10.512  19.050  67.581  1.00  0.00    -0.440 C  
HETATM   31  C   UNL     1      -8.033  18.820  65.625  1.00  0.00     0.346 C  
HETATM   32  C   UNL     1      -5.744  18.055  66.550  1.00  0.00    -0.163 C  
HETATM   33  N   UNL     1     -10.092  20.273  68.269  1.00  0.00    -0.330 NA 
HETATM   34  H   UNL     1     -10.775  21.018  68.136  1.00  0.00     0.000 HD 
HETATM   35  C   UNL     1      -6.933  17.761  65.589  1.00  0.00    -0.076 C  
HETATM   36  C   UNL     1      -9.814  20.067  69.700  1.00  0.00     0.185 C  
HETATM   37  C   UNL     1      -8.383  20.544  70.010  1.00  0.00     1.745 C  
HETATM   38  C   UNL     1      -7.644  19.673  71.035  1.00  0.00     1.776 C  
HETATM   39  N   UNL     1      -6.205  19.973  71.085  1.00  0.00    -0.306 NA 
HETATM   40  C   UNL     1      -5.298  19.113  70.287  1.00  0.00    -0.221 C  
HETATM   41  H   UNL     1      -5.843  20.743  71.648  1.00  0.00     0.000 HD 
HETATM   42  C   UNL     1      -5.345  19.170  68.719  1.00  0.00    -0.196 C  
ENDBRANCH  25  26
ENDBRANCH  23  25
ENDBRANCH   1  19
TORSDOF 4
ENDMDL
MODEL      129
REMARK 921   NORMALIZED FREE ENERGY PREDICTED BY IDOCK:   -1.55 KCAL/MOL
REMARK 922        TOTAL FREE ENERGY PREDICTED BY IDOCK:   -3.49 KCAL/MOL
REMARK 923 INTER-LIGAND FREE ENERGY PREDICTED BY IDOCK:   -2.30 KCAL/MOL
REMARK 924 INTRA-LIGAND FREE ENERGY PREDICTED BY IDOCK:   -1.18 KCAL/MOL
REMARK 927      BINDING AFFINITY PREDICTED BY RF-SCORE:    0.00 PKD
ROOT
HETATM    1  C   UNL     1      -8.260   8.402  66.847  1.00  0.00    -0.103 C  
ENDROOT
BRANCH   1   2
HETATM    2  N   UNL     1      -6.957   8.341  66.214  1.00  0.00    -0.065 NA 
HETATM    3  C   UNL     1      -6.828   7.047  65.507  1.00  0.00    -0.052 C  
HETATM    4  C   UNL     1      -8.011   6.698  64.537  1.00  0.00    -0.106 C  
HETATM    5  C   UNL     1      -5.758   8.655  67.046  1.00  0.00    -0.042 C  
HETATM    6  C   UNL     1      -5.793   9.106  68.539  1.00  0.00    -0.041 C  
HETATM    7  H   UNL     1      -8.828   4.680  64.270  1.00  0.00     0.000 HD 
HETATM    8  C   UNL     1      -6.164   8.011  69.542  1.00  0.00    -0.034 C  
HETATM    9  N   UNL     1      -8.879   5.530  64.831  1.00  0.00    -0.074 NA 
HETATM   10  C   UNL     1      -9.818   5.640  65.963  1.00  0.00    -0.018 C  
HETATM   11  N   UNL     1      -7.114   8.478  70.566  1.00  0.00    -0.038 NA 
HETATM   12  C   UNL     1      -9.231   5.088  67.272  1.00  0.00    -0.127 C  
HETATM   13  H   UNL     1      -7.723   9.211  70.202  1.00  0.00     0.000 HD 
HETATM   14  H   UNL     1      -9.196   4.901  70.353  1.00  0.00     0.000 HD 
HETATM   15  C   UNL     1     -10.012   5.482  68.541  1.00  0.00    -0.157 C  
HETATM   16  C   UNL     1      -7.894   7.359  71.132  1.00  0.00    -0.092 C  
HETATM   17  C   UNL     1      -9.135   6.963  70.288  1.00  0.00    -0.153 C  
HETATM   18  N   UNL     1      -9.066   5.638  69.662  1.00  0.00    -0.128 NA 
ENDBRANCH   1   2
BRANCH   1  19
HETATM   19  C   UNL     1      -8.915   9.737  66.985  1.00  0.00    -0.152 A  
HETATM   20  C   UNL     1      -8.758  10.705  66.008  1.00  0.00    -0.186 A  
HETATM   21  C   UNL     1      -8.803  12.014  66.412  1.00  0.00    -0.126 A  
HETATM   22  C   UNL     1      -9.528  10.011  68.198  1.00  0.00    -0.148 A  
HETATM   23  C   UNL     1      -9.296  12.338  67.674  1.00  0.00    -0.186 A  
HETATM   24  C   UNL     1      -9.648  11.328  68.585  1.00  0.00    -0.195 A  
BRANCH  23  25
HETATM   25  C   UNL     1      -9.472  13.747  68.105  1.00  0.00    -0.212 C  
BRANCH  25  26
HETATM   26  N   UNL     1     -10.088  13.990  69.397  1.00  0.00     0.153 NA 
HETATM   27  C   UNL     1      -7.447  17.621  66.893  1.00  0.00    -0.199 C  
HETATM   28  H   UNL     1      -6.624  16.042  67.974  1.00  0.00     0.000 HD 
HETATM   29  N   UNL     1      -7.072  16.942  68.149  1.00  0.00    -0.160 NA 
HETATM   30  C   UNL     1      -8.168  16.705  65.871  1.00  0.00     0.111 C  
HETATM   31  C   UNL     1      -8.240  16.807  69.035  1.00  0.00    -0.172 C  
HETATM   32  C   UNL     1      -9.403  14.908  70.347  1.00  0.00     1.035 C  
HETATM   33  N   UNL     1      -9.571  17.058  65.643  1.00  0.00    -0.530 NA 
HETATM   34  H   UNL     1      -9.645  17.922  65.107  1.00  0.00     0.000 HD 
HETATM   35  C   UNL     1      -8.078  15.665  70.037  1.00  0.00     0.445 C  
HETATM   36  C   UNL     1     -10.345  15.979  65.008  1.00  0.00    -0.106 C  
HETATM   37  C   UNL     1     -11.566  15.651  65.886  1.00  0.00     0.296 C  
HETATM   38  C   UNL     1     -11.915  14.157  65.935  1.00  0.00    -0.409 C  
HETATM   39  N   UNL     1     -12.883  13.846  66.998  1.00  0.00    -0.162 NA 
HETATM   40  C   UNL     1     -12.347  13.360  68.293  1.00  0.00     0.120 C  
HETATM   41  H   UNL     1     -13.887  13.959  66.851  1.00  0.00     0.000 HD 
HETATM   42  C   UNL     1     -11.519  14.330  69.209  1.00  0.00    -0.289 C  
ENDBRANCH  25  26
ENDBRANCH  23  25
ENDBRANCH   1  19
TORSDOF 4
ENDMDL
MODEL      130
REMARK 921   NORMALIZED FREE ENERGY PREDICTED BY IDOCK:   -1.53 KCAL/MOL
REMARK 922        TOTAL FREE ENERGY PREDICTED BY IDOCK:   -3.47 KCAL/MOL
REMARK 923 INTER-LIGAND FREE ENERGY PREDICTED BY IDOCK:   -4.40 KCAL/MOL
REMARK 924 INTRA-LIGAND FREE ENERGY PREDICTED BY IDOCK:    0.92 KCAL/MOL
REMARK 927      BINDING AFFINITY PREDICTED BY RF-SCORE:    0.00 PKD
ROOT
HETATM    1  C   UNL     1      -9.352  11.433  67.879  1.00  0.00    -0.164 C  
ENDROOT
BRANCH   1   2
HETATM    2  N   UNL     1     -10.244  11.848  66.813  1.00  0.00    -0.204 NA 
HETATM    3  C   UNL     1      -9.546  11.689  65.517  1.00  0.00    -0.218 C  
HETATM    4  C   UNL     1      -8.899  10.280  65.278  1.00  0.00    -0.180 C  
HETATM    5  C   UNL     1     -10.915  13.176  66.937  1.00  0.00    -0.276 C  
HETATM    6  C   UNL     1     -10.784  14.139  68.157  1.00  0.00    -0.251 C  
HETATM    7  H   UNL     1      -6.976   9.964  64.272  1.00  0.00     0.000 HD 
HETATM    8  C   UNL     1      -9.432  14.845  68.288  1.00  0.00    -0.210 C  
HETATM    9  N   UNL     1      -7.424  10.161  65.168  1.00  0.00    -0.139 NA 
HETATM   10  C   UNL     1      -6.626  10.337  66.396  1.00  0.00    -0.092 C  
HETATM   11  N   UNL     1      -8.934  14.862  69.673  1.00  0.00    -0.444 NA 
HETATM   12  C   UNL     1      -6.142  11.784  66.582  1.00  0.00    -0.033 C  
HETATM   13  H   UNL     1      -9.255  14.046  70.195  1.00  0.00     0.000 HD 
HETATM   14  H   UNL     1      -5.083  14.074  68.362  1.00  0.00     0.000 HD 
HETATM   15  C   UNL     1      -5.611  12.105  67.992  1.00  0.00    -0.060 C  
HETATM   16  C   UNL     1      -7.463  14.988  69.719  1.00  0.00    -0.102 C  
HETATM   17  C   UNL     1      -6.709  13.642  69.557  1.00  0.00    -0.023 C  
HETATM   18  N   UNL     1      -5.930  13.507  68.322  1.00  0.00    -0.089 NA 
ENDBRANCH   1   2
BRANCH   1  19
HETATM   19  C   UNL     1      -9.398  10.007  68.321  1.00  0.00    -0.136 A  
HETATM   20  C   UNL     1      -8.392   9.482  69.113  1.00  0.00    -0.125 A  
HETATM   21  C   UNL     1      -8.124   8.144  68.976  1.00  0.00    -0.115 A  
HETATM   22  C   UNL     1     -10.386   9.212  67.764  1.00  0.00    -0.302 A  
HETATM   23  C   UNL     1      -9.027   7.316  68.313  1.00  0.00    -0.125 A  
HETATM   24  C   UNL     1     -10.163   7.854  67.686  1.00  0.00    -0.289 A  
BRANCH  23  25
HETATM   25  C   UNL     1      -8.833   5.846  68.245  1.00  0.00    -0.110 C  
BRANCH  25  26
HETATM   26  N   UNL     1      -9.997   4.998  68.428  1.00  0.00    -0.155 NA 
HETATM   27  C   UNL     1      -5.333   3.075  67.437  1.00  0.00    -0.016 C  
HETATM   28  H   UNL     1      -6.616   3.940  66.043  1.00  0.00     0.000 HD 
HETATM   29  N   UNL     1      -6.517   3.063  66.554  1.00  0.00    -0.035 NA 
HETATM   30  C   UNL     1      -5.194   4.364  68.288  1.00  0.00    -0.007 C  
HETATM   31  C   UNL     1      -7.731   2.736  67.319  1.00  0.00    -0.069 C  
HETATM   32  C   UNL     1     -10.090   3.743  67.634  1.00  0.00     0.423 C  
HETATM   33  N   UNL     1      -5.374   4.149  69.725  1.00  0.00    -0.007 NA 
HETATM   34  H   UNL     1      -4.576   3.653  70.121  1.00  0.00     0.000 HD 
HETATM   35  C   UNL     1      -8.999   3.249  66.640  1.00  0.00    -0.165 C  
HETATM   36  C   UNL     1      -5.642   5.390  70.469  1.00  0.00    -0.005 C  
HETATM   37  C   UNL     1      -6.958   5.235  71.253  1.00  0.00    -0.053 C  
HETATM   38  C   UNL     1      -7.808   6.512  71.304  1.00  0.00    -0.103 C  
HETATM   39  N   UNL     1      -9.171   6.255  71.794  1.00  0.00    -0.144 NA 
HETATM   40  C   UNL     1     -10.237   6.057  70.781  1.00  0.00    -0.204 C  
HETATM   41  H   UNL     1      -9.376   6.215  72.792  1.00  0.00     0.000 HD 
HETATM   42  C   UNL     1     -10.226   4.775  69.875  1.00  0.00    -0.168 C  
ENDBRANCH  25  26
ENDBRANCH  23  25
ENDBRANCH   1  19
TORSDOF 4
ENDMDL
MODEL      131
REMARK 921   NORMALIZED FREE ENERGY PREDICTED BY IDOCK:   -1.30 KCAL/MOL
REMARK 922        TOTAL FREE ENERGY PREDICTED BY IDOCK:   -3.19 KCAL/MOL
REMARK 923 INTER-LIGAND FREE ENERGY PREDICTED BY IDOCK:   -2.48 KCAL/MOL
REMARK 924 INTRA-LIGAND FREE ENERGY PREDICTED BY IDOCK:   -0.71 KCAL/MOL
REMARK 927      BINDING AFFINITY PREDICTED BY RF-SCORE:    0.00 PKD
ROOT
HETATM    1  C   UNL     1      -7.199   9.186  69.591  1.00  0.00    -0.061 C  
ENDROOT
BRANCH   1   2
HETATM    2  N   UNL     1      -6.301   9.696  70.610  1.00  0.00    -0.087 NA 
HETATM    3  C   UNL     1      -6.955   9.567  71.931  1.00  0.00     0.618 C  
HETATM    4  C   UNL     1      -7.524   8.141  72.257  1.00  0.00    -0.114 C  
HETATM    5  C   UNL     1      -5.700  11.047  70.403  1.00  0.00    -0.130 C  
HETATM    6  C   UNL     1      -5.911  11.941  69.143  1.00  0.00    -0.072 C  
HETATM    7  H   UNL     1      -9.402   7.782  73.332  1.00  0.00     0.000 HD 
HETATM    8  C   UNL     1      -7.300  12.574  69.017  1.00  0.00     0.043 C  
HETATM    9  N   UNL     1      -8.988   7.956  72.415  1.00  0.00    -0.146 NA 
HETATM   10  C   UNL     1      -9.826   8.033  71.203  1.00  0.00    -0.166 C  
HETATM   11  N   UNL     1      -7.835  12.498  67.648  1.00  0.00    -0.149 NA 
HETATM   12  C   UNL     1     -10.386   9.444  70.962  1.00  0.00    -0.382 C  
HETATM   13  H   UNL     1      -7.488  11.674  67.157  1.00  0.00     0.000 HD 
HETATM   14  H   UNL     1     -11.606  11.589  69.107  1.00  0.00     0.000 HD 
HETATM   15  C   UNL     1     -10.971   9.669  69.555  1.00  0.00    -0.208 C  
HETATM   16  C   UNL     1      -9.311  12.550  67.639  1.00  0.00    -0.189 C  
HETATM   17  C   UNL     1      -9.993  11.178  67.886  1.00  0.00    -0.173 C  
HETATM   18  N   UNL     1     -10.731  11.067  69.149  1.00  0.00    -0.225 NA 
ENDBRANCH   1   2
BRANCH   1  19
HETATM   19  C   UNL     1      -6.731   8.048  68.745  1.00  0.00    -0.057 A  
HETATM   20  C   UNL     1      -7.245   7.854  67.475  1.00  0.00    -0.088 A  
HETATM   21  C   UNL     1      -7.300   6.564  67.013  1.00  0.00    -0.079 A  
HETATM   22  C   UNL     1      -5.904   7.116  69.352  1.00  0.00    -0.026 A  
HETATM   23  C   UNL     1      -6.584   5.560  67.661  1.00  0.00    -0.053 A  
HETATM   24  C   UNL     1      -5.891   5.832  68.852  1.00  0.00    -0.016 A  
BRANCH  23  25
HETATM   25  C   UNL     1      -6.520   4.178  67.126  1.00  0.00    -0.042 C  
BRANCH  25  26
HETATM   26  N   UNL     1      -6.553   3.080  68.076  1.00  0.00    -0.036 NA 
HETATM   27  C   UNL     1     -10.841   5.162  66.150  1.00  0.00    -0.097 C  
HETATM   28  H   UNL     1      -9.663   5.976  67.663  1.00  0.00     0.000 HD 
HETATM   29  N   UNL     1     -10.352   5.234  67.542  1.00  0.00    -0.184 NA 
HETATM   30  C   UNL     1      -9.715   5.210  65.084  1.00  0.00     0.182 C  
HETATM   31  C   UNL     1      -9.832   3.928  67.977  1.00  0.00     0.020 C  
HETATM   32  C   UNL     1      -7.665   3.028  69.062  1.00  0.00    -0.047 C  
HETATM   33  N   UNL     1      -9.553   3.961  64.336  1.00  0.00    -0.161 NA 
HETATM   34  H   UNL     1     -10.330   3.823  63.689  1.00  0.00     0.000 HD 
HETATM   35  C   UNL     1      -8.832   4.057  69.125  1.00  0.00    -0.147 C  
HETATM   36  C   UNL     1      -8.263   3.868  63.634  1.00  0.00    -0.090 C  
HETATM   37  C   UNL     1      -7.542   2.580  64.071  1.00  0.00    -0.067 C  
HETATM   38  C   UNL     1      -6.021   2.733  64.209  1.00  0.00    -0.014 C  
HETATM   39  N   UNL     1      -5.407   1.591  64.903  1.00  0.00    -0.005 NA 
HETATM   40  C   UNL     1      -5.159   1.727  66.359  1.00  0.00    -0.005 C  
HETATM   41  H   UNL     1      -5.162   0.737  64.403  1.00  0.00     0.000 HD 
HETATM   42  C   UNL     1      -6.369   1.797  67.356  1.00  0.00    -0.024 C  
ENDBRANCH  25  26
ENDBRANCH  23  25
ENDBRANCH   1  19
TORSDOF 4
ENDMDL
MODEL      132
REMARK 921   NORMALIZED FREE ENERGY PREDICTED BY IDOCK:   -1.20 KCAL/MOL
REMARK 922        TOTAL FREE ENERGY PREDICTED BY IDOCK:   -3.06 KCAL/MOL
REMARK 923 INTER-LIGAND FREE ENERGY PREDICTED BY IDOCK:   -3.30 KCAL/MOL
REMARK 924 INTRA-LIGAND FREE ENERGY PREDICTED BY IDOCK:    0.24 KCAL/MOL
REMARK 927      BINDING AFFINITY PREDICTED BY RF-SCORE:    0.00 PKD
ROOT
HETATM    1  C   UNL     1      -8.897  10.912  67.607  1.00  0.00    -0.133 C  
ENDROOT
BRANCH   1   2
HETATM    2  N   UNL     1     -10.046  11.715  67.235  1.00  0.00    -0.198 NA 
HETATM    3  C   UNL     1     -10.130  11.774  65.758  1.00  0.00    -0.237 C  
HETATM    4  C   UNL     1     -10.077  10.384  65.032  1.00  0.00    -0.309 C  
HETATM    5  C   UNL     1     -10.196  13.059  67.866  1.00  0.00    -0.234 C  
HETATM    6  C   UNL     1      -9.244  13.656  68.948  1.00  0.00     0.164 C  
HETATM    7  H   UNL     1      -9.039  10.026  63.134  1.00  0.00     0.000 HD 
HETATM    8  C   UNL     1      -7.865  14.083  68.439  1.00  0.00    -0.144 C  
HETATM    9  N   UNL     1      -8.929  10.063  64.148  1.00  0.00    -0.216 NA 
HETATM   10  C   UNL     1      -7.624   9.799  64.783  1.00  0.00    -0.129 C  
HETATM   11  N   UNL     1      -6.777  13.676  69.343  1.00  0.00    -0.212 NA 
HETATM   12  C   UNL     1      -6.748  11.058  64.875  1.00  0.00     0.576 C  
HETATM   13  H   UNL     1      -7.009  12.817  69.844  1.00  0.00     0.000 HD 
HETATM   14  H   UNL     1      -4.400  12.634  66.112  1.00  0.00     0.000 HD 
HETATM   15  C   UNL     1      -5.540  10.930  65.822  1.00  0.00    -0.138 C  
HETATM   16  C   UNL     1      -5.493  13.550  68.625  1.00  0.00    -0.083 C  
HETATM   17  C   UNL     1      -5.296  12.184  67.916  1.00  0.00    -0.065 C  
HETATM   18  N   UNL     1      -5.276  12.238  66.450  1.00  0.00    -0.073 NA 
ENDBRANCH   1   2
BRANCH   1  19
HETATM   19  C   UNL     1      -8.953  10.157  68.895  1.00  0.00    -0.155 A  
HETATM   20  C   UNL     1      -8.066  10.443  69.919  1.00  0.00     0.024 A  
HETATM   21  C   UNL     1      -7.722   9.411  70.753  1.00  0.00    -0.144 A  
HETATM   22  C   UNL     1      -9.803   9.064  68.943  1.00  0.00    -0.181 A  
HETATM   23  C   UNL     1      -8.470   8.236  70.755  1.00  0.00    -0.139 A  
HETATM   24  C   UNL     1      -9.512   8.051  69.831  1.00  0.00    -0.160 A  
BRANCH  23  25
HETATM   25  C   UNL     1      -8.205   7.144  71.723  1.00  0.00    -0.105 C  
BRANCH  25  26
HETATM   26  N   UNL     1      -6.867   7.039  72.278  1.00  0.00    -0.061 NA 
HETATM   27  C   UNL     1     -10.556   3.622  73.352  1.00  0.00    -0.193 C  
HETATM   28  H   UNL     1     -10.375   5.523  74.185  1.00  0.00     0.000 HD 
HETATM   29  N   UNL     1      -9.943   4.603  74.271  1.00  0.00    -0.166 NA 
HETATM   30  C   UNL     1     -10.735   4.142  71.903  1.00  0.00     0.266 C  
HETATM   31  C   UNL     1      -8.486   4.662  74.070  1.00  0.00    -0.103 C  
HETATM   32  C   UNL     1      -6.712   6.495  73.655  1.00  0.00    -0.077 C  
HETATM   33  N   UNL     1      -9.890   3.463  70.919  1.00  0.00    -0.118 NA 
HETATM   34  H   UNL     1     -10.221   2.513  70.750  1.00  0.00     0.000 HD 
HETATM   35  C   UNL     1      -7.891   5.988  74.537  1.00  0.00    -0.095 C  
HETATM   36  C   UNL     1      -9.760   4.205  69.654  1.00  0.00    -0.199 C  
HETATM   37  C   UNL     1      -8.267   4.436  69.357  1.00  0.00    -0.068 C  
HETATM   38  C   UNL     1      -7.961   5.802  68.725  1.00  0.00    -0.101 C  
HETATM   39  N   UNL     1      -6.522   6.107  68.728  1.00  0.00    -0.044 NA 
HETATM   40  C   UNL     1      -6.002   6.944  69.837  1.00  0.00    -0.023 C  
HETATM   41  H   UNL     1      -5.905   5.757  67.995  1.00  0.00     0.000 HD 
HETATM   42  C   UNL     1      -5.974   6.374  71.299  1.00  0.00    -0.032 C  
ENDBRANCH  25  26
ENDBRANCH  23  25
ENDBRANCH   1  19
TORSDOF 4
ENDMDL
MODEL      133
REMARK 921   NORMALIZED FREE ENERGY PREDICTED BY IDOCK:   -1.13 KCAL/MOL
REMARK 922        TOTAL FREE ENERGY PREDICTED BY IDOCK:   -2.98 KCAL/MOL
REMARK 923 INTER-LIGAND FREE ENERGY PREDICTED BY IDOCK:   -3.11 KCAL/MOL
REMARK 924 INTRA-LIGAND FREE ENERGY PREDICTED BY IDOCK:    0.13 KCAL/MOL
REMARK 927      BINDING AFFINITY PREDICTED BY RF-SCORE:    0.00 PKD
ROOT
HETATM    1  C   UNL     1      -9.778   9.528  69.275  1.00  0.00    -0.176 C  
ENDROOT
BRANCH   1   2
HETATM    2  N   UNL     1      -9.662  10.962  69.096  1.00  0.00    -0.167 NA 
HETATM    3  C   UNL     1      -8.551  11.461  69.938  1.00  0.00     1.647 C  
HETATM    4  C   UNL     1      -7.191  10.699  69.765  1.00  0.00    -0.131 C  
HETATM    5  C   UNL     1     -10.897  11.789  69.239  1.00  0.00    -0.133 C  
HETATM    6  C   UNL     1     -12.328  11.228  69.508  1.00  0.00    -0.243 C  
HETATM    7  H   UNL     1      -5.813  10.253  71.412  1.00  0.00     0.000 HD 
HETATM    8  C   UNL     1     -12.562  10.689  70.921  1.00  0.00    -0.407 C  
HETATM    9  N   UNL     1      -6.635   9.926  70.904  1.00  0.00    -0.291 NA 
HETATM   10  C   UNL     1      -7.311   8.669  71.278  1.00  0.00    -0.096 C  
HETATM   11  N   UNL     1     -13.300   9.415  70.927  1.00  0.00    -0.575 NA 
HETATM   12  C   UNL     1      -8.360   8.871  72.384  1.00  0.00     0.211 C  
HETATM   13  H   UNL     1     -13.111   8.871  70.085  1.00  0.00     0.000 HD 
HETATM   14  H   UNL     1     -10.862   7.947  73.939  1.00  0.00     0.000 HD 
HETATM   15  C   UNL     1      -9.328   7.687  72.572  1.00  0.00    -0.163 C  
HETATM   16  C   UNL     1     -13.023   8.633  72.149  1.00  0.00    -0.387 C  
HETATM   17  C   UNL     1     -11.728   7.781  72.072  1.00  0.00    -0.304 C  
HETATM   18  N   UNL     1     -10.650   8.202  72.975  1.00  0.00    -0.260 NA 
ENDBRANCH   1   2
BRANCH   1  19
HETATM   19  C   UNL     1      -9.446   8.645  68.116  1.00  0.00    -0.152 A  
HETATM   20  C   UNL     1     -10.358   7.709  67.659  1.00  0.00    -0.303 A  
HETATM   21  C   UNL     1      -9.851   6.570  67.089  1.00  0.00    -0.187 A  
HETATM   22  C   UNL     1      -8.143   8.690  67.648  1.00  0.00    -0.107 A  
HETATM   23  C   UNL     1      -8.511   6.516  66.711  1.00  0.00    -0.113 A  
HETATM   24  C   UNL     1      -7.642   7.579  67.006  1.00  0.00    -0.103 A  
BRANCH  23  25
HETATM   25  C   UNL     1      -7.952   5.348  65.985  1.00  0.00    -0.105 C  
BRANCH  25  26
HETATM   26  N   UNL     1      -6.533   5.074  66.131  1.00  0.00    -0.042 NA 
HETATM   27  C   UNL     1      -9.830   1.572  64.314  1.00  0.00    -0.046 C  
HETATM   28  H   UNL     1      -9.579   2.087  66.316  1.00  0.00     0.000 HD 
HETATM   29  N   UNL     1      -9.103   1.541  65.599  1.00  0.00    -0.107 NA 
HETATM   30  C   UNL     1     -10.287   2.989  63.882  1.00  0.00    -0.174 C  
HETATM   31  C   UNL     1      -7.709   1.977  65.417  1.00  0.00    -0.072 C  
HETATM   32  C   UNL     1      -6.113   3.696  66.503  1.00  0.00    -0.024 C  
HETATM   33  N   UNL     1      -9.605   3.495  62.689  1.00  0.00    -0.099 NA 
HETATM   34  H   UNL     1      -9.922   3.004  61.853  1.00  0.00     0.000 HD 
HETATM   35  C   UNL     1      -7.093   2.504  66.711  1.00  0.00    -0.049 C  
HETATM   36  C   UNL     1      -9.733   4.952  62.521  1.00  0.00     0.203 C  
HETATM   37  C   UNL     1      -8.328   5.573  62.416  1.00  0.00    -0.110 C  
HETATM   38  C   UNL     1      -8.196   6.936  63.110  1.00  0.00     0.066 C  
HETATM   39  N   UNL     1      -6.793   7.357  63.248  1.00  0.00    -0.053 NA 
HETATM   40  C   UNL     1      -6.116   7.075  64.537  1.00  0.00    -0.037 C  
HETATM   41  H   UNL     1      -6.303   7.825  62.485  1.00  0.00     0.000 HD 
HETATM   42  C   UNL     1      -5.804   5.593  64.949  1.00  0.00    -0.021 C  
ENDBRANCH  25  26
ENDBRANCH  23  25
ENDBRANCH   1  19
TORSDOF 4
ENDMDL
MODEL      134
REMARK 921   NORMALIZED FREE ENERGY PREDICTED BY IDOCK:   -1.09 KCAL/MOL
REMARK 922        TOTAL FREE ENERGY PREDICTED BY IDOCK:   -2.92 KCAL/MOL
REMARK 923 INTER-LIGAND FREE ENERGY PREDICTED BY IDOCK:   -3.33 KCAL/MOL
REMARK 924 INTRA-LIGAND FREE ENERGY PREDICTED BY IDOCK:    0.41 KCAL/MOL
REMARK 927      BINDING AFFINITY PREDICTED BY RF-SCORE:    0.00 PKD
ROOT
HETATM    1  C   UNL     1      -9.405  15.930  66.739  1.00  0.00    -0.240 C  
ENDROOT
BRANCH   1   2
HETATM    2  N   UNL     1     -10.797  16.205  67.038  1.00  0.00    -0.252 NA 
HETATM    3  C   UNL     1     -11.007  17.670  67.031  1.00  0.00     0.070 C  
HETATM    4  C   UNL     1     -10.485  18.412  65.752  1.00  0.00    -0.227 C  
HETATM    5  C   UNL     1     -11.400  15.550  68.236  1.00  0.00    -0.357 C  
HETATM    6  C   UNL     1     -10.668  14.538  69.171  1.00  0.00    -0.263 C  
HETATM    7  H   UNL     1      -9.534  20.388  65.778  1.00  0.00     0.000 HD 
HETATM    8  C   UNL     1      -9.598  15.146  70.080  1.00  0.00     0.267 C  
HETATM    9  N   UNL     1      -9.371  19.385  65.874  1.00  0.00    -0.405 NA 
HETATM   10  C   UNL     1      -8.020  18.855  66.139  1.00  0.00    -0.235 C  
HETATM   11  N   UNL     1      -8.372  14.333  70.135  1.00  0.00     0.601 NA 
HETATM   12  C   UNL     1      -7.684  18.818  67.638  1.00  0.00    -0.252 C  
HETATM   13  H   UNL     1      -8.222  13.825  69.263  1.00  0.00     0.000 HD 
HETATM   14  H   UNL     1      -6.028  17.748  70.013  1.00  0.00     0.000 HD 
HETATM   15  C   UNL     1      -6.451  17.968  67.998  1.00  0.00    -0.188 C  
HETATM   16  C   UNL     1      -7.195  15.150  70.494  1.00  0.00     0.580 C  
HETATM   17  C   UNL     1      -6.547  15.886  69.291  1.00  0.00    -0.170 C  
HETATM   18  N   UNL     1      -6.659  17.348  69.320  1.00  0.00    -0.246 NA 
ENDBRANCH   1   2
BRANCH   1  19
HETATM   19  C   UNL     1      -9.001  14.511  66.503  1.00  0.00    -0.211 A  
HETATM   20  C   UNL     1      -9.782  13.676  65.724  1.00  0.00    -0.162 A  
HETATM   21  C   UNL     1      -9.761  12.339  66.027  1.00  0.00    -0.254 A  
HETATM   22  C   UNL     1      -7.921  14.039  67.232  1.00  0.00    -0.157 A  
HETATM   23  C   UNL     1      -8.766  11.828  66.858  1.00  0.00    -0.189 A  
HETATM   24  C   UNL     1      -7.845  12.686  67.482  1.00  0.00    -0.175 A  
BRANCH  23  25
HETATM   25  C   UNL     1      -8.637  10.372  67.116  1.00  0.00    -0.130 C  
BRANCH  25  26
HETATM   26  N   UNL     1      -9.311   9.460  66.210  1.00  0.00    -0.181 NA 
HETATM   27  C   UNL     1      -5.537   7.920  69.344  1.00  0.00    -0.026 C  
HETATM   28  H   UNL     1      -5.290   8.959  67.556  1.00  0.00     0.000 HD 
HETATM   29  N   UNL     1      -5.502   8.012  67.871  1.00  0.00    -0.033 NA 
HETATM   30  C   UNL     1      -6.352   9.050  70.027  1.00  0.00    -0.038 C  
HETATM   31  C   UNL     1      -6.757   7.511  67.289  1.00  0.00    -0.067 C  
HETATM   32  C   UNL     1      -8.522   8.355  65.599  1.00  0.00    -0.164 C  
HETATM   33  N   UNL     1      -7.577   8.586  70.682  1.00  0.00    -0.069 NA 
HETATM   34  H   UNL     1      -7.359   8.062  71.530  1.00  0.00     0.000 HD 
HETATM   35  C   UNL     1      -7.018   8.082  65.896  1.00  0.00    -0.057 C  
HETATM   36  C   UNL     1      -8.529   9.670  70.967  1.00  0.00     0.427 C  
HETATM   37  C   UNL     1      -9.887   9.332  70.323  1.00  0.00    -0.265 C  
HETATM   38  C   UNL     1     -10.620  10.548  69.739  1.00  0.00    -0.227 C  
HETATM   39  N   UNL     1     -11.751  10.157  68.884  1.00  0.00    -0.508 NA 
HETATM   40  C   UNL     1     -11.514  10.092  67.421  1.00  0.00     0.641 C  
HETATM   41  H   UNL     1     -12.665   9.939  69.281  1.00  0.00     0.000 HD 
HETATM   42  C   UNL     1     -10.570   8.985  66.831  1.00  0.00    -0.173 C  
ENDBRANCH  25  26
ENDBRANCH  23  25
ENDBRANCH   1  19
TORSDOF 4
ENDMDL
MODEL      135
REMARK 921   NORMALIZED FREE ENERGY PREDICTED BY IDOCK:   -0.97 KCAL/MOL
REMARK 922        TOTAL FREE ENERGY PREDICTED BY IDOCK:   -2.77 KCAL/MOL
REMARK 923 INTER-LIGAND FREE ENERGY PREDICTED BY IDOCK:   -3.12 KCAL/MOL
REMARK 924 INTRA-LIGAND FREE ENERGY PREDICTED BY IDOCK:    0.34 KCAL/MOL
REMARK 927      BINDING AFFINITY PREDICTED BY RF-SCORE:    0.00 PKD
ROOT
HETATM    1  C   UNL     1      -7.867   7.876  64.500  1.00  0.00    -0.134 C  
ENDROOT
BRANCH   1   2
HETATM    2  N   UNL     1      -6.742   7.866  63.585  1.00  0.00    -0.062 NA 
HETATM    3  C   UNL     1      -6.597   6.505  63.021  1.00  0.00    -0.038 C  
HETATM    4  C   UNL     1      -7.906   5.895  62.408  1.00  0.00    -0.083 C  
HETATM    5  C   UNL     1      -5.443   8.423  64.064  1.00  0.00    -0.060 C  
HETATM    6  C   UNL     1      -5.206   9.076  65.460  1.00  0.00    -0.037 C  
HETATM    7  H   UNL     1      -8.476   3.783  62.577  1.00  0.00     0.000 HD 
HETATM    8  C   UNL     1      -5.189   8.103  66.642  1.00  0.00    -0.028 C  
HETATM    9  N   UNL     1      -8.517   4.695  63.034  1.00  0.00    -0.105 NA 
HETATM   10  C   UNL     1      -9.186   4.864  64.337  1.00  0.00     0.023 C  
HETATM   11  N   UNL     1      -5.941   8.607  67.803  1.00  0.00    -0.046 NA 
HETATM   12  C   UNL     1      -8.251   4.572  65.522  1.00  0.00    -0.110 C  
HETATM   13  H   UNL     1      -6.712   9.211  67.514  1.00  0.00     0.000 HD 
HETATM   14  H   UNL     1      -7.504   4.834  68.505  1.00  0.00     0.000 HD 
HETATM   15  C   UNL     1      -8.776   5.058  66.887  1.00  0.00    -0.107 C  
HETATM   16  C   UNL     1      -6.413   7.504  68.664  1.00  0.00    -0.044 C  
HETATM   17  C   UNL     1      -7.744   6.860  68.192  1.00  0.00    -0.113 C  
HETATM   18  N   UNL     1      -7.634   5.474  67.723  1.00  0.00    -0.087 NA 
ENDBRANCH   1   2
BRANCH   1  19
HETATM   19  C   UNL     1      -8.489   9.191  64.838  1.00  0.00    -0.191 A  
HETATM   20  C   UNL     1      -7.700  10.286  65.145  1.00  0.00    -0.136 A  
HETATM   21  C   UNL     1      -8.223  11.211  66.012  1.00  0.00    -0.094 A  
HETATM   22  C   UNL     1      -9.865   9.210  64.996  1.00  0.00     0.436 A  
HETATM   23  C   UNL     1      -9.586  11.198  66.305  1.00  0.00    -0.234 A  
HETATM   24  C   UNL     1     -10.415  10.180  65.807  1.00  0.00    -0.128 A  
BRANCH  23  25
HETATM   25  C   UNL     1     -10.212  12.250  67.143  1.00  0.00    -0.211 C  
BRANCH  25  26
HETATM   26  N   UNL     1     -10.921  11.833  68.340  1.00  0.00    -0.216 NA 
HETATM   27  C   UNL     1      -5.891  12.894  68.366  1.00  0.00    -0.071 C  
HETATM   28  H   UNL     1      -6.763  11.140  67.659  1.00  0.00     0.000 HD 
HETATM   29  N   UNL     1      -6.533  11.578  68.551  1.00  0.00    -0.052 NA 
HETATM   30  C   UNL     1      -6.610  13.808  67.339  1.00  0.00     0.053 C  
HETATM   31  C   UNL     1      -7.714  11.694  69.423  1.00  0.00     0.290 C  
HETATM   32  C   UNL     1     -10.200  10.993  69.334  1.00  0.00    -0.067 C  
HETATM   33  N   UNL     1      -7.232  14.993  67.932  1.00  0.00    -0.132 NA 
HETATM   34  H   UNL     1      -6.524  15.668  68.222  1.00  0.00     0.000 HD 
HETATM   35  C   UNL     1      -8.711  10.558  69.202  1.00  0.00    -0.155 C  
HETATM   36  C   UNL     1      -8.230  15.626  67.055  1.00  0.00    -0.233 C  
HETATM   37  C   UNL     1      -9.570  15.726  67.805  1.00  0.00    -0.214 C  
HETATM   38  C   UNL     1     -10.800  15.483  66.920  1.00  0.00    -0.301 C  
HETATM   39  N   UNL     1     -12.026  15.293  67.711  1.00  0.00    -0.383 NA 
HETATM   40  C   UNL     1     -12.447  13.900  67.999  1.00  0.00     0.274 C  
HETATM   41  H   UNL     1     -12.568  16.089  68.048  1.00  0.00     0.000 HD 
HETATM   42  C   UNL     1     -11.585  13.005  68.958  1.00  0.00    -0.318 C  
ENDBRANCH  25  26
ENDBRANCH  23  25
ENDBRANCH   1  19
TORSDOF 4
ENDMDL
MODEL      136
REMARK 921   NORMALIZED FREE ENERGY PREDICTED BY IDOCK:   -0.96 KCAL/MOL
REMARK 922        TOTAL FREE ENERGY PREDICTED BY IDOCK:   -2.77 KCAL/MOL
REMARK 923 INTER-LIGAND FREE ENERGY PREDICTED BY IDOCK:   -3.25 KCAL/MOL
REMARK 924 INTRA-LIGAND FREE ENERGY PREDICTED BY IDOCK:    0.48 KCAL/MOL
REMARK 927      BINDING AFFINITY PREDICTED BY RF-SCORE:    0.00 PKD
ROOT
HETATM    1  C   UNL     1      -7.160  17.207  66.887  1.00  0.00    -0.209 C  
ENDROOT
BRANCH   1   2
HETATM    2  N   UNL     1      -6.192  16.873  65.860  1.00  0.00     0.176 NA 
HETATM    3  C   UNL     1      -5.140  16.019  66.455  1.00  0.00     1.138 C  
HETATM    4  C   UNL     1      -5.664  14.772  67.250  1.00  0.00     0.542 C  
HETATM    5  C   UNL     1      -5.625  17.985  65.041  1.00  0.00     0.057 C  
HETATM    6  C   UNL     1      -6.034  19.485  65.158  1.00  0.00    -0.271 C  
HETATM    7  H   UNL     1      -4.758  14.023  69.101  1.00  0.00     0.000 HD 
HETATM    8  C   UNL     1      -5.537  20.201  66.417  1.00  0.00    -0.173 C  
HETATM    9  N   UNL     1      -5.430  14.685  68.713  1.00  0.00    -0.085 NA 
HETATM   10  C   UNL     1      -6.202  15.588  69.588  1.00  0.00    -0.156 C  
HETATM   11  N   UNL     1      -6.570  21.052  67.030  1.00  0.00    -0.319 NA 
HETATM   12  C   UNL     1      -5.449  16.891  69.901  1.00  0.00    -0.201 C  
HETATM   13  H   UNL     1      -7.506  20.683  66.861  1.00  0.00     0.000 HD 
HETATM   14  H   UNL     1      -5.411  19.838  70.818  1.00  0.00     0.000 HD 
HETATM   15  C   UNL     1      -6.323  18.004  70.510  1.00  0.00     0.692 C  
HETATM   16  C   UNL     1      -6.322  21.255  68.471  1.00  0.00     0.225 C  
HETATM   17  C   UNL     1      -6.857  20.109  69.371  1.00  0.00    -0.168 C  
HETATM   18  N   UNL     1      -5.827  19.314  70.049  1.00  0.00    -0.252 NA 
ENDBRANCH   1   2
BRANCH   1  19
HETATM   19  C   UNL     1      -8.291  16.261  67.124  1.00  0.00    -0.219 A  
HETATM   20  C   UNL     1      -8.699  15.959  68.412  1.00  0.00    -0.183 A  
HETATM   21  C   UNL     1      -9.237  14.715  68.621  1.00  0.00    -0.194 A  
HETATM   22  C   UNL     1      -8.782  15.584  66.019  1.00  0.00    -0.032 A  
HETATM   23  C   UNL     1      -9.635  13.936  67.536  1.00  0.00    -0.229 A  
HETATM   24  C   UNL     1      -9.392  14.365  66.220  1.00  0.00    -0.261 A  
BRANCH  23  25
HETATM   25  C   UNL     1     -10.328  12.637  67.721  1.00  0.00    -0.220 C  
BRANCH  25  26
HETATM   26  N   UNL     1     -11.641  12.650  68.340  1.00  0.00    -0.306 NA 
HETATM   27  C   UNL     1     -11.001  11.964  63.285  1.00  0.00    -0.321 C  
HETATM   28  H   UNL     1     -10.894  13.784  64.292  1.00  0.00     0.000 HD 
HETATM   29  N   UNL     1     -11.603  13.128  63.965  1.00  0.00    -0.409 NA 
HETATM   30  C   UNL     1      -9.809  11.333  64.050  1.00  0.00    -0.291 C  
HETATM   31  C   UNL     1     -12.486  12.690  65.059  1.00  0.00    -0.487 C  
HETATM   32  C   UNL     1     -12.781  13.219  67.572  1.00  0.00     1.033 C  
HETATM   33  N   UNL     1     -10.078   9.989  64.565  1.00  0.00    -0.399 NA 
HETATM   34  H   UNL     1     -10.109   9.309  63.806  1.00  0.00     0.000 HD 
HETATM   35  C   UNL     1     -12.674  13.772  66.120  1.00  0.00    -0.335 C  
HETATM   36  C   UNL     1      -9.129   9.566  65.607  1.00  0.00    -0.201 C  
HETATM   37  C   UNL     1      -9.913   9.168  66.871  1.00  0.00    -0.304 C  
HETATM   38  C   UNL     1      -9.225   9.569  68.184  1.00  0.00    -0.129 C  
HETATM   39  N   UNL     1     -10.122   9.444  69.343  1.00  0.00    -0.189 NA 
HETATM   40  C   UNL     1     -10.829  10.666  69.797  1.00  0.00    -0.261 C  
HETATM   41  H   UNL     1     -10.254   8.550  69.817  1.00  0.00     0.000 HD 
HETATM   42  C   UNL     1     -11.941  11.308  68.894  1.00  0.00    -0.310 C  
ENDBRANCH  25  26
ENDBRANCH  23  25
ENDBRANCH   1  19
TORSDOF 4
ENDMDL
MODEL      137
REMARK 921   NORMALIZED FREE ENERGY PREDICTED BY IDOCK:   -0.90 KCAL/MOL
REMARK 922        TOTAL FREE ENERGY PREDICTED BY IDOCK:   -2.69 KCAL/MOL
REMARK 923 INTER-LIGAND FREE ENERGY PREDICTED BY IDOCK:   -1.72 KCAL/MOL
REMARK 924 INTRA-LIGAND FREE ENERGY PREDICTED BY IDOCK:   -0.97 KCAL/MOL
REMARK 927      BINDING AFFINITY PREDICTED BY RF-SCORE:    0.00 PKD
ROOT
HETATM    1  C   UNL     1     -10.228  13.365  67.604  1.00  0.00    -0.228 C  
ENDROOT
BRANCH   1   2
HETATM    2  N   UNL     1     -11.484  13.179  66.903  1.00  0.00    -0.324 NA 
HETATM    3  C   UNL     1     -11.626  14.244  65.886  1.00  0.00    -0.358 C  
HETATM    4  C   UNL     1     -10.396  14.420  64.928  1.00  0.00    -0.389 C  
HETATM    5  C   UNL     1     -12.723  13.002  67.717  1.00  0.00     1.338 C  
HETATM    6  C   UNL     1     -12.774  12.941  69.275  1.00  0.00     0.768 C  
HETATM    7  H   UNL     1      -9.664  16.357  64.207  1.00  0.00     0.000 HD 
HETATM    8  C   UNL     1     -12.532  14.274  69.988  1.00  0.00    -0.300 C  
HETATM    9  N   UNL     1      -9.611  15.679  64.967  1.00  0.00    -0.074 NA 
HETATM   10  C   UNL     1      -8.752  15.918  66.142  1.00  0.00    -0.293 C  
HETATM   11  N   UNL     1     -11.636  14.141  71.149  1.00  0.00    -0.458 NA 
HETATM   12  C   UNL     1      -9.459  16.738  67.233  1.00  0.00    -0.231 C  
HETATM   13  H   UNL     1     -10.966  13.383  71.018  1.00  0.00     0.000 HD 
HETATM   14  H   UNL     1      -9.727  17.684  70.159  1.00  0.00     0.000 HD 
HETATM   15  C   UNL     1      -8.754  16.725  68.603  1.00  0.00    -0.255 C  
HETATM   16  C   UNL     1     -10.957  15.415  71.459  1.00  0.00    -0.091 C  
HETATM   17  C   UNL     1      -9.680  15.671  70.615  1.00  0.00     1.005 C  
HETATM   18  N   UNL     1      -9.770  16.790  69.670  1.00  0.00     0.061 NA 
ENDBRANCH   1   2
BRANCH   1  19
HETATM   19  C   UNL     1      -9.316  12.190  67.739  1.00  0.00    -0.193 A  
HETATM   20  C   UNL     1      -9.489  11.068  66.948  1.00  0.00    -0.197 A  
HETATM   21  C   UNL     1      -9.108   9.863  67.481  1.00  0.00    -0.145 A  
HETATM   22  C   UNL     1      -8.417  12.214  68.794  1.00  0.00     0.093 A  
HETATM   23  C   UNL     1      -8.304   9.827  68.619  1.00  0.00    -0.111 A  
HETATM   24  C   UNL     1      -7.967  11.011  69.294  1.00  0.00    -0.034 A  
BRANCH  23  25
HETATM   25  C   UNL     1      -7.774   8.550  69.158  1.00  0.00    -0.091 C  
BRANCH  25  26
HETATM   26  N   UNL     1      -6.514   8.589  69.879  1.00  0.00    -0.035 NA 
HETATM   27  C   UNL     1      -9.571   4.455  69.924  1.00  0.00    -0.205 C  
HETATM   28  H   UNL     1      -9.857   6.196  71.032  1.00  0.00     0.000 HD 
HETATM   29  N   UNL     1      -9.269   5.363  71.049  1.00  0.00    -0.146 NA 
HETATM   30  C   UNL     1      -9.681   5.168  68.551  1.00  0.00    -0.149 C  
HETATM   31  C   UNL     1      -7.837   5.706  71.069  1.00  0.00    -0.105 C  
HETATM   32  C   UNL     1      -6.415   7.861  71.173  1.00  0.00    -0.037 C  
HETATM   33  N   UNL     1      -8.613   4.817  67.613  1.00  0.00    -0.104 NA 
HETATM   34  H   UNL     1      -8.733   3.865  67.267  1.00  0.00     0.000 HD 
HETATM   35  C   UNL     1      -7.567   7.020  71.798  1.00  0.00    -0.088 C  
HETATM   36  C   UNL     1      -8.485   5.767  66.497  1.00  0.00    -0.116 C  
HETATM   37  C   UNL     1      -7.041   6.300  66.451  1.00  0.00    -0.068 C  
HETATM   38  C   UNL     1      -6.935   7.782  66.067  1.00  0.00    -0.061 C  
HETATM   39  N   UNL     1      -5.592   8.328  66.319  1.00  0.00    -0.035 NA 
HETATM   40  C   UNL     1      -5.373   9.048  67.597  1.00  0.00    -0.034 C  
HETATM   41  H   UNL     1      -4.839   8.215  65.640  1.00  0.00     0.000 HD 
HETATM   42  C   UNL     1      -5.403   8.259  68.953  1.00  0.00    -0.031 C  
ENDBRANCH  25  26
ENDBRANCH  23  25
ENDBRANCH   1  19
TORSDOF 4
ENDMDL
MODEL      138
REMARK 921   NORMALIZED FREE ENERGY PREDICTED BY IDOCK:   -0.90 KCAL/MOL
REMARK 922        TOTAL FREE ENERGY PREDICTED BY IDOCK:   -2.69 KCAL/MOL
REMARK 923 INTER-LIGAND FREE ENERGY PREDICTED BY IDOCK:   -2.75 KCAL/MOL
REMARK 924 INTRA-LIGAND FREE ENERGY PREDICTED BY IDOCK:    0.07 KCAL/MOL
REMARK 927      BINDING AFFINITY PREDICTED BY RF-SCORE:    0.00 PKD
ROOT
HETATM    1  C   UNL     1      -8.565  17.184  68.908  1.00  0.00    -0.190 C  
ENDROOT
BRANCH   1   2
HETATM    2  N   UNL     1      -9.876  17.796  68.804  1.00  0.00    -0.346 NA 
HETATM    3  C   UNL     1     -10.244  17.896  67.373  1.00  0.00    -0.360 C  
HETATM    4  C   UNL     1     -10.109  16.565  66.555  1.00  0.00    -0.299 C  
HETATM    5  C   UNL     1     -10.117  19.070  69.543  1.00  0.00     0.219 C  
HETATM    6  C   UNL     1      -9.085  19.776  70.476  1.00  0.00     1.560 C  
HETATM    7  H   UNL     1      -9.403  16.461  64.481  1.00  0.00     0.000 HD 
HETATM    8  C   UNL     1      -7.911  20.449  69.760  1.00  0.00     1.101 C  
HETATM    9  N   UNL     1      -9.112  16.477  65.460  1.00  0.00    -0.306 NA 
HETATM   10  C   UNL     1      -7.686  16.412  65.831  1.00  0.00     0.637 C  
HETATM   11  N   UNL     1      -6.622  20.197  70.424  1.00  0.00    -0.298 NA 
HETATM   12  C   UNL     1      -7.019  17.797  65.851  1.00  0.00    -0.291 C  
HETATM   13  H   UNL     1      -6.617  19.293  70.897  1.00  0.00     0.000 HD 
HETATM   14  H   UNL     1      -4.761  19.698  66.755  1.00  0.00     0.000 HD 
HETATM   15  C   UNL     1      -5.649  17.838  66.556  1.00  0.00    -0.179 C  
HETATM   16  C   UNL     1      -5.493  20.318  69.480  1.00  0.00    -0.283 C  
HETATM   17  C   UNL     1      -5.219  19.033  68.654  1.00  0.00    -0.192 C  
HETATM   18  N   UNL     1      -5.484  19.147  67.216  1.00  0.00    -0.158 NA 
ENDBRANCH   1   2
BRANCH   1  19
HETATM   19  C   UNL     1      -8.492  15.707  69.120  1.00  0.00    -0.253 A  
HETATM   20  C   UNL     1      -7.312  15.112  69.532  1.00  0.00    -0.210 A  
HETATM   21  C   UNL     1      -7.088  13.822  69.124  1.00  0.00    -0.053 A  
HETATM   22  C   UNL     1      -9.591  14.963  68.721  1.00  0.00    -0.214 A  
HETATM   23  C   UNL     1      -8.133  13.065  68.598  1.00  0.00    -0.011 A  
HETATM   24  C   UNL     1      -9.394  13.643  68.378  1.00  0.00    -0.181 A  
BRANCH  23  25
HETATM   25  C   UNL     1      -7.961  11.632  68.255  1.00  0.00    -0.143 C  
BRANCH  25  26
HETATM   26  N   UNL     1      -6.843  11.266  67.403  1.00  0.00    -0.088 NA 
HETATM   27  C   UNL     1      -7.974   8.681  71.701  1.00  0.00    -0.119 C  
HETATM   28  H   UNL     1      -6.995  10.517  71.604  1.00  0.00     0.000 HD 
HETATM   29  N   UNL     1      -6.793   9.530  71.446  1.00  0.00    -0.321 NA 
HETATM   30  C   UNL     1      -9.280   9.207  71.051  1.00  0.00    -0.252 C  
HETATM   31  C   UNL     1      -6.263   9.291  70.094  1.00  0.00    -0.045 C  
HETATM   32  C   UNL     1      -5.614  10.722  68.042  1.00  0.00    -0.039 C  
HETATM   33  N   UNL     1      -9.792   8.357  69.974  1.00  0.00    -0.180 NA 
HETATM   34  H   UNL     1     -10.181   7.492  70.348  1.00  0.00     0.000 HD 
HETATM   35  C   UNL     1      -5.454  10.476  69.571  1.00  0.00    -0.038 C  
HETATM   36  C   UNL     1     -10.768   9.040  69.110  1.00  0.00    -0.157 C  
HETATM   37  C   UNL     1     -10.291   8.961  67.649  1.00  0.00    -0.313 C  
HETATM   38  C   UNL     1     -10.577  10.228  66.830  1.00  0.00    -0.217 C  
HETATM   39  N   UNL     1      -9.857  10.236  65.547  1.00  0.00    -0.262 NA 
HETATM   40  C   UNL     1      -8.566  10.965  65.491  1.00  0.00    -0.145 C  
HETATM   41  H   UNL     1     -10.230   9.758  64.727  1.00  0.00     0.000 HD 
HETATM   42  C   UNL     1      -7.326  10.422  66.285  1.00  0.00    -0.128 C  
ENDBRANCH  25  26
ENDBRANCH  23  25
ENDBRANCH   1  19
TORSDOF 4
ENDMDL
MODEL      139
REMARK 921   NORMALIZED FREE ENERGY PREDICTED BY IDOCK:   -0.85 KCAL/MOL
REMARK 922        TOTAL FREE ENERGY PREDICTED BY IDOCK:   -2.63 KCAL/MOL
REMARK 923 INTER-LIGAND FREE ENERGY PREDICTED BY IDOCK:   -2.38 KCAL/MOL
REMARK 924 INTRA-LIGAND FREE ENERGY PREDICTED BY IDOCK:   -0.25 KCAL/MOL
REMARK 927      BINDING AFFINITY PREDICTED BY RF-SCORE:    0.00 PKD
ROOT
HETATM    1  C   UNL     1     -11.206  11.649  68.573  1.00  0.00    -0.256 C  
ENDROOT
BRANCH   1   2
HETATM    2  N   UNL     1     -11.734  11.091  69.804  1.00  0.00    -0.303 NA 
HETATM    3  C   UNL     1     -12.223  12.197  70.658  1.00  0.00    -0.300 C  
HETATM    4  C   UNL     1     -13.203  13.200  69.956  1.00  0.00     1.117 C  
HETATM    5  C   UNL     1     -10.883  10.124  70.557  1.00  0.00    -0.273 C  
HETATM    6  C   UNL     1      -9.483   9.611  70.098  1.00  0.00    -0.298 C  
HETATM    7  H   UNL     1     -13.209  15.365  70.306  1.00  0.00     0.000 HD 
HETATM    8  C   UNL     1      -8.350  10.636  70.194  1.00  0.00     0.838 C  
HETATM    9  N   UNL     1     -12.790  14.611  69.759  1.00  0.00    -0.011 NA 
HETATM   10  C   UNL     1     -11.753  14.890  68.747  1.00  0.00    -0.325 C  
HETATM   11  N   UNL     1      -7.476  10.626  69.009  1.00  0.00    -0.106 NA 
HETATM   12  C   UNL     1     -10.339  14.929  69.348  1.00  0.00    -0.217 C  
HETATM   13  H   UNL     1      -7.988  10.352  68.170  1.00  0.00     0.000 HD 
HETATM   14  H   UNL     1      -7.271  14.765  69.053  1.00  0.00     0.000 HD 
HETATM   15  C   UNL     1      -9.201  14.870  68.311  1.00  0.00    -0.187 C  
HETATM   16  C   UNL     1      -6.796  11.924  68.826  1.00  0.00    -0.093 C  
HETATM   17  C   UNL     1      -7.649  12.984  68.080  1.00  0.00    -0.139 C  
HETATM   18  N   UNL     1      -8.058  14.139  68.888  1.00  0.00    -0.087 NA 
ENDBRANCH   1   2
BRANCH   1  19
HETATM   19  C   UNL     1     -10.815  10.706  67.483  1.00  0.00    -0.351 A  
HETATM   20  C   UNL     1     -11.120   9.359  67.573  1.00  0.00     0.080 A  
HETATM   21  C   UNL     1     -10.265   8.483  66.955  1.00  0.00    -0.375 A  
HETATM   22  C   UNL     1      -9.996  11.209  66.485  1.00  0.00    -0.252 A  
HETATM   23  C   UNL     1      -9.334   8.952  66.031  1.00  0.00    -0.306 A  
HETATM   24  C   UNL     1      -9.184  10.329  65.803  1.00  0.00    -0.215 A  
BRANCH  23  25
HETATM   25  C   UNL     1      -8.472   8.026  65.254  1.00  0.00    -0.117 C  
BRANCH  25  26
HETATM   26  N   UNL     1      -7.793   8.552  64.083  1.00  0.00    -0.136 NA 
HETATM   27  C   UNL     1      -5.229   6.780  68.173  1.00  0.00    -0.011 C  
HETATM   28  H   UNL     1      -6.166   8.635  68.030  1.00  0.00     0.000 HD 
HETATM   29  N   UNL     1      -5.316   8.177  67.702  1.00  0.00    -0.033 NA 
HETATM   30  C   UNL     1      -6.539   5.970  67.989  1.00  0.00    -0.055 C  
HETATM   31  C   UNL     1      -5.195   8.239  66.236  1.00  0.00    -0.024 C  
HETATM   32  C   UNL     1      -6.514   9.288  64.276  1.00  0.00    -0.086 C  
HETATM   33  N   UNL     1      -6.437   4.891  67.004  1.00  0.00    -0.044 NA 
HETATM   34  H   UNL     1      -5.868   4.125  67.364  1.00  0.00     0.000 HD 
HETATM   35  C   UNL     1      -5.824   9.504  65.656  1.00  0.00    -0.058 C  
HETATM   36  C   UNL     1      -7.745   4.401  66.543  1.00  0.00    -0.094 C  
HETATM   37  C   UNL     1      -7.809   4.501  65.008  1.00  0.00    -0.090 C  
HETATM   38  C   UNL     1      -9.185   4.909  64.466  1.00  0.00    -0.002 C  
HETATM   39  N   UNL     1      -9.136   5.280  63.043  1.00  0.00    -0.343 NA 
HETATM   40  C   UNL     1      -9.015   6.722  62.714  1.00  0.00     0.896 C  
HETATM   41  H   UNL     1      -9.183   4.573  62.309  1.00  0.00     0.000 HD 
HETATM   42  C   UNL     1      -7.690   7.492  63.052  1.00  0.00    -0.123 C  
ENDBRANCH  25  26
ENDBRANCH  23  25
ENDBRANCH   1  19
TORSDOF 4
ENDMDL
MODEL      140
REMARK 921   NORMALIZED FREE ENERGY PREDICTED BY IDOCK:   -0.83 KCAL/MOL
REMARK 922        TOTAL FREE ENERGY PREDICTED BY IDOCK:   -2.60 KCAL/MOL
REMARK 923 INTER-LIGAND FREE ENERGY PREDICTED BY IDOCK:   -3.35 KCAL/MOL
REMARK 924 INTRA-LIGAND FREE ENERGY PREDICTED BY IDOCK:    0.74 KCAL/MOL
REMARK 927      BINDING AFFINITY PREDICTED BY RF-SCORE:    0.00 PKD
ROOT
HETATM    1  C   UNL     1     -11.272   9.706  71.188  1.00  0.00    -0.384 C  
ENDROOT
BRANCH   1   2
HETATM    2  N   UNL     1     -12.636   9.359  71.538  1.00  0.00    -0.340 NA 
HETATM    3  C   UNL     1     -13.164   8.416  70.527  1.00  0.00     0.946 C  
HETATM    4  C   UNL     1     -12.257   7.168  70.242  1.00  0.00     0.061 C  
HETATM    5  C   UNL     1     -13.589  10.470  71.830  1.00  0.00    -0.116 C  
HETATM    6  C   UNL     1     -13.223  11.987  71.848  1.00  0.00    -0.469 C  
HETATM    7  H   UNL     1     -11.974   6.281  68.256  1.00  0.00     0.000 HD 
HETATM    8  C   UNL     1     -12.963  12.612  70.475  1.00  0.00     0.298 C  
HETATM    9  N   UNL     1     -11.644   7.000  68.900  1.00  0.00     0.260 NA 
HETATM   10  C   UNL     1     -10.542   7.908  68.529  1.00  0.00    -0.106 C  
HETATM   11  N   UNL     1     -11.786  13.496  70.469  1.00  0.00    -0.524 NA 
HETATM   12  C   UNL     1     -11.032   9.147  67.762  1.00  0.00    -0.033 C  
HETATM   13  H   UNL     1     -11.089  13.194  71.149  1.00  0.00     0.000 HD 
HETATM   14  H   UNL     1     -10.636  12.041  66.764  1.00  0.00     0.000 HD 
HETATM   15  C   UNL     1      -9.997  10.282  67.652  1.00  0.00    -0.179 C  
HETATM   16  C   UNL     1     -11.205  13.617  69.117  1.00  0.00    -0.261 C  
HETATM   17  C   UNL     1     -10.233  12.467  68.743  1.00  0.00    -0.087 C  
HETATM   18  N   UNL     1     -10.699  11.580  67.671  1.00  0.00    -0.201 NA 
ENDBRANCH   1   2
BRANCH   1  19
HETATM   19  C   UNL     1     -10.181   8.769  71.593  1.00  0.00    -0.394 A  
HETATM   20  C   UNL     1      -8.907   8.900  71.067  1.00  0.00    -0.285 A  
HETATM   21  C   UNL     1      -8.162   7.756  70.943  1.00  0.00    -0.107 A  
HETATM   22  C   UNL     1     -10.547   7.681  72.369  1.00  0.00    -0.313 A  
HETATM   23  C   UNL     1      -8.553   6.594  71.604  1.00  0.00    -0.123 A  
HETATM   24  C   UNL     1      -9.765   6.548  72.312  1.00  0.00    -0.159 A  
BRANCH  23  25
HETATM   25  C   UNL     1      -7.714   5.370  71.592  1.00  0.00    -0.106 C  
BRANCH  25  26
HETATM   26  N   UNL     1      -6.474   5.389  72.348  1.00  0.00    -0.050 NA 
HETATM   27  C   UNL     1     -10.236   2.029  73.341  1.00  0.00    -0.105 C  
HETATM   28  H   UNL     1     -10.208   4.031  73.913  1.00  0.00     0.000 HD 
HETATM   29  N   UNL     1      -9.782   3.147  74.191  1.00  0.00    -0.097 NA 
HETATM   30  C   UNL     1     -10.203   2.337  71.822  1.00  0.00     0.029 C  
HETATM   31  C   UNL     1      -8.312   3.228  74.201  1.00  0.00    -0.073 C  
HETATM   32  C   UNL     1      -6.521   5.046  73.795  1.00  0.00    -0.063 C  
HETATM   33  N   UNL     1      -9.210   1.558  71.079  1.00  0.00    -0.081 NA 
HETATM   34  H   UNL     1      -9.500   0.583  71.000  1.00  0.00     0.000 HD 
HETATM   35  C   UNL     1      -7.812   4.626  74.557  1.00  0.00    -0.095 C  
HETATM   36  C   UNL     1      -8.901   2.122  69.756  1.00  0.00    -0.076 C  
HETATM   37  C   UNL     1      -7.384   2.361  69.651  1.00  0.00    -0.043 C  
HETATM   38  C   UNL     1      -7.005   3.636  68.884  1.00  0.00    -0.046 C  
HETATM   39  N   UNL     1      -5.587   3.988  69.055  1.00  0.00    -0.016 NA 
HETATM   40  C   UNL     1      -5.251   4.987  70.098  1.00  0.00    -0.004 C  
HETATM   41  H   UNL     1      -4.862   3.562  68.478  1.00  0.00     0.000 HD 
HETATM   42  C   UNL     1      -5.435   4.627  71.615  1.00  0.00    -0.004 C  
ENDBRANCH  25  26
ENDBRANCH  23  25
ENDBRANCH   1  19
TORSDOF 4
ENDMDL
MODEL      141
REMARK 921   NORMALIZED FREE ENERGY PREDICTED BY IDOCK:   -0.74 KCAL/MOL
REMARK 922        TOTAL FREE ENERGY PREDICTED BY IDOCK:   -2.49 KCAL/MOL
REMARK 923 INTER-LIGAND FREE ENERGY PREDICTED BY IDOCK:   -2.61 KCAL/MOL
REMARK 924 INTRA-LIGAND FREE ENERGY PREDICTED BY IDOCK:    0.12 KCAL/MOL
REMARK 927      BINDING AFFINITY PREDICTED BY RF-SCORE:    0.00 PKD
ROOT
HETATM    1  C   UNL     1      -8.331   4.008  66.582  1.00  0.00    -0.104 C  
ENDROOT
BRANCH   1   2
HETATM    2  N   UNL     1      -9.676   3.466  66.563  1.00  0.00    -0.050 NA 
HETATM    3  C   UNL     1      -9.779   2.405  67.590  1.00  0.00     0.273 C  
HETATM    4  C   UNL     1      -9.291   2.815  69.023  1.00  0.00    -0.142 C  
HETATM    5  C   UNL     1     -10.243   3.042  65.249  1.00  0.00     0.554 C  
HETATM    6  C   UNL     1      -9.526   3.188  63.871  1.00  0.00    -0.129 C  
HETATM    7  H   UNL     1      -8.199   1.483  70.379  1.00  0.00     0.000 HD 
HETATM    8  C   UNL     1      -8.354   2.229  63.641  1.00  0.00    -0.081 C  
HETATM    9  N   UNL     1      -8.103   2.147  69.611  1.00  0.00    -0.041 NA 
HETATM   10  C   UNL     1      -6.780   2.476  69.048  1.00  0.00    -0.033 C  
HETATM   11  N   UNL     1      -7.190   2.893  63.031  1.00  0.00    -0.043 NA 
HETATM   12  C   UNL     1      -6.348   1.496  67.947  1.00  0.00    -0.025 C  
HETATM   13  H   UNL     1      -7.137   3.875  63.302  1.00  0.00     0.000 HD 
HETATM   14  H   UNL     1      -4.617   0.775  65.494  1.00  0.00     0.000 HD 
HETATM   15  C   UNL     1      -5.158   1.975  67.093  1.00  0.00    -0.005 C  
HETATM   16  C   UNL     1      -5.935   2.179  63.341  1.00  0.00    -0.009 C  
HETATM   17  C   UNL     1      -5.318   2.553  64.715  1.00  0.00    -0.009 C  
HETATM   18  N   UNL     1      -5.321   1.479  65.714  1.00  0.00    -0.005 NA 
ENDBRANCH   1   2
BRANCH   1  19
HETATM   19  C   UNL     1      -8.149   5.455  66.261  1.00  0.00    -0.105 A  
HETATM   20  C   UNL     1      -7.208   6.214  66.933  1.00  0.00    -0.074 A  
HETATM   21  C   UNL     1      -7.476   7.550  67.088  1.00  0.00    -0.099 A  
HETATM   22  C   UNL     1      -9.072   6.025  65.398  1.00  0.00     0.086 A  
HETATM   23  C   UNL     1      -8.482   8.151  66.333  1.00  0.00    -0.133 A  
HETATM   24  C   UNL     1      -9.300   7.381  65.491  1.00  0.00     0.392 A  
BRANCH  23  25
HETATM   25  C   UNL     1      -8.726   9.614  66.384  1.00  0.00    -0.134 C  
BRANCH  25  26
HETATM   26  N   UNL     1      -8.077  10.375  67.436  1.00  0.00    -0.107 NA 
HETATM   27  C   UNL     1      -6.384  10.416  62.582  1.00  0.00    -0.142 C  
HETATM   28  H   UNL     1      -6.071   8.894  63.970  1.00  0.00     0.000 HD 
HETATM   29  N   UNL     1      -5.718   9.828  63.762  1.00  0.00    -0.098 NA 
HETATM   30  C   UNL     1      -7.928  10.273  62.593  1.00  0.00    -0.151 C  
HETATM   31  C   UNL     1      -5.832  10.726  64.923  1.00  0.00     0.025 C  
HETATM   32  C   UNL     1      -6.599  10.539  67.384  1.00  0.00    -0.067 C  
HETATM   33  N   UNL     1      -8.642  11.543  62.737  1.00  0.00    -0.611 NA 
HETATM   34  H   UNL     1      -8.576  12.095  61.882  1.00  0.00     0.000 HD 
HETATM   35  C   UNL     1      -5.693   9.979  66.248  1.00  0.00    -0.059 C  
HETATM   36  C   UNL     1     -10.045  11.378  63.147  1.00  0.00    -0.352 C  
HETATM   37  C   UNL     1     -10.296  12.192  64.429  1.00  0.00    -0.348 C  
HETATM   38  C   UNL     1     -11.243  11.509  65.426  1.00  0.00    -0.140 C  
HETATM   39  N   UNL     1     -11.227  12.161  66.745  1.00  0.00    -0.303 NA 
HETATM   40  C   UNL     1     -10.346  11.578  67.786  1.00  0.00    -0.182 C  
HETATM   41  H   UNL     1     -11.800  12.983  66.937  1.00  0.00     0.000 HD 
HETATM   42  C   UNL     1      -8.786  11.662  67.627  1.00  0.00    -0.159 C  
ENDBRANCH  25  26
ENDBRANCH  23  25
ENDBRANCH   1  19
TORSDOF 4
ENDMDL
MODEL      142
REMARK 921   NORMALIZED FREE ENERGY PREDICTED BY IDOCK:   -0.74 KCAL/MOL
REMARK 922        TOTAL FREE ENERGY PREDICTED BY IDOCK:   -2.49 KCAL/MOL
REMARK 923 INTER-LIGAND FREE ENERGY PREDICTED BY IDOCK:   -1.17 KCAL/MOL
REMARK 924 INTRA-LIGAND FREE ENERGY PREDICTED BY IDOCK:   -1.32 KCAL/MOL
REMARK 927      BINDING AFFINITY PREDICTED BY RF-SCORE:    0.00 PKD
ROOT
HETATM    1  C   UNL     1      -7.386  17.043  68.248  1.00  0.00    -0.203 C  
ENDROOT
BRANCH   1   2
HETATM    2  N   UNL     1      -7.344  17.431  69.644  1.00  0.00     0.234 NA 
HETATM    3  C   UNL     1      -8.716  17.766  70.088  1.00  0.00     2.621 C  
HETATM    4  C   UNL     1      -9.802  16.679  69.774  1.00  0.00     0.212 C  
HETATM    5  C   UNL     1      -6.346  18.461  70.057  1.00  0.00     0.016 C  
HETATM    6  C   UNL     1      -5.293  19.120  69.114  1.00  0.00    -0.207 C  
HETATM    7  H   UNL     1     -11.856  17.135  69.154  1.00  0.00     0.000 HD 
HETATM    8  C   UNL     1      -5.858  20.118  68.100  1.00  0.00    -0.231 C  
HETATM    9  N   UNL     1     -10.900  16.994  68.826  1.00  0.00    -0.300 NA 
HETATM   10  C   UNL     1     -10.564  17.096  67.393  1.00  0.00    -0.297 C  
HETATM   11  N   UNL     1      -5.275  19.955  66.758  1.00  0.00    -0.160 NA 
HETATM   12  C   UNL     1     -10.253  18.538  66.962  1.00  0.00    -0.410 C  
HETATM   13  H   UNL     1      -5.007  18.986  66.584  1.00  0.00     0.000 HD 
HETATM   14  H   UNL     1      -8.982  20.562  65.008  1.00  0.00     0.000 HD 
HETATM   15  C   UNL     1      -9.568  18.662  65.588  1.00  0.00     0.577 C  
HETATM   16  C   UNL     1      -6.181  20.462  65.708  1.00  0.00    -0.218 C  
HETATM   17  C   UNL     1      -7.266  19.445  65.265  1.00  0.00     0.094 C  
HETATM   18  N   UNL     1      -8.644  19.811  65.609  1.00  0.00    -0.284 NA 
ENDBRANCH   1   2
BRANCH   1  19
HETATM   19  C   UNL     1      -7.059  15.627  67.899  1.00  0.00    -0.153 A  
HETATM   20  C   UNL     1      -7.809  14.941  66.961  1.00  0.00    -0.129 A  
HETATM   21  C   UNL     1      -7.913  13.582  67.116  1.00  0.00    -0.058 A  
HETATM   22  C   UNL     1      -6.099  14.998  68.676  1.00  0.00    -0.087 A  
HETATM   23  C   UNL     1      -7.051  12.912  67.982  1.00  0.00    -0.111 A  
HETATM   24  C   UNL     1      -6.144  13.625  68.783  1.00  0.00    -0.086 A  
BRANCH  23  25
HETATM   25  C   UNL     1      -7.051  11.432  68.090  1.00  0.00    -0.075 C  
BRANCH  25  26
HETATM   26  N   UNL     1      -5.812  10.778  68.473  1.00  0.00    -0.043 NA 
HETATM   27  C   UNL     1     -10.418   8.767  69.556  1.00  0.00    -0.220 C  
HETATM   28  H   UNL     1      -9.500  10.332  70.579  1.00  0.00     0.000 HD 
HETATM   29  N   UNL     1      -9.431   9.317  70.507  1.00  0.00    -0.245 NA 
HETATM   30  C   UNL     1     -10.488   9.529  68.208  1.00  0.00    -0.223 C  
HETATM   31  C   UNL     1      -8.069   8.887  70.148  1.00  0.00    -0.122 C  
HETATM   32  C   UNL     1      -5.778  10.014  69.749  1.00  0.00    -0.042 C  
HETATM   33  N   UNL     1     -10.015   8.751  67.060  1.00  0.00    -0.215 NA 
HETATM   34  H   UNL     1     -10.682   8.017  66.821  1.00  0.00     0.000 HD 
HETATM   35  C   UNL     1      -7.001   9.830  70.696  1.00  0.00    -0.102 C  
HETATM   36  C   UNL     1      -9.705   9.580  65.885  1.00  0.00    -0.282 C  
HETATM   37  C   UNL     1      -8.254   9.311  65.447  1.00  0.00    -0.129 C  
HETATM   38  C   UNL     1      -7.511  10.559  64.948  1.00  0.00     0.006 C  
HETATM   39  N   UNL     1      -6.063  10.331  64.822  1.00  0.00    -0.141 NA 
HETATM   40  C   UNL     1      -5.202  10.752  65.954  1.00  0.00    -0.115 C  
HETATM   41  H   UNL     1      -5.666   9.900  63.987  1.00  0.00     0.000 HD 
HETATM   42  C   UNL     1      -5.290   9.997  67.326  1.00  0.00    -0.041 C  
ENDBRANCH  25  26
ENDBRANCH  23  25
ENDBRANCH   1  19
TORSDOF 4
ENDMDL
MODEL      143
REMARK 921   NORMALIZED FREE ENERGY PREDICTED BY IDOCK:   -0.68 KCAL/MOL
REMARK 922        TOTAL FREE ENERGY PREDICTED BY IDOCK:   -2.42 KCAL/MOL
REMARK 923 INTER-LIGAND FREE ENERGY PREDICTED BY IDOCK:   -1.70 KCAL/MOL
REMARK 924 INTRA-LIGAND FREE ENERGY PREDICTED BY IDOCK:   -0.72 KCAL/MOL
REMARK 927      BINDING AFFINITY PREDICTED BY RF-SCORE:    0.00 PKD
ROOT
HETATM    1  C   UNL     1      -8.564  17.192  68.837  1.00  0.00    -0.190 C  
ENDROOT
BRANCH   1   2
HETATM    2  N   UNL     1      -9.900  17.721  68.646  1.00  0.00    -0.344 NA 
HETATM    3  C   UNL     1     -10.198  17.757  67.196  1.00  0.00    -0.353 C  
HETATM    4  C   UNL     1      -9.943  16.411  66.430  1.00  0.00    -0.303 C  
HETATM    5  C   UNL     1     -10.253  19.000  69.330  1.00  0.00     0.066 C  
HETATM    6  C   UNL     1      -9.315  19.794  70.290  1.00  0.00     1.044 C  
HETATM    7  H   UNL     1      -9.123  16.288  64.400  1.00  0.00     0.000 HD 
HETATM    8  C   UNL     1      -8.146  20.514  69.613  1.00  0.00     1.354 C  
HETATM    9  N   UNL     1      -8.885  16.350  65.391  1.00  0.00     0.102 NA 
HETATM   10  C   UNL     1      -7.479  16.382  65.836  1.00  0.00     0.901 C  
HETATM   11  N   UNL     1      -6.881  20.359  70.350  1.00  0.00    -0.123 NA 
HETATM   12  C   UNL     1      -6.896  17.804  65.845  1.00  0.00    -0.290 C  
HETATM   13  H   UNL     1      -6.849  19.471  70.852  1.00  0.00     0.000 HD 
HETATM   14  H   UNL     1      -4.803  19.862  66.799  1.00  0.00     0.000 HD 
HETATM   15  C   UNL     1      -5.570  17.947  66.617  1.00  0.00    -0.162 C  
HETATM   16  C   UNL     1      -5.712  20.519  69.461  1.00  0.00    -0.360 C  
HETATM   17  C   UNL     1      -5.321  19.228  68.694  1.00  0.00    -0.192 C  
HETATM   18  N   UNL     1      -5.516  19.283  67.241  1.00  0.00    -0.165 NA 
ENDBRANCH   1   2
BRANCH   1  19
HETATM   19  C   UNL     1      -8.416  15.729  69.099  1.00  0.00    -0.251 A  
HETATM   20  C   UNL     1      -7.170  15.127  69.056  1.00  0.00    -0.149 A  
HETATM   21  C   UNL     1      -7.126  13.809  68.678  1.00  0.00    -0.104 A  
HETATM   22  C   UNL     1      -9.584  14.992  69.212  1.00  0.00    -0.181 A  
HETATM   23  C   UNL     1      -8.295  13.051  68.653  1.00  0.00     0.027 A  
HETATM   24  C   UNL     1      -9.540  13.649  68.907  1.00  0.00     0.090 A  
BRANCH  23  25
HETATM   25  C   UNL     1      -8.274  11.596  68.365  1.00  0.00    -0.155 C  
BRANCH  25  26
HETATM   26  N   UNL     1      -8.904  10.704  69.322  1.00  0.00    -0.124 NA 
HETATM   27  C   UNL     1      -9.452  10.101  64.246  1.00  0.00    -0.305 C  
HETATM   28  H   UNL     1     -10.448  11.502  65.422  1.00  0.00     0.000 HD 
HETATM   29  N   UNL     1     -10.486  10.502  65.221  1.00  0.00    -0.224 NA 
HETATM   30  C   UNL     1      -8.042  10.669  64.553  1.00  0.00     0.031 C  
HETATM   31  C   UNL     1     -10.385   9.694  66.447  1.00  0.00    -0.176 C  
HETATM   32  C   UNL     1     -10.238  10.135  68.990  1.00  0.00    -0.206 C  
HETATM   33  N   UNL     1      -7.061   9.650  64.933  1.00  0.00    -0.108 NA 
HETATM   34  H   UNL     1      -6.793   9.085  64.127  1.00  0.00     0.000 HD 
HETATM   35  C   UNL     1     -10.997  10.398  67.656  1.00  0.00    -0.374 C  
HETATM   36  C   UNL     1      -5.874  10.207  65.600  1.00  0.00    -0.079 C  
HETATM   37  C   UNL     1      -5.693   9.520  66.966  1.00  0.00    -0.051 C  
HETATM   38  C   UNL     1      -5.197  10.458  68.075  1.00  0.00    -0.034 C  
HETATM   39  N   UNL     1      -5.318   9.853  69.411  1.00  0.00    -0.035 NA 
HETATM   40  C   UNL     1      -6.523  10.187  70.208  1.00  0.00    -0.128 C  
HETATM   41  H   UNL     1      -4.600   9.227  69.776  1.00  0.00     0.000 HD 
HETATM   42  C   UNL     1      -7.932   9.669  69.749  1.00  0.00    -0.151 C  
ENDBRANCH  25  26
ENDBRANCH  23  25
ENDBRANCH   1  19
TORSDOF 4
ENDMDL
MODEL      144
REMARK 921   NORMALIZED FREE ENERGY PREDICTED BY IDOCK:   -0.34 KCAL/MOL
REMARK 922        TOTAL FREE ENERGY PREDICTED BY IDOCK:   -2.00 KCAL/MOL
REMARK 923 INTER-LIGAND FREE ENERGY PREDICTED BY IDOCK:   -3.21 KCAL/MOL
REMARK 924 INTRA-LIGAND FREE ENERGY PREDICTED BY IDOCK:    1.20 KCAL/MOL
REMARK 927      BINDING AFFINITY PREDICTED BY RF-SCORE:    0.00 PKD
ROOT
HETATM    1  C   UNL     1     -11.269  11.702  68.626  1.00  0.00    -0.250 C  
ENDROOT
BRANCH   1   2
HETATM    2  N   UNL     1     -11.818  11.287  69.903  1.00  0.00    -0.328 NA 
HETATM    3  C   UNL     1     -12.148  12.493  70.695  1.00  0.00    -0.221 C  
HETATM    4  C   UNL     1     -13.028  13.558  69.952  1.00  0.00     0.565 C  
HETATM    5  C   UNL     1     -11.060  10.275  70.697  1.00  0.00    -0.280 C  
HETATM    6  C   UNL     1      -9.745   9.574  70.238  1.00  0.00    -0.314 C  
HETATM    7  H   UNL     1     -12.772  15.727  70.160  1.00  0.00     0.000 HD 
HETATM    8  C   UNL     1      -8.498  10.462  70.239  1.00  0.00     0.674 C  
HETATM    9  N   UNL     1     -12.461  14.897  69.654  1.00  0.00    -0.196 NA 
HETATM   10  C   UNL     1     -11.432  14.989  68.601  1.00  0.00    -0.311 C  
HETATM   11  N   UNL     1      -7.669  10.277  69.036  1.00  0.00    -0.100 NA 
HETATM   12  C   UNL     1     -10.004  14.898  69.163  1.00  0.00    -0.213 C  
HETATM   13  H   UNL     1      -8.236  10.014  68.230  1.00  0.00     0.000 HD 
HETATM   14  H   UNL     1      -6.986  14.358  68.804  1.00  0.00     0.000 HD 
HETATM   15  C   UNL     1      -8.914  14.642  68.104  1.00  0.00    -0.179 C  
HETATM   16  C   UNL     1      -6.850  11.473  68.752  1.00  0.00    -0.084 C  
HETATM   17  C   UNL     1      -7.598  12.577  67.959  1.00  0.00    -0.127 C  
HETATM   18  N   UNL     1      -7.845  13.819  68.700  1.00  0.00    -0.131 NA 
ENDBRANCH   1   2
BRANCH   1  19
HETATM   19  C   UNL     1     -10.833  10.641  67.668  1.00  0.00    -0.346 A  
HETATM   20  C   UNL     1     -11.111   9.308  67.918  1.00  0.00     0.068 A  
HETATM   21  C   UNL     1     -10.224   8.383  67.430  1.00  0.00    -0.328 A  
HETATM   22  C   UNL     1     -10.004  11.037  66.631  1.00  0.00    -0.249 A  
HETATM   23  C   UNL     1      -9.283   8.757  66.472  1.00  0.00    -0.228 A  
HETATM   24  C   UNL     1      -9.159  10.100  66.078  1.00  0.00    -0.185 A  
BRANCH  23  25
HETATM   25  C   UNL     1      -8.385   7.764  65.832  1.00  0.00    -0.134 C  
BRANCH  25  26
HETATM   26  N   UNL     1      -6.972   7.815  66.162  1.00  0.00    -0.061 NA 
HETATM   27  C   UNL     1      -9.992   3.929  67.646  1.00  0.00     0.122 C  
HETATM   28  H   UNL     1      -9.908   5.814  68.529  1.00  0.00     0.000 HD 
HETATM   29  N   UNL     1      -9.360   4.954  68.501  1.00  0.00    -0.124 NA 
HETATM   30  C   UNL     1     -10.469   4.462  66.270  1.00  0.00     0.016 C  
HETATM   31  C   UNL     1      -7.974   5.203  68.073  1.00  0.00    -0.091 C  
HETATM   32  C   UNL     1      -6.528   7.258  67.468  1.00  0.00    -0.055 C  
HETATM   33  N   UNL     1      -9.721   3.923  65.132  1.00  0.00    -0.182 NA 
HETATM   34  H   UNL     1      -9.958   2.944  64.974  1.00  0.00     0.000 HD 
HETATM   35  C   UNL     1      -7.475   6.582  68.502  1.00  0.00    -0.088 C  
HETATM   36  C   UNL     1      -9.891   4.710  63.901  1.00  0.00     0.261 C  
HETATM   37  C   UNL     1      -8.507   5.138  63.380  1.00  0.00    -0.112 C  
HETATM   38  C   UNL     1      -8.477   6.548  62.773  1.00  0.00     0.162 C  
HETATM   39  N   UNL     1      -7.105   7.033  62.561  1.00  0.00    -0.059 NA 
HETATM   40  C   UNL     1      -6.515   7.898  63.612  1.00  0.00    -0.063 C  
HETATM   41  H   UNL     1      -6.579   6.785  61.723  1.00  0.00     0.000 HD 
HETATM   42  C   UNL     1      -6.178   7.297  65.022  1.00  0.00    -0.038 C  
ENDBRANCH  25  26
ENDBRANCH  23  25
ENDBRANCH   1  19
TORSDOF 4
ENDMDL
MODEL      145
REMARK 921   NORMALIZED FREE ENERGY PREDICTED BY IDOCK:   -0.30 KCAL/MOL
REMARK 922        TOTAL FREE ENERGY PREDICTED BY IDOCK:   -1.95 KCAL/MOL
REMARK 923 INTER-LIGAND FREE ENERGY PREDICTED BY IDOCK:   -0.49 KCAL/MOL
REMARK 924 INTRA-LIGAND FREE ENERGY PREDICTED BY IDOCK:   -1.46 KCAL/MOL
REMARK 927      BINDING AFFINITY PREDICTED BY RF-SCORE:    0.00 PKD
ROOT
HETATM    1  C   UNL     1      -8.908  12.828  67.801  1.00  0.00    -0.187 C  
ENDROOT
BRANCH   1   2
HETATM    2  N   UNL     1      -8.742  13.297  66.438  1.00  0.00     0.104 NA 
HETATM    3  C   UNL     1      -7.945  14.544  66.456  1.00  0.00     0.719 C  
HETATM    4  C   UNL     1      -6.599  14.464  67.257  1.00  0.00     0.289 C  
HETATM    5  C   UNL     1      -9.959  13.412  65.582  1.00  0.00    -0.235 C  
HETATM    6  C   UNL     1     -11.403  13.011  66.015  1.00  0.00    -0.343 C  
HETATM    7  H   UNL     1      -5.799  16.097  68.484  1.00  0.00     0.000 HD 
HETATM    8  C   UNL     1     -12.064  13.948  67.029  1.00  0.00    -0.415 C  
HETATM    9  N   UNL     1      -6.424  15.290  68.478  1.00  0.00    -0.089 NA 
HETATM   10  C   UNL     1      -7.184  14.906  69.683  1.00  0.00    -0.166 C  
HETATM   11  N   UNL     1     -12.769  13.221  68.098  1.00  0.00     0.481 NA 
HETATM   12  C   UNL     1      -8.523  15.652  69.797  1.00  0.00     0.066 C  
HETATM   13  H   UNL     1     -12.329  12.321  68.288  1.00  0.00     0.000 HD 
HETATM   14  H   UNL     1     -11.384  15.914  70.927  1.00  0.00     0.000 HD 
HETATM   15  C   UNL     1      -9.503  15.055  70.826  1.00  0.00     1.577 C  
HETATM   16  C   UNL     1     -12.884  14.036  69.324  1.00  0.00     0.763 C  
HETATM   17  C   UNL     1     -11.630  13.985  70.236  1.00  0.00    -0.171 C  
HETATM   18  N   UNL     1     -10.884  15.243  70.344  1.00  0.00    -0.285 NA 
ENDBRANCH   1   2
BRANCH   1  19
HETATM   19  C   UNL     1      -8.481  11.434  68.123  1.00  0.00    -0.152 A  
HETATM   20  C   UNL     1      -8.551  10.435  67.167  1.00  0.00    -0.130 A  
HETATM   21  C   UNL     1      -8.767   9.157  67.613  1.00  0.00    -0.120 A  
HETATM   22  C   UNL     1      -8.185  11.161  69.449  1.00  0.00     0.176 A  
HETATM   23  C   UNL     1      -8.604   8.853  68.963  1.00  0.00    -0.138 A  
HETATM   24  C   UNL     1      -8.326   9.865  69.896  1.00  0.00    -0.200 A  
BRANCH  23  25
HETATM   25  C   UNL     1      -8.714   7.461  69.467  1.00  0.00    -0.137 C  
BRANCH  25  26
HETATM   26  N   UNL     1      -9.976   7.048  70.054  1.00  0.00    -0.181 NA 
HETATM   27  C   UNL     1      -7.744   4.431  66.232  1.00  0.00    -0.094 C  
HETATM   28  H   UNL     1      -8.818   6.205  66.031  1.00  0.00     0.000 HD 
HETATM   29  N   UNL     1      -8.997   5.211  66.177  1.00  0.00    -0.130 NA 
HETATM   30  C   UNL     1      -6.654   5.054  67.142  1.00  0.00    -0.053 C  
HETATM   31  C   UNL     1      -9.810   4.973  67.380  1.00  0.00    -0.176 C  
HETATM   32  C   UNL     1     -10.992   6.412  69.173  1.00  0.00    -0.355 C  
HETATM   33  N   UNL     1      -6.358   4.265  68.340  1.00  0.00    -0.035 NA 
HETATM   34  H   UNL     1      -5.846   3.417  68.098  1.00  0.00     0.000 HD 
HETATM   35  C   UNL     1     -10.782   6.118  67.658  1.00  0.00    -0.388 C  
HETATM   36  C   UNL     1      -5.646   5.029  69.377  1.00  0.00    -0.008 C  
HETATM   37  C   UNL     1      -6.442   4.957  70.693  1.00  0.00    -0.030 C  
HETATM   38  C   UNL     1      -6.423   6.259  71.505  1.00  0.00    -0.050 C  
HETATM   39  N   UNL     1      -7.419   6.255  72.588  1.00  0.00    -0.098 NA 
HETATM   40  C   UNL     1      -8.725   6.903  72.320  1.00  0.00    -0.126 C  
HETATM   41  H   UNL     1      -7.218   5.822  73.490  1.00  0.00     0.000 HD 
HETATM   42  C   UNL     1      -9.717   6.264  71.285  1.00  0.00    -0.174 C  
ENDBRANCH  25  26
ENDBRANCH  23  25
ENDBRANCH   1  19
TORSDOF 4
ENDMDL
MODEL      146
REMARK 921   NORMALIZED FREE ENERGY PREDICTED BY IDOCK:   -0.03 KCAL/MOL
REMARK 922        TOTAL FREE ENERGY PREDICTED BY IDOCK:   -1.62 KCAL/MOL
REMARK 923 INTER-LIGAND FREE ENERGY PREDICTED BY IDOCK:   -0.72 KCAL/MOL
REMARK 924 INTRA-LIGAND FREE ENERGY PREDICTED BY IDOCK:   -0.90 KCAL/MOL
REMARK 927      BINDING AFFINITY PREDICTED BY RF-SCORE:    0.00 PKD
ROOT
HETATM    1  C   UNL     1      -9.757  12.505  66.797  1.00  0.00    -0.234 C  
ENDROOT
BRANCH   1   2
HETATM    2  N   UNL     1     -11.162  12.785  67.018  1.00  0.00    -0.278 NA 
HETATM    3  C   UNL     1     -11.687  11.835  68.025  1.00  0.00    -0.293 C  
HETATM    4  C   UNL     1     -10.852  11.741  69.350  1.00  0.00    -0.064 C  
HETATM    5  C   UNL     1     -12.052  12.897  65.825  1.00  0.00    -0.457 C  
HETATM    6  C   UNL     1     -11.582  12.794  64.341  1.00  0.00    -0.415 C  
HETATM    7  H   UNL     1     -10.500   9.877  70.452  1.00  0.00     0.000 HD 
HETATM    8  C   UNL     1     -11.187  11.390  63.877  1.00  0.00    -0.280 C  
HETATM    9  N   UNL     1     -10.164  10.471  69.692  1.00  0.00    -0.207 NA 
HETATM   10  C   UNL     1      -8.979  10.095  68.899  1.00  0.00    -0.155 C  
HETATM   11  N   UNL     1      -9.953  11.384  63.074  1.00  0.00    -0.565 NA 
HETATM   12  C   UNL     1      -9.327   9.177  67.717  1.00  0.00    -0.152 C  
HETATM   13  H   UNL     1      -9.326  12.140  63.350  1.00  0.00     0.000 HD 
HETATM   14  H   UNL     1      -8.662   7.934  64.971  1.00  0.00     0.000 HD 
HETATM   15  C   UNL     1      -8.209   9.033  66.667  1.00  0.00    -0.118 C  
HETATM   16  C   UNL     1      -9.275  10.073  63.130  1.00  0.00    -0.283 C  
HETATM   17  C   UNL     1      -8.364   9.886  64.372  1.00  0.00    -0.168 C  
HETATM   18  N   UNL     1      -8.817   8.874  65.332  1.00  0.00    -0.193 NA 
ENDBRANCH   1   2
BRANCH   1  19
HETATM   19  C   UNL     1      -8.781  13.623  66.962  1.00  0.00    -0.204 A  
HETATM   20  C   UNL     1      -7.867  13.615  68.002  1.00  0.00    -0.150 A  
HETATM   21  C   UNL     1      -7.465  14.831  68.489  1.00  0.00    -0.117 A  
HETATM   22  C   UNL     1      -8.951  14.728  66.142  1.00  0.00    -0.061 A  
HETATM   23  C   UNL     1      -7.720  15.993  67.763  1.00  0.00    -0.154 A  
HETATM   24  C   UNL     1      -8.484  15.946  66.586  1.00  0.00    -0.322 A  
BRANCH  23  25
HETATM   25  C   UNL     1      -7.200  17.313  68.196  1.00  0.00    -0.196 C  
BRANCH  25  26
HETATM   26  N   UNL     1      -5.914  17.741  67.674  1.00  0.00    -0.146 NA 
HETATM   27  C   UNL     1     -10.315  20.035  66.332  1.00  0.00    -0.455 C  
HETATM   28  H   UNL     1      -9.615  18.215  65.598  1.00  0.00     0.000 HD 
HETATM   29  N   UNL     1      -9.433  19.212  65.480  1.00  0.00    -0.025 NA 
HETATM   30  C   UNL     1     -10.411  19.543  67.800  1.00  0.00    -0.449 C  
HETATM   31  C   UNL     1      -8.020  19.542  65.724  1.00  0.00    -0.097 C  
HETATM   32  C   UNL     1      -5.850  18.252  66.278  1.00  0.00    -0.170 C  
HETATM   33  N   UNL     1      -9.811  20.457  68.773  1.00  0.00     0.017 NA 
HETATM   34  H   UNL     1     -10.383  21.293  68.886  1.00  0.00     0.000 HD 
HETATM   35  C   UNL     1      -7.083  18.399  65.339  1.00  0.00     0.049 C  
HETATM   36  C   UNL     1      -9.543  19.825  70.075  1.00  0.00     0.608 C  
HETATM   37  C   UNL     1      -8.055  20.002  70.426  1.00  0.00     1.283 C  
HETATM   38  C   UNL     1      -7.432  18.789  71.131  1.00  0.00     4.001 C  
HETATM   39  N   UNL     1      -5.964  18.869  71.183  1.00  0.00     0.145 NA 
HETATM   40  C   UNL     1      -5.201  18.154  70.131  1.00  0.00    -0.231 C  
HETATM   41  H   UNL     1      -5.488  19.396  71.916  1.00  0.00     0.000 HD 
HETATM   42  C   UNL     1      -5.263  18.653  68.645  1.00  0.00    -0.185 C  
ENDBRANCH  25  26
ENDBRANCH  23  25
ENDBRANCH   1  19
TORSDOF 4
ENDMDL
MODEL      147
REMARK 921   NORMALIZED FREE ENERGY PREDICTED BY IDOCK:    0.20 KCAL/MOL
REMARK 922        TOTAL FREE ENERGY PREDICTED BY IDOCK:   -1.34 KCAL/MOL
REMARK 923 INTER-LIGAND FREE ENERGY PREDICTED BY IDOCK:   -1.59 KCAL/MOL
REMARK 924 INTRA-LIGAND FREE ENERGY PREDICTED BY IDOCK:    0.25 KCAL/MOL
REMARK 927      BINDING AFFINITY PREDICTED BY RF-SCORE:    0.00 PKD
ROOT
HETATM    1  C   UNL     1      -8.396  17.383  67.875  1.00  0.00    -0.230 C  
ENDROOT
BRANCH   1   2
HETATM    2  N   UNL     1      -8.877  17.738  66.554  1.00  0.00    -0.287 NA 
HETATM    3  C   UNL     1      -7.761  18.326  65.780  1.00  0.00     0.026 C  
HETATM    4  C   UNL     1      -6.444  17.474  65.757  1.00  0.00    -0.020 C  
HETATM    5  C   UNL     1     -10.125  18.551  66.457  1.00  0.00    -0.400 C  
HETATM    6  C   UNL     1     -10.998  19.006  67.668  1.00  0.00    -0.330 C  
HETATM    7  H   UNL     1      -4.425  18.325  65.836  1.00  0.00     0.000 HD 
HETATM    8  C   UNL     1     -10.384  20.107  68.537  1.00  0.00    -0.216 C  
HETATM    9  N   UNL     1      -5.215  18.006  66.396  1.00  0.00    -0.144 NA 
HETATM   10  C   UNL     1      -5.175  18.059  67.870  1.00  0.00    -0.151 C  
HETATM   11  N   UNL     1     -10.550  19.850  69.977  1.00  0.00    -0.161 NA 
HETATM   12  C   UNL     1      -5.628  19.419  68.424  1.00  0.00    -0.216 C  
HETATM   13  H   UNL     1     -10.574  18.850  70.178  1.00  0.00     0.000 HD 
HETATM   14  H   UNL     1      -6.697  21.184  70.720  1.00  0.00     0.000 HD 
HETATM   15  C   UNL     1      -5.936  19.426  69.933  1.00  0.00    -0.267 C  
HETATM   16  C   UNL     1      -9.512  20.536  70.773  1.00  0.00     1.872 C  
HETATM   17  C   UNL     1      -8.176  19.753  70.877  1.00  0.00     2.122 C  
HETATM   18  N   UNL     1      -7.034  20.374  70.199  1.00  0.00    -0.014 NA 
ENDBRANCH   1   2
BRANCH   1  19
HETATM   19  C   UNL     1      -8.522  15.960  68.312  1.00  0.00    -0.170 A  
HETATM   20  C   UNL     1      -7.569  15.388  69.137  1.00  0.00    -0.198 A  
HETATM   21  C   UNL     1      -7.357  14.040  69.006  1.00  0.00    -0.081 A  
HETATM   22  C   UNL     1      -9.525  15.210  67.718  1.00  0.00    -0.194 A  
HETATM   23  C   UNL     1      -8.274  13.254  68.310  1.00  0.00    -0.156 A  
HETATM   24  C   UNL     1      -9.361  13.844  67.645  1.00  0.00    -0.205 A  
BRANCH  23  25
HETATM   25  C   UNL     1      -8.144  11.777  68.245  1.00  0.00    -0.154 C  
BRANCH  25  26
HETATM   26  N   UNL     1      -7.431  11.207  67.116  1.00  0.00    -0.114 NA 
HETATM   27  C   UNL     1      -8.479   8.488  71.353  1.00  0.00    -0.172 C  
HETATM   28  H   UNL     1      -6.958   9.898  71.153  1.00  0.00     0.000 HD 
HETATM   29  N   UNL     1      -7.155   8.936  70.876  1.00  0.00    -0.075 NA 
HETATM   30  C   UNL     1      -9.620   9.505  71.092  1.00  0.00    -0.012 C  
HETATM   31  C   UNL     1      -7.038   8.753  69.420  1.00  0.00    -0.057 C  
HETATM   32  C   UNL     1      -6.370  10.199  67.385  1.00  0.00    -0.066 C  
HETATM   33  N   UNL     1     -10.612   9.049  70.116  1.00  0.00    -0.216 NA 
HETATM   34  H   UNL     1     -11.194   8.309  70.509  1.00  0.00     0.000 HD 
HETATM   35  C   UNL     1      -5.991   9.678  68.802  1.00  0.00    -0.042 C  
HETATM   36  C   UNL     1     -11.442  10.138  69.578  1.00  0.00    -0.168 C  
HETATM   37  C   UNL     1     -11.339  10.139  68.042  1.00  0.00    -0.152 C  
HETATM   38  C   UNL     1     -11.324  11.542  67.418  1.00  0.00    -0.298 C  
HETATM   39  N   UNL     1     -10.931  11.517  66.001  1.00  0.00    -0.284 NA 
HETATM   40  C   UNL     1      -9.509  11.786  65.679  1.00  0.00    -0.192 C  
HETATM   41  H   UNL     1     -11.612  11.322  65.266  1.00  0.00     0.000 HD 
HETATM   42  C   UNL     1      -8.403  10.752  66.094  1.00  0.00    -0.166 C  
ENDBRANCH  25  26
ENDBRANCH  23  25
ENDBRANCH   1  19
TORSDOF 4
ENDMDL
MODEL      148
REMARK 921   NORMALIZED FREE ENERGY PREDICTED BY IDOCK:    0.20 KCAL/MOL
REMARK 922        TOTAL FREE ENERGY PREDICTED BY IDOCK:   -1.34 KCAL/MOL
REMARK 923 INTER-LIGAND FREE ENERGY PREDICTED BY IDOCK:   -0.57 KCAL/MOL
REMARK 924 INTRA-LIGAND FREE ENERGY PREDICTED BY IDOCK:   -0.77 KCAL/MOL
REMARK 927      BINDING AFFINITY PREDICTED BY RF-SCORE:    0.00 PKD
ROOT
HETATM    1  C   UNL     1      -7.495  16.985  68.325  1.00  0.00    -0.207 C  
ENDROOT
BRANCH   1   2
HETATM    2  N   UNL     1      -7.261  17.053  69.755  1.00  0.00     0.264 NA 
HETATM    3  C   UNL     1      -8.557  17.251  70.442  1.00  0.00     3.572 C  
HETATM    4  C   UNL     1      -9.686  16.238  70.041  1.00  0.00     0.435 C  
HETATM    5  C   UNL     1      -6.207  17.987  70.250  1.00  0.00     0.187 C  
HETATM    6  C   UNL     1      -5.285  18.862  69.347  1.00  0.00    -0.195 C  
HETATM    7  H   UNL     1     -11.800  16.776  69.819  1.00  0.00     0.000 HD 
HETATM    8  C   UNL     1      -5.974  20.048  68.667  1.00  0.00    -0.265 C  
HETATM    9  N   UNL     1     -10.899  16.732  69.343  1.00  0.00    -0.300 NA 
HETATM   10  C   UNL     1     -10.758  17.158  67.938  1.00  0.00    -0.355 C  
HETATM   11  N   UNL     1      -5.579  20.201  67.256  1.00  0.00    -0.167 NA 
HETATM   12  C   UNL     1     -10.496  18.667  67.802  1.00  0.00    -0.457 C  
HETATM   13  H   UNL     1      -5.346  19.301  66.835  1.00  0.00     0.000 HD 
HETATM   14  H   UNL     1      -9.483  21.102  66.199  1.00  0.00     0.000 HD 
HETATM   15  C   UNL     1     -10.002  19.109  66.411  1.00  0.00    -0.395 C  
HETATM   16  C   UNL     1      -6.614  20.909  66.477  1.00  0.00    -0.265 C  
HETATM   17  C   UNL     1      -7.758  19.993  65.967  1.00  0.00    -0.300 C  
HETATM   18  N   UNL     1      -9.073  20.244  66.566  1.00  0.00    -0.282 NA 
ENDBRANCH   1   2
BRANCH   1  19
HETATM   19  C   UNL     1      -7.471  15.643  67.670  1.00  0.00    -0.186 A  
HETATM   20  C   UNL     1      -8.194  15.410  66.513  1.00  0.00    -0.101 A  
HETATM   21  C   UNL     1      -8.654  14.134  66.310  1.00  0.00     0.467 A  
HETATM   22  C   UNL     1      -6.844  14.620  68.364  1.00  0.00    -0.102 A  
HETATM   23  C   UNL     1      -8.146  13.081  67.068  1.00  0.00    -0.043 A  
HETATM   24  C   UNL     1      -7.244  13.324  68.116  1.00  0.00    -0.112 A  
BRANCH  23  25
HETATM   25  C   UNL     1      -8.530  11.672  66.800  1.00  0.00    -0.177 C  
BRANCH  25  26
HETATM   26  N   UNL     1      -8.356  11.165  65.451  1.00  0.00     0.010 NA 
HETATM   27  C   UNL     1      -8.337   8.077  69.561  1.00  0.00    -0.127 C  
HETATM   28  H   UNL     1      -6.759   9.285  68.936  1.00  0.00     0.000 HD 
HETATM   29  N   UNL     1      -7.201   8.403  68.676  1.00  0.00    -0.078 NA 
HETATM   30  C   UNL     1      -9.306   9.263  69.806  1.00  0.00    -0.188 C  
HETATM   31  C   UNL     1      -7.624   8.400  67.266  1.00  0.00    -0.097 C  
HETATM   32  C   UNL     1      -7.457   9.999  65.242  1.00  0.00    -0.137 C  
HETATM   33  N   UNL     1     -10.635   9.075  69.220  1.00  0.00    -0.252 NA 
HETATM   34  H   UNL     1     -11.164   8.375  69.739  1.00  0.00     0.000 HD 
HETATM   35  C   UNL     1      -6.710   9.249  66.385  1.00  0.00    -0.071 C  
HETATM   36  C   UNL     1     -11.399  10.327  69.101  1.00  0.00    -0.186 C  
HETATM   37  C   UNL     1     -11.831  10.517  67.636  1.00  0.00     0.745 C  
HETATM   38  C   UNL     1     -11.790  11.975  67.157  1.00  0.00    -0.178 C  
HETATM   39  N   UNL     1     -11.918  12.084  65.695  1.00  0.00    -0.468 NA 
HETATM   40  C   UNL     1     -10.669  12.201  64.905  1.00  0.00    -0.295 C  
HETATM   41  H   UNL     1     -12.832  12.080  65.242  1.00  0.00     0.000 HD 
HETATM   42  C   UNL     1      -9.683  10.983  64.815  1.00  0.00    -0.262 C  
ENDBRANCH  25  26
ENDBRANCH  23  25
ENDBRANCH   1  19
TORSDOF 4
ENDMDL
MODEL      149
REMARK 921   NORMALIZED FREE ENERGY PREDICTED BY IDOCK:    0.74 KCAL/MOL
REMARK 922        TOTAL FREE ENERGY PREDICTED BY IDOCK:   -0.67 KCAL/MOL
REMARK 923 INTER-LIGAND FREE ENERGY PREDICTED BY IDOCK:   -1.53 KCAL/MOL
REMARK 924 INTRA-LIGAND FREE ENERGY PREDICTED BY IDOCK:    0.86 KCAL/MOL
REMARK 927      BINDING AFFINITY PREDICTED BY RF-SCORE:    0.00 PKD
ROOT
HETATM    1  C   UNL     1      -8.805  10.748  67.527  1.00  0.00    -0.128 C  
ENDROOT
BRANCH   1   2
HETATM    2  N   UNL     1      -9.984  11.569  67.321  1.00  0.00    -0.190 NA 
HETATM    3  C   UNL     1     -10.192  11.749  65.867  1.00  0.00    -0.237 C  
HETATM    4  C   UNL     1     -10.198  10.424  65.026  1.00  0.00    -0.264 C  
HETATM    5  C   UNL     1     -10.083  12.855  68.073  1.00  0.00    -0.235 C  
HETATM    6  C   UNL     1      -9.044  13.369  69.116  1.00  0.00     0.586 C  
HETATM    7  H   UNL     1      -9.324  10.234  63.024  1.00  0.00     0.000 HD 
HETATM    8  C   UNL     1      -7.714  13.849  68.531  1.00  0.00    -0.139 C  
HETATM    9  N   UNL     1      -9.129  10.188  64.024  1.00  0.00    -0.232 NA 
HETATM   10  C   UNL     1      -7.774   9.885  64.523  1.00  0.00    -0.142 C  
HETATM   11  N   UNL     1      -6.552  13.379  69.303  1.00  0.00    -0.124 NA 
HETATM   12  C   UNL     1      -6.896  11.141  64.645  1.00  0.00     0.995 C  
HETATM   13  H   UNL     1      -6.739  12.480  69.748  1.00  0.00     0.000 HD 
HETATM   14  H   UNL     1      -4.455  12.632  65.807  1.00  0.00     0.000 HD 
HETATM   15  C   UNL     1      -5.611  10.946  65.473  1.00  0.00    -0.097 C  
HETATM   16  C   UNL     1      -5.333  13.326  68.471  1.00  0.00    -0.075 C  
HETATM   17  C   UNL     1      -5.194  12.025  67.636  1.00  0.00    -0.078 C  
HETATM   18  N   UNL     1      -5.299  12.200  66.184  1.00  0.00     0.208 NA 
ENDBRANCH   1   2
BRANCH   1  19
HETATM   19  C   UNL     1      -8.824   9.756  68.644  1.00  0.00    -0.126 A  
HETATM   20  C   UNL     1      -7.989   9.909  69.737  1.00  0.00    -0.181 A  
HETATM   21  C   UNL     1      -7.575   8.766  70.371  1.00  0.00    -0.082 A  
HETATM   22  C   UNL     1      -9.577   8.609  68.448  1.00  0.00    -0.157 A  
HETATM   23  C   UNL     1      -8.219   7.556  70.118  1.00  0.00    -0.132 A  
HETATM   24  C   UNL     1      -9.219   7.470  69.136  1.00  0.00    -0.144 A  
BRANCH  23  25
HETATM   25  C   UNL     1      -7.880   6.321  70.868  1.00  0.00    -0.107 C  
BRANCH  25  26
HETATM   26  N   UNL     1      -6.760   6.372  71.791  1.00  0.00    -0.062 NA 
HETATM   27  C   UNL     1     -11.492   7.862  73.143  1.00  0.00     0.015 C  
HETATM   28  H   UNL     1     -10.147   8.964  71.996  1.00  0.00     0.000 HD 
HETATM   29  N   UNL     1     -10.295   8.711  72.973  1.00  0.00     0.259 NA 
HETATM   30  C   UNL     1     -11.585   6.693  72.127  1.00  0.00    -0.298 C  
HETATM   31  C   UNL     1      -9.110   8.060  73.554  1.00  0.00    -0.259 C  
HETATM   32  C   UNL     1      -6.712   7.476  72.787  1.00  0.00    -0.065 C  
HETATM   33  N   UNL     1     -11.437   5.368  72.732  1.00  0.00    -0.342 NA 
HETATM   34  H   UNL     1     -12.265   5.123  73.276  1.00  0.00     0.000 HD 
HETATM   35  C   UNL     1      -7.809   8.571  72.939  1.00  0.00    -0.066 C  
HETATM   36  C   UNL     1     -11.125   4.314  71.753  1.00  0.00     0.817 C  
HETATM   37  C   UNL     1      -9.830   3.598  72.178  1.00  0.00    -0.240 C  
HETATM   38  C   UNL     1      -8.923   3.200  71.006  1.00  0.00    -0.097 C  
HETATM   39  N   UNL     1      -7.581   2.794  71.453  1.00  0.00    -0.040 NA 
HETATM   40  C   UNL     1      -6.510   3.819  71.422  1.00  0.00    -0.018 C  
HETATM   41  H   UNL     1      -7.395   1.843  71.772  1.00  0.00     0.000 HD 
HETATM   42  C   UNL     1      -6.565   5.038  72.408  1.00  0.00    -0.048 C  
ENDBRANCH  25  26
ENDBRANCH  23  25
ENDBRANCH   1  19
TORSDOF 4
ENDMDL
MODEL      150
REMARK 921   NORMALIZED FREE ENERGY PREDICTED BY IDOCK:    0.92 KCAL/MOL
REMARK 922        TOTAL FREE ENERGY PREDICTED BY IDOCK:   -0.45 KCAL/MOL
REMARK 923 INTER-LIGAND FREE ENERGY PREDICTED BY IDOCK:   -1.72 KCAL/MOL
REMARK 924 INTRA-LIGAND FREE ENERGY PREDICTED BY IDOCK:    1.27 KCAL/MOL
REMARK 927      BINDING AFFINITY PREDICTED BY RF-SCORE:    0.00 PKD
ROOT
HETATM    1  C   UNL     1      -8.720   7.241  67.244  1.00  0.00    -0.121 C  
ENDROOT
BRANCH   1   2
HETATM    2  N   UNL     1      -8.029   7.050  65.983  1.00  0.00    -0.103 NA 
HETATM    3  C   UNL     1      -7.964   5.601  65.688  1.00  0.00    -0.111 C  
HETATM    4  C   UNL     1      -9.335   4.842  65.769  1.00  0.00    -0.161 C  
HETATM    5  C   UNL     1      -6.712   7.727  65.796  1.00  0.00    -0.046 C  
HETATM    6  C   UNL     1      -6.037   8.680  66.829  1.00  0.00    -0.058 C  
HETATM    7  H   UNL     1      -9.572   2.811  66.561  1.00  0.00     0.000 HD 
HETATM    8  C   UNL     1      -5.472   7.996  68.077  1.00  0.00    -0.033 C  
HETATM    9  N   UNL     1      -9.534   3.800  66.807  1.00  0.00    -0.195 NA 
HETATM   10  C   UNL     1      -9.676   4.242  68.208  1.00  0.00    -0.096 C  
HETATM   11  N   UNL     1      -5.781   8.730  69.315  1.00  0.00    -0.035 NA 
HETATM   12  C   UNL     1      -8.339   4.241  68.965  1.00  0.00    -0.088 C  
HETATM   13  H   UNL     1      -6.662   9.238  69.237  1.00  0.00     0.000 HD 
HETATM   14  H   UNL     1      -6.553   5.177  71.302  1.00  0.00     0.000 HD 
HETATM   15  C   UNL     1      -8.358   5.008  70.300  1.00  0.00    -0.092 C  
HETATM   16  C   UNL     1      -5.773   7.838  70.491  1.00  0.00    -0.026 C  
HETATM   17  C   UNL     1      -7.107   7.077  70.715  1.00  0.00    -0.067 C  
HETATM   18  N   UNL     1      -7.036   5.624  70.524  1.00  0.00    -0.064 NA 
ENDBRANCH   1   2
BRANCH   1  19
HETATM   19  C   UNL     1      -9.523   8.487  67.426  1.00  0.00    -0.188 A  
HETATM   20  C   UNL     1     -10.592   8.765  66.592  1.00  0.00    -0.141 A  
HETATM   21  C   UNL     1     -10.878  10.087  66.362  1.00  0.00     0.043 A  
HETATM   22  C   UNL     1      -9.044   9.412  68.339  1.00  0.00    -0.128 A  
HETATM   23  C   UNL     1     -10.323  11.072  67.176  1.00  0.00    -0.259 A  
HETATM   24  C   UNL     1      -9.384  10.736  68.165  1.00  0.00    -0.155 A  
BRANCH  23  25
HETATM   25  C   UNL     1     -10.697  12.501  67.037  1.00  0.00    -0.242 C  
BRANCH  25  26
HETATM   26  N   UNL     1     -10.940  13.013  65.700  1.00  0.00    -0.272 NA 
HETATM   27  C   UNL     1     -10.733  16.088  69.814  1.00  0.00    -0.331 C  
HETATM   28  H   UNL     1     -12.345  14.888  69.269  1.00  0.00     0.000 HD 
HETATM   29  N   UNL     1     -11.915  15.769  68.989  1.00  0.00    -0.352 NA 
HETATM   30  C   UNL     1      -9.756  14.898  70.005  1.00  0.00     0.283 C  
HETATM   31  C   UNL     1     -11.566  15.775  67.559  1.00  0.00     0.031 C  
HETATM   32  C   UNL     1     -11.845  14.183  65.542  1.00  0.00    -0.364 C  
HETATM   33  N   UNL     1      -8.459  15.083  69.351  1.00  0.00    -0.374 NA 
HETATM   34  H   UNL     1      -7.901  15.780  69.843  1.00  0.00     0.000 HD 
HETATM   35  C   UNL     1     -12.527  14.931  66.725  1.00  0.00     0.473 C  
HETATM   36  C   UNL     1      -7.707  13.829  69.188  1.00  0.00     0.145 C  
HETATM   37  C   UNL     1      -7.353  13.643  67.701  1.00  0.00    -0.185 C  
HETATM   38  C   UNL     1      -7.424  12.186  67.221  1.00  0.00    -0.152 C  
HETATM   39  N   UNL     1      -7.373  12.081  65.754  1.00  0.00     0.612 NA 
HETATM   40  C   UNL     1      -8.663  11.970  65.030  1.00  0.00     0.888 C  
HETATM   41  H   UNL     1      -6.484  12.083  65.254  1.00  0.00     0.000 HD 
HETATM   42  C   UNL     1      -9.647  13.192  64.996  1.00  0.00     0.242 C  
ENDBRANCH  25  26
ENDBRANCH  23  25
ENDBRANCH   1  19
TORSDOF 4
ENDMDL
MODEL      151
REMARK 921   NORMALIZED FREE ENERGY PREDICTED BY IDOCK:    0.94 KCAL/MOL
REMARK 922        TOTAL FREE ENERGY PREDICTED BY IDOCK:   -0.42 KCAL/MOL
REMARK 923 INTER-LIGAND FREE ENERGY PREDICTED BY IDOCK:   -0.28 KCAL/MOL
REMARK 924 INTRA-LIGAND FREE ENERGY PREDICTED BY IDOCK:   -0.13 KCAL/MOL
REMARK 927      BINDING AFFINITY PREDICTED BY RF-SCORE:    0.00 PKD
ROOT
HETATM    1  C   UNL     1      -6.507   5.743  72.378  1.00  0.00    -0.058 C  
ENDROOT
BRANCH   1   2
HETATM    2  N   UNL     1      -5.516   6.114  73.370  1.00  0.00    -0.036 NA 
HETATM    3  C   UNL     1      -5.425   5.037  74.381  1.00  0.00    -0.022 C  
HETATM    4  C   UNL     1      -5.219   3.594  73.802  1.00  0.00     0.000 C  
HETATM    5  C   UNL     1      -5.616   7.468  73.990  1.00  0.00    -0.053 C  
HETATM    6  C   UNL     1      -6.673   8.552  73.615  1.00  0.00    -0.099 C  
HETATM    7  H   UNL     1      -6.152   1.791  74.629  1.00  0.00     0.000 HD 
HETATM    8  C   UNL     1      -8.100   8.264  74.087  1.00  0.00    -0.222 C  
HETATM    9  N   UNL     1      -6.280   2.573  73.986  1.00  0.00    -0.011 NA 
HETATM   10  C   UNL     1      -7.524   2.725  73.209  1.00  0.00    -0.046 C  
HETATM   11  N   UNL     1      -9.110   8.557  73.057  1.00  0.00    -0.299 NA 
HETATM   12  C   UNL     1      -8.613   3.485  73.983  1.00  0.00    -0.088 C  
HETATM   13  H   UNL     1      -8.734   8.421  72.118  1.00  0.00     0.000 HD 
HETATM   14  H   UNL     1     -11.220   5.136  74.064  1.00  0.00     0.000 HD 
HETATM   15  C   UNL     1      -9.791   3.974  73.118  1.00  0.00    -0.129 C  
HETATM   16  C   UNL     1     -10.341   7.769  73.264  1.00  0.00    -0.300 C  
HETATM   17  C   UNL     1     -10.281   6.335  72.672  1.00  0.00    -0.185 C  
HETATM   18  N   UNL     1     -10.292   5.251  73.660  1.00  0.00    -0.209 NA 
ENDBRANCH   1   2
BRANCH   1  19
HETATM   19  C   UNL     1      -6.149   5.890  70.935  1.00  0.00    -0.034 A  
HETATM   20  C   UNL     1      -5.415   6.979  70.498  1.00  0.00    -0.023 A  
HETATM   21  C   UNL     1      -5.638   7.407  69.214  1.00  0.00    -0.015 A  
HETATM   22  C   UNL     1      -6.727   4.991  70.053  1.00  0.00    -0.037 A  
HETATM   23  C   UNL     1      -6.326   6.593  68.317  1.00  0.00    -0.038 A  
HETATM   24  C   UNL     1      -6.891   5.379  68.741  1.00  0.00    -0.055 A  
BRANCH  23  25
HETATM   25  C   UNL     1      -6.486   6.967  66.890  1.00  0.00    -0.046 C  
BRANCH  25  26
HETATM   26  N   UNL     1      -5.457   6.544  65.957  1.00  0.00    -0.014 NA 
HETATM   27  C   UNL     1      -9.921   4.039  66.431  1.00  0.00    -0.091 C  
HETATM   28  H   UNL     1      -8.303   3.905  67.736  1.00  0.00     0.000 HD 
HETATM   29  N   UNL     1      -8.577   3.562  66.815  1.00  0.00    -0.107 NA 
HETATM   30  C   UNL     1     -10.147   5.554  66.675  1.00  0.00    -0.209 C  
HETATM   31  C   UNL     1      -7.588   3.915  65.785  1.00  0.00    -0.085 C  
HETATM   32  C   UNL     1      -5.286   5.088  65.703  1.00  0.00    -0.012 C  
HETATM   33  N   UNL     1     -10.301   6.337  65.447  1.00  0.00     0.872 NA 
HETATM   34  H   UNL     1     -11.202   6.148  65.008  1.00  0.00     0.000 HD 
HETATM   35  C   UNL     1      -6.167   3.975  66.342  1.00  0.00    -0.032 C  
HETATM   36  C   UNL     1     -10.111   7.781  65.652  1.00  0.00     1.358 C  
HETATM   37  C   UNL     1      -9.013   8.286  64.698  1.00  0.00     0.351 C  
HETATM   38  C   UNL     1      -8.102   9.361  65.307  1.00  0.00    -0.124 C  
HETATM   39  N   UNL     1      -6.902   9.602  64.491  1.00  0.00    -0.101 NA 
HETATM   40  C   UNL     1      -5.659   8.890  64.873  1.00  0.00    -0.054 C  
HETATM   41  H   UNL     1      -6.924  10.235  63.691  1.00  0.00     0.000 HD 
HETATM   42  C   UNL     1      -5.567   7.332  64.706  1.00  0.00    -0.033 C  
ENDBRANCH  25  26
ENDBRANCH  23  25
ENDBRANCH   1  19
TORSDOF 4
ENDMDL
MODEL      152
REMARK 921   NORMALIZED FREE ENERGY PREDICTED BY IDOCK:    1.09 KCAL/MOL
REMARK 922        TOTAL FREE ENERGY PREDICTED BY IDOCK:   -0.23 KCAL/MOL
REMARK 923 INTER-LIGAND FREE ENERGY PREDICTED BY IDOCK:    1.15 KCAL/MOL
REMARK 924 INTRA-LIGAND FREE ENERGY PREDICTED BY IDOCK:   -1.39 KCAL/MOL
REMARK 927      BINDING AFFINITY PREDICTED BY RF-SCORE:    0.00 PKD
ROOT
HETATM    1  C   UNL     1      -8.369   7.760  68.301  1.00  0.00    -0.125 C  
ENDROOT
BRANCH   1   2
HETATM    2  N   UNL     1      -9.307   7.427  69.356  1.00  0.00    -0.155 NA 
HETATM    3  C   UNL     1      -8.564   6.811  70.478  1.00  0.00    -0.142 C  
HETATM    4  C   UNL     1      -7.321   7.625  70.981  1.00  0.00    -0.070 C  
HETATM    5  C   UNL     1     -10.528   6.651  68.990  1.00  0.00    -0.214 C  
HETATM    6  C   UNL     1     -10.916   6.215  67.543  1.00  0.00    -0.404 C  
HETATM    7  H   UNL     1      -5.436   6.714  71.634  1.00  0.00     0.000 HD 
HETATM    8  C   UNL     1     -10.062   5.092  66.949  1.00  0.00    -0.228 C  
HETATM    9  N   UNL     1      -5.960   7.053  70.827  1.00  0.00    -0.028 NA 
HETATM   10  C   UNL     1      -5.390   6.990  69.468  1.00  0.00    -0.015 C  
HETATM   11  N   UNL     1      -9.688   5.344  65.548  1.00  0.00    -0.365 NA 
HETATM   12  C   UNL     1      -5.652   5.640  68.780  1.00  0.00    -0.011 C  
HETATM   13  H   UNL     1      -9.608   6.343  65.358  1.00  0.00     0.000 HD 
HETATM   14  H   UNL     1      -5.869   3.894  66.244  1.00  0.00     0.000 HD 
HETATM   15  C   UNL     1      -5.392   5.634  67.262  1.00  0.00    -0.005 C  
HETATM   16  C   UNL     1      -8.453   4.624  65.179  1.00  0.00    -0.130 C  
HETATM   17  C   UNL     1      -7.148   5.367  65.569  1.00  0.00    -0.067 C  
HETATM   18  N   UNL     1      -6.347   4.716  66.612  1.00  0.00    -0.036 NA 
ENDBRANCH   1   2
BRANCH   1  19
HETATM   19  C   UNL     1      -8.291   9.183  67.851  1.00  0.00    -0.117 A  
HETATM   20  C   UNL     1      -7.179   9.954  68.140  1.00  0.00    -0.078 A  
HETATM   21  C   UNL     1      -7.376  11.302  68.292  1.00  0.00    -0.095 A  
HETATM   22  C   UNL     1      -9.438   9.727  67.296  1.00  0.00    -0.183 A  
HETATM   23  C   UNL     1      -8.566  11.886  67.863  1.00  0.00    -0.162 A  
HETATM   24  C   UNL     1      -9.616  11.091  67.374  1.00  0.00    -0.180 A  
BRANCH  23  25
HETATM   25  C   UNL     1      -8.772  13.355  67.900  1.00  0.00    -0.187 C  
BRANCH  25  26
HETATM   26  N   UNL     1      -7.935  14.180  67.047  1.00  0.00    -0.064 NA 
HETATM   27  C   UNL     1     -13.028  13.873  66.416  1.00  0.00     0.370 C  
HETATM   28  H   UNL     1     -11.636  12.447  65.810  1.00  0.00     0.000 HD 
HETATM   29  N   UNL     1     -11.978  13.361  65.514  1.00  0.00    -0.374 NA 
HETATM   30  C   UNL     1     -12.682  13.745  67.923  1.00  0.00     0.963 C  
HETATM   31  C   UNL     1     -10.884  14.337  65.385  1.00  0.00    -0.342 C  
HETATM   32  C   UNL     1      -8.309  14.326  65.614  1.00  0.00     2.698 C  
HETATM   33  N   UNL     1     -12.479  15.029  68.597  1.00  0.00    -0.476 NA 
HETATM   34  H   UNL     1     -13.365  15.521  68.715  1.00  0.00     0.000 HD 
HETATM   35  C   UNL     1      -9.569  13.682  64.965  1.00  0.00     0.273 C  
HETATM   36  C   UNL     1     -11.773  14.905  69.881  1.00  0.00    -0.305 C  
HETATM   37  C   UNL     1     -10.525  15.807  69.860  1.00  0.00    -0.324 C  
HETATM   38  C   UNL     1      -9.307  15.204  70.572  1.00  0.00     1.084 C  
HETATM   39  N   UNL     1      -8.069  15.944  70.282  1.00  0.00     0.958 NA 
HETATM   40  C   UNL     1      -7.199  15.426  69.198  1.00  0.00    -0.171 C  
HETATM   41  H   UNL     1      -7.818  16.782  70.806  1.00  0.00     0.000 HD 
HETATM   42  C   UNL     1      -7.688  15.484  67.708  1.00  0.00    -0.140 C  
ENDBRANCH  25  26
ENDBRANCH  23  25
ENDBRANCH   1  19
TORSDOF 4
ENDMDL
MODEL      153
REMARK 921   NORMALIZED FREE ENERGY PREDICTED BY IDOCK:    1.40 KCAL/MOL
REMARK 922        TOTAL FREE ENERGY PREDICTED BY IDOCK:    0.15 KCAL/MOL
REMARK 923 INTER-LIGAND FREE ENERGY PREDICTED BY IDOCK:   -2.66 KCAL/MOL
REMARK 924 INTRA-LIGAND FREE ENERGY PREDICTED BY IDOCK:    2.81 KCAL/MOL
REMARK 927      BINDING AFFINITY PREDICTED BY RF-SCORE:    0.00 PKD
ROOT
HETATM    1  C   UNL     1      -9.865  10.663  68.320  1.00  0.00    -0.163 C  
ENDROOT
BRANCH   1   2
HETATM    2  N   UNL     1      -9.791  10.075  66.997  1.00  0.00    -0.181 NA 
HETATM    3  C   UNL     1      -8.428  10.279  66.459  1.00  0.00    -0.125 C  
HETATM    4  C   UNL     1      -7.262   9.830  67.408  1.00  0.00    -0.086 C  
HETATM    5  C   UNL     1     -10.851  10.434  66.009  1.00  0.00     0.117 C  
HETATM    6  C   UNL     1     -12.078  11.352  66.301  1.00  0.00     1.197 C  
HETATM    7  H   UNL     1      -5.364  10.907  67.620  1.00  0.00     0.000 HD 
HETATM    8  C   UNL     1     -11.757  12.842  66.452  1.00  0.00    -0.403 C  
HETATM    9  N   UNL     1      -6.327  10.847  67.951  1.00  0.00    -0.057 NA 
HETATM   10  C   UNL     1      -6.837  11.768  68.985  1.00  0.00    -0.106 C  
HETATM   11  N   UNL     1     -12.468  13.462  67.583  1.00  0.00    -0.112 NA 
HETATM   12  C   UNL     1      -7.366  13.083  68.392  1.00  0.00    -0.116 C  
HETATM   13  H   UNL     1     -12.636  12.791  68.332  1.00  0.00     0.000 HD 
HETATM   14  H   UNL     1      -9.088  15.638  68.590  1.00  0.00     0.000 HD 
HETATM   15  C   UNL     1      -8.215  13.927  69.363  1.00  0.00     0.555 C  
HETATM   16  C   UNL     1     -11.757  14.658  68.079  1.00  0.00    -0.342 C  
HETATM   17  C   UNL     1     -10.616  14.342  69.083  1.00  0.00    -0.218 C  
HETATM   18  N   UNL     1      -9.262  14.634  68.602  1.00  0.00    -0.193 NA 
ENDBRANCH   1   2
BRANCH   1  19
HETATM   19  C   UNL     1      -9.564   9.793  69.496  1.00  0.00    -0.225 A  
HETATM   20  C   UNL     1      -8.265   9.400  69.768  1.00  0.00    -0.146 A  
HETATM   21  C   UNL     1      -8.095   8.189  70.388  1.00  0.00    -0.108 A  
HETATM   22  C   UNL     1     -10.648   9.268  70.180  1.00  0.00    -0.266 A  
HETATM   23  C   UNL     1      -9.181   7.554  70.987  1.00  0.00    -0.153 A  
HETATM   24  C   UNL     1     -10.474   8.088  70.870  1.00  0.00    -0.223 A  
BRANCH  23  25
HETATM   25  C   UNL     1      -9.018   6.303  71.769  1.00  0.00    -0.140 C  
BRANCH  25  26
HETATM   26  N   UNL     1     -10.026   5.269  71.613  1.00  0.00    -0.173 NA 
HETATM   27  C   UNL     1      -6.168   5.857  68.267  1.00  0.00    -0.029 C  
HETATM   28  H   UNL     1      -7.887   7.030  68.365  1.00  0.00     0.000 HD 
HETATM   29  N   UNL     1      -7.605   6.107  68.036  1.00  0.00    -0.099 NA 
HETATM   30  C   UNL     1      -5.684   6.235  69.690  1.00  0.00    -0.014 C  
HETATM   31  C   UNL     1      -8.421   5.040  68.639  1.00  0.00    -0.087 C  
HETATM   32  C   UNL     1     -10.446   4.889  70.237  1.00  0.00    -0.088 C  
HETATM   33  N   UNL     1      -5.282   5.087  70.506  1.00  0.00    -0.004 NA 
HETATM   34  H   UNL     1      -4.399   4.698  70.175  1.00  0.00     0.000 HD 
HETATM   35  C   UNL     1      -9.846   5.499  68.936  1.00  0.00    -0.213 C  
HETATM   36  C   UNL     1      -5.214   5.392  71.944  1.00  0.00    -0.009 C  
HETATM   37  C   UNL     1      -6.113   4.405  72.711  1.00  0.00    -0.017 C  
HETATM   38  C   UNL     1      -6.854   5.032  73.901  1.00  0.00    -0.079 C  
HETATM   39  N   UNL     1      -7.914   4.155  74.422  1.00  0.00    -0.090 NA 
HETATM   40  C   UNL     1      -9.297   4.392  73.941  1.00  0.00    -0.112 C  
HETATM   41  H   UNL     1      -7.706   3.412  75.089  1.00  0.00     0.000 HD 
HETATM   42  C   UNL     1      -9.665   4.096  72.444  1.00  0.00    -0.153 C  
ENDBRANCH  25  26
ENDBRANCH  23  25
ENDBRANCH   1  19
TORSDOF 4
ENDMDL
MODEL      154
REMARK 921   NORMALIZED FREE ENERGY PREDICTED BY IDOCK:    1.59 KCAL/MOL
REMARK 922        TOTAL FREE ENERGY PREDICTED BY IDOCK:    0.39 KCAL/MOL
REMARK 923 INTER-LIGAND FREE ENERGY PREDICTED BY IDOCK:    1.07 KCAL/MOL
REMARK 924 INTRA-LIGAND FREE ENERGY PREDICTED BY IDOCK:   -0.68 KCAL/MOL
REMARK 927      BINDING AFFINITY PREDICTED BY RF-SCORE:    0.00 PKD
ROOT
HETATM    1  C   UNL     1      -9.004  12.798  67.446  1.00  0.00    -0.195 C  
ENDROOT
BRANCH   1   2
HETATM    2  N   UNL     1      -8.446  13.327  66.216  1.00  0.00     0.475 NA 
HETATM    3  C   UNL     1      -7.332  14.242  66.552  1.00  0.00     1.841 C  
HETATM    4  C   UNL     1      -6.253  13.650  67.525  1.00  0.00    -0.036 C  
HETATM    5  C   UNL     1      -9.384  13.916  65.216  1.00  0.00     0.626 C  
HETATM    6  C   UNL     1     -10.937  13.960  65.357  1.00  0.00    -0.316 C  
HETATM    7  H   UNL     1      -5.254  14.801  69.102  1.00  0.00     0.000 HD 
HETATM    8  C   UNL     1     -11.471  14.950  66.396  1.00  0.00    -0.280 C  
HETATM    9  N   UNL     1      -6.078  14.244  68.873  1.00  0.00    -0.085 NA 
HETATM   10  C   UNL     1      -7.136  14.003  69.873  1.00  0.00     0.234 C  
HETATM   11  N   UNL     1     -12.553  14.382  67.216  1.00  0.00    -0.416 NA 
HETATM   12  C   UNL     1      -8.187  15.125  69.901  1.00  0.00     0.160 C  
HETATM   13  H   UNL     1     -12.448  13.373  67.326  1.00  0.00     0.000 HD 
HETATM   14  H   UNL     1     -11.000  16.177  70.614  1.00  0.00     0.000 HD 
HETATM   15  C   UNL     1      -9.479  14.772  70.662  1.00  0.00     1.658 C  
HETATM   16  C   UNL     1     -12.653  15.059  68.525  1.00  0.00     0.546 C  
HETATM   17  C   UNL     1     -11.673  14.512  69.596  1.00  0.00    -0.307 C  
HETATM   18  N   UNL     1     -10.621  15.445  70.014  1.00  0.00    -0.300 NA 
ENDBRANCH   1   2
BRANCH   1  19
HETATM   19  C   UNL     1      -8.516  11.472  67.930  1.00  0.00    -0.142 A  
HETATM   20  C   UNL     1      -8.236  10.454  67.034  1.00  0.00    -0.123 A  
HETATM   21  C   UNL     1      -8.410   9.168  67.476  1.00  0.00    -0.116 A  
HETATM   22  C   UNL     1      -8.525  11.264  69.299  1.00  0.00     0.197 A  
HETATM   23  C   UNL     1      -8.550   8.912  68.839  1.00  0.00    -0.135 A  
HETATM   24  C   UNL     1      -8.625   9.969  69.761  1.00  0.00    -0.192 A  
BRANCH  23  25
HETATM   25  C   UNL     1      -8.622   7.528  69.368  1.00  0.00    -0.133 C  
BRANCH  25  26
HETATM   26  N   UNL     1      -8.816   6.446  68.419  1.00  0.00    -0.120 NA 
HETATM   27  C   UNL     1      -5.522   6.082  72.349  1.00  0.00    -0.031 C  
HETATM   28  H   UNL     1      -5.190   7.115  70.572  1.00  0.00     0.000 HD 
HETATM   29  N   UNL     1      -5.200   6.153  70.910  1.00  0.00    -0.013 NA 
HETATM   30  C   UNL     1      -6.737   6.951  72.768  1.00  0.00    -0.066 C  
HETATM   31  C   UNL     1      -6.121   5.310  70.130  1.00  0.00    -0.018 C  
HETATM   32  C   UNL     1      -7.648   5.596  68.064  1.00  0.00    -0.085 C  
HETATM   33  N   UNL     1      -7.901   6.175  73.200  1.00  0.00    -0.104 NA 
HETATM   34  H   UNL     1      -7.735   5.749  74.112  1.00  0.00     0.000 HD 
HETATM   35  C   UNL     1      -6.225   5.760  68.674  1.00  0.00    -0.029 C  
HETATM   36  C   UNL     1      -9.149   6.955  73.206  1.00  0.00    -0.135 C  
HETATM   37  C   UNL     1     -10.196   6.239  72.334  1.00  0.00    -0.208 C  
HETATM   38  C   UNL     1     -11.089   7.189  71.524  1.00  0.00    -0.239 C  
HETATM   39  N   UNL     1     -11.864   6.482  70.493  1.00  0.00    -0.384 NA 
HETATM   40  C   UNL     1     -11.313   6.459  69.116  1.00  0.00    -0.296 C  
HETATM   41  H   UNL     1     -12.748   6.024  70.716  1.00  0.00     0.000 HD 
HETATM   42  C   UNL     1     -10.003   5.649  68.812  1.00  0.00    -0.167 C  
ENDBRANCH  25  26
ENDBRANCH  23  25
ENDBRANCH   1  19
TORSDOF 4
ENDMDL
MODEL      155
REMARK 921   NORMALIZED FREE ENERGY PREDICTED BY IDOCK:    2.64 KCAL/MOL
REMARK 922        TOTAL FREE ENERGY PREDICTED BY IDOCK:    1.68 KCAL/MOL
REMARK 923 INTER-LIGAND FREE ENERGY PREDICTED BY IDOCK:   -0.23 KCAL/MOL
REMARK 924 INTRA-LIGAND FREE ENERGY PREDICTED BY IDOCK:    1.91 KCAL/MOL
REMARK 927      BINDING AFFINITY PREDICTED BY RF-SCORE:    0.00 PKD
ROOT
HETATM    1  C   UNL     1     -10.020   5.296  71.747  1.00  0.00    -0.190 C  
ENDROOT
BRANCH   1   2
HETATM    2  N   UNL     1      -9.411   4.980  73.025  1.00  0.00    -0.129 NA 
HETATM    3  C   UNL     1     -10.480   4.804  74.033  1.00  0.00    -0.276 C  
HETATM    4  C   UNL     1     -11.625   3.812  73.625  1.00  0.00     0.044 C  
HETATM    5  C   UNL     1      -8.309   5.860  73.513  1.00  0.00    -0.113 C  
HETATM    6  C   UNL     1      -7.710   7.069  72.730  1.00  0.00    -0.092 C  
HETATM    7  H   UNL     1     -13.743   4.115  74.104  1.00  0.00     0.000 HD 
HETATM    8  C   UNL     1      -8.613   8.302  72.642  1.00  0.00    -0.198 C  
HETATM    9  N   UNL     1     -13.004   4.326  73.433  1.00  0.00     0.830 NA 
HETATM   10  C   UNL     1     -13.271   5.152  72.240  1.00  0.00     2.028 C  
HETATM   11  N   UNL     1      -8.624   8.902  71.298  1.00  0.00    -0.215 NA 
HETATM   12  C   UNL     1     -13.128   6.656  72.521  1.00  0.00     0.461 C  
HETATM   13  H   UNL     1      -8.471   8.199  70.574  1.00  0.00     0.000 HD 
HETATM   14  H   UNL     1     -12.707   9.559  71.558  1.00  0.00     0.000 HD 
HETATM   15  C   UNL     1     -13.052   7.539  71.260  1.00  0.00    -0.266 C  
HETATM   16  C   UNL     1      -9.865   9.665  71.055  1.00  0.00    -0.035 C  
HETATM   17  C   UNL     1     -11.058   8.794  70.579  1.00  0.00    -0.246 C  
HETATM   18  N   UNL     1     -12.172   8.691  71.529  1.00  0.00    -0.306 NA 
ENDBRANCH   1   2
BRANCH   1  19
HETATM   19  C   UNL     1      -9.209   5.091  70.509  1.00  0.00    -0.195 A  
HETATM   20  C   UNL     1      -7.837   5.271  70.527  1.00  0.00    -0.084 A  
HETATM   21  C   UNL     1      -7.246   5.689  69.362  1.00  0.00    -0.066 A  
HETATM   22  C   UNL     1      -9.908   4.886  69.330  1.00  0.00    -0.281 A  
HETATM   23  C   UNL     1      -7.950   5.622  68.161  1.00  0.00    -0.097 A  
HETATM   24  C   UNL     1      -9.299   5.232  68.144  1.00  0.00    -0.139 A  
BRANCH  23  25
HETATM   25  C   UNL     1      -7.310   5.952  66.864  1.00  0.00    -0.079 C  
BRANCH  25  26
HETATM   26  N   UNL     1      -5.859   5.943  66.800  1.00  0.00    -0.017 NA 
HETATM   27  C   UNL     1      -8.631   1.613  66.745  1.00  0.00    -0.106 C  
HETATM   28  H   UNL     1      -8.201   2.765  68.426  1.00  0.00     0.000 HD 
HETATM   29  N   UNL     1      -7.735   2.094  67.815  1.00  0.00    -0.059 NA 
HETATM   30  C   UNL     1      -9.414   2.741  66.024  1.00  0.00     0.075 C  
HETATM   31  C   UNL     1      -6.494   2.645  67.246  1.00  0.00    -0.036 C  
HETATM   32  C   UNL     1      -5.127   4.828  67.460  1.00  0.00    -0.007 C  
HETATM   33  N   UNL     1      -9.023   2.937  64.626  1.00  0.00    -0.116 NA 
HETATM   34  H   UNL     1      -9.355   2.167  64.046  1.00  0.00     0.000 HD 
HETATM   35  C   UNL     1      -5.815   3.636  68.189  1.00  0.00    -0.026 C  
HETATM   36  C   UNL     1      -9.457   4.232  64.078  1.00  0.00    -0.127 C  
HETATM   37  C   UNL     1      -8.231   4.982  63.526  1.00  0.00    -0.117 C  
HETATM   38  C   UNL     1      -8.270   6.499  63.761  1.00  0.00     0.065 C  
HETATM   39  N   UNL     1      -6.972   7.137  63.494  1.00  0.00    -0.058 NA 
HETATM   40  C   UNL     1      -6.076   7.377  64.651  1.00  0.00    -0.038 C  
HETATM   41  H   UNL     1      -6.698   7.405  62.549  1.00  0.00     0.000 HD 
HETATM   42  C   UNL     1      -5.423   6.161  65.400  1.00  0.00    -0.017 C  
ENDBRANCH  25  26
ENDBRANCH  23  25
ENDBRANCH   1  19
TORSDOF 4
ENDMDL
MODEL      156
REMARK 921   NORMALIZED FREE ENERGY PREDICTED BY IDOCK:    3.24 KCAL/MOL
REMARK 922        TOTAL FREE ENERGY PREDICTED BY IDOCK:    2.42 KCAL/MOL
REMARK 923 INTER-LIGAND FREE ENERGY PREDICTED BY IDOCK:    2.03 KCAL/MOL
REMARK 924 INTRA-LIGAND FREE ENERGY PREDICTED BY IDOCK:    0.39 KCAL/MOL
REMARK 927      BINDING AFFINITY PREDICTED BY RF-SCORE:    0.00 PKD
ROOT
HETATM    1  C   UNL     1      -9.333  13.049  67.207  1.00  0.00    -0.220 C  
ENDROOT
BRANCH   1   2
HETATM    2  N   UNL     1      -8.154  12.249  67.479  1.00  0.00    -0.159 NA 
HETATM    3  C   UNL     1      -8.582  10.905  67.927  1.00  0.00    -0.130 C  
HETATM    4  C   UNL     1      -9.621  10.190  66.994  1.00  0.00    -0.171 C  
HETATM    5  C   UNL     1      -7.098  12.832  68.358  1.00  0.00    -0.102 C  
HETATM    6  C   UNL     1      -7.128  14.267  68.968  1.00  0.00    -0.116 C  
HETATM    7  H   UNL     1     -11.282   8.956  67.720  1.00  0.00     0.000 HD 
HETATM    8  C   UNL     1      -8.140  14.475  70.097  1.00  0.00     0.931 C  
HETATM    9  N   UNL     1     -10.987   9.908  67.500  1.00  0.00    -0.247 NA 
HETATM   10  C   UNL     1     -11.905  11.050  67.676  1.00  0.00     0.167 C  
HETATM   11  N   UNL     1      -8.872  15.746  69.975  1.00  0.00     0.207 NA 
HETATM   12  C   UNL     1     -11.874  11.617  69.104  1.00  0.00    -0.390 C  
HETATM   13  H   UNL     1      -8.974  16.025  68.999  1.00  0.00     0.000 HD 
HETATM   14  H   UNL     1     -12.398  13.895  71.120  1.00  0.00     0.000 HD 
HETATM   15  C   UNL     1     -12.535  13.000  69.257  1.00  0.00     0.261 C  
HETATM   16  C   UNL     1     -10.180  15.687  70.658  1.00  0.00     0.312 C  
HETATM   17  C   UNL     1     -11.311  15.054  69.804  1.00  0.00    -0.283 C  
HETATM   18  N   UNL     1     -11.817  13.767  70.293  1.00  0.00    -0.294 NA 
ENDBRANCH   1   2
BRANCH   1  19
HETATM   19  C   UNL     1      -9.139  14.428  66.668  1.00  0.00    -0.265 A  
HETATM   20  C   UNL     1      -7.923  14.810  66.127  1.00  0.00     1.549 A  
HETATM   21  C   UNL     1      -7.580  16.133  66.233  1.00  0.00     0.134 A  
HETATM   22  C   UNL     1     -10.161  15.337  66.893  1.00  0.00    -0.257 A  
HETATM   23  C   UNL     1      -8.544  17.078  66.580  1.00  0.00    -0.305 A  
HETATM   24  C   UNL     1      -9.844  16.678  66.929  1.00  0.00    -0.267 A  
BRANCH  23  25
HETATM   25  C   UNL     1      -8.243  18.531  66.591  1.00  0.00    -0.274 C  
BRANCH  25  26
HETATM   26  N   UNL     1      -9.037  19.396  65.737  1.00  0.00    -0.325 NA 
HETATM   27  C   UNL     1      -8.769  20.070  70.827  1.00  0.00     1.915 C  
HETATM   28  H   UNL     1      -9.915  18.634  69.845  1.00  0.00     0.000 HD 
HETATM   29  N   UNL     1      -9.939  19.635  70.037  1.00  0.00     0.235 NA 
HETATM   30  C   UNL     1      -7.416  19.523  70.303  1.00  0.00     0.722 C  
HETATM   31  C   UNL     1     -10.054  20.426  68.801  1.00  0.00     0.039 C  
HETATM   32  C   UNL     1     -10.310  19.948  66.273  1.00  0.00    -0.495 C  
HETATM   33  N   UNL     1      -6.530  20.552  69.756  1.00  0.00    -0.218 NA 
HETATM   34  H   UNL     1      -6.147  21.134  70.501  1.00  0.00     0.000 HD 
HETATM   35  C   UNL     1     -10.839  19.692  67.716  1.00  0.00    -0.350 C  
HETATM   36  C   UNL     1      -5.455  20.005  68.913  1.00  0.00    -0.223 C  
HETATM   37  C   UNL     1      -5.511  20.674  67.527  1.00  0.00    -0.237 C  
HETATM   38  C   UNL     1      -5.183  19.727  66.364  1.00  0.00    -0.165 C  
HETATM   39  N   UNL     1      -5.530  20.309  65.058  1.00  0.00    -0.161 NA 
HETATM   40  C   UNL     1      -6.841  19.941  64.471  1.00  0.00     0.285 C  
HETATM   41  H   UNL     1      -4.892  20.941  64.574  1.00  0.00     0.000 HD 
HETATM   42  C   UNL     1      -8.168  20.441  65.145  1.00  0.00     0.933 C  
ENDBRANCH  25  26
ENDBRANCH  23  25
ENDBRANCH   1  19
TORSDOF 4
ENDMDL
MODEL      157
REMARK 921   NORMALIZED FREE ENERGY PREDICTED BY IDOCK:    3.35 KCAL/MOL
REMARK 922        TOTAL FREE ENERGY PREDICTED BY IDOCK:    2.55 KCAL/MOL
REMARK 923 INTER-LIGAND FREE ENERGY PREDICTED BY IDOCK:    2.73 KCAL/MOL
REMARK 924 INTRA-LIGAND FREE ENERGY PREDICTED BY IDOCK:   -0.18 KCAL/MOL
REMARK 927      BINDING AFFINITY PREDICTED BY RF-SCORE:    0.00 PKD
ROOT
HETATM    1  C   UNL     1      -9.335  16.509  68.334  1.00  0.00    -0.221 C  
ENDROOT
BRANCH   1   2
HETATM    2  N   UNL     1      -9.555  17.326  67.156  1.00  0.00    -0.250 NA 
HETATM    3  C   UNL     1     -10.201  18.593  67.566  1.00  0.00    -0.386 C  
HETATM    4  C   UNL     1      -9.484  19.359  68.733  1.00  0.00    -0.404 C  
HETATM    5  C   UNL     1     -10.230  16.698  65.982  1.00  0.00    -0.351 C  
HETATM    6  C   UNL     1     -10.673  15.205  65.893  1.00  0.00    -0.341 C  
HETATM    7  H   UNL     1     -10.538  20.431  70.330  1.00  0.00     0.000 HD 
HETATM    8  C   UNL     1     -11.883  14.830  66.751  1.00  0.00    -0.257 C  
HETATM    9  N   UNL     1     -10.178  19.523  70.035  1.00  0.00     0.362 NA 
HETATM   10  C   UNL     1     -10.330  18.330  70.889  1.00  0.00     2.644 C  
HETATM   11  N   UNL     1     -11.705  13.549  67.454  1.00  0.00    -0.358 NA 
HETATM   12  C   UNL     1     -11.671  17.612  70.665  1.00  0.00     3.886 C  
HETATM   13  H   UNL     1     -10.723  13.374  67.667  1.00  0.00     0.000 HD 
HETATM   14  H   UNL     1     -13.464  15.108  70.868  1.00  0.00     0.000 HD 
HETATM   15  C   UNL     1     -11.744  16.193  71.260  1.00  0.00    -0.425 C  
HETATM   16  C   UNL     1     -12.541  13.476  68.669  1.00  0.00     0.625 C  
HETATM   17  C   UNL     1     -11.905  14.147  69.915  1.00  0.00    -0.325 C  
HETATM   18  N   UNL     1     -12.593  15.350  70.396  1.00  0.00    -0.404 NA 
ENDBRANCH   1   2
BRANCH   1  19
HETATM   19  C   UNL     1      -8.593  15.223  68.171  1.00  0.00    -0.160 A  
HETATM   20  C   UNL     1      -7.853  14.975  67.028  1.00  0.00    -0.164 A  
HETATM   21  C   UNL     1      -7.734  13.668  66.633  1.00  0.00     0.872 A  
HETATM   22  C   UNL     1      -8.823  14.244  69.125  1.00  0.00     0.158 A  
HETATM   23  C   UNL     1      -8.070  12.640  67.511  1.00  0.00    -0.178 A  
HETATM   24  C   UNL     1      -8.635  12.927  68.765  1.00  0.00     0.168 A  
BRANCH  23  25
HETATM   25  C   UNL     1      -7.845  11.214  67.166  1.00  0.00    -0.139 C  
BRANCH  25  26
HETATM   26  N   UNL     1      -6.921  10.914  66.087  1.00  0.00    -0.126 NA 
HETATM   27  C   UNL     1      -7.183   8.044  70.344  1.00  0.00    -0.049 C  
HETATM   28  H   UNL     1      -6.234   9.891  70.175  1.00  0.00     0.000 HD 
HETATM   29  N   UNL     1      -6.073   8.918  69.915  1.00  0.00    -0.034 NA 
HETATM   30  C   UNL     1      -8.590   8.601  70.005  1.00  0.00    -0.132 C  
HETATM   31  C   UNL     1      -5.825   8.772  68.472  1.00  0.00    -0.045 C  
HETATM   32  C   UNL     1      -5.593  10.339  66.430  1.00  0.00    -0.055 C  
HETATM   33  N   UNL     1      -9.312   7.820  68.998  1.00  0.00    -0.150 NA 
HETATM   34  H   UNL     1      -9.622   6.928  69.385  1.00  0.00     0.000 HD 
HETATM   35  C   UNL     1      -5.131   9.995  67.876  1.00  0.00    -0.032 C  
HETATM   36  C   UNL     1     -10.438   8.549  68.394  1.00  0.00    -0.171 C  
HETATM   37  C   UNL     1     -10.263   8.570  66.865  1.00  0.00    -0.375 C  
HETATM   38  C   UNL     1     -10.700   9.885  66.205  1.00  0.00     0.133 C  
HETATM   39  N   UNL     1     -10.251   9.983  64.807  1.00  0.00    -0.284 NA 
HETATM   40  C   UNL     1      -8.994  10.725  64.542  1.00  0.00    -0.166 C  
HETATM   41  H   UNL     1     -10.784   9.557  64.049  1.00  0.00     0.000 HD 
HETATM   42  C   UNL     1      -7.623  10.141  65.035  1.00  0.00    -0.141 C  
ENDBRANCH  25  26
ENDBRANCH  23  25
ENDBRANCH   1  19
TORSDOF 4
ENDMDL
MODEL      158
REMARK 921   NORMALIZED FREE ENERGY PREDICTED BY IDOCK:    4.12 KCAL/MOL
REMARK 922        TOTAL FREE ENERGY PREDICTED BY IDOCK:    3.51 KCAL/MOL
REMARK 923 INTER-LIGAND FREE ENERGY PREDICTED BY IDOCK:    3.46 KCAL/MOL
REMARK 924 INTRA-LIGAND FREE ENERGY PREDICTED BY IDOCK:    0.05 KCAL/MOL
REMARK 927      BINDING AFFINITY PREDICTED BY RF-SCORE:    0.00 PKD
ROOT
HETATM    1  C   UNL     1      -9.084  12.579  67.538  1.00  0.00    -0.187 C  
ENDROOT
BRANCH   1   2
HETATM    2  N   UNL     1      -9.216  11.451  68.440  1.00  0.00    -0.179 NA 
HETATM    3  C   UNL     1      -8.801  10.220  67.731  1.00  0.00    -0.125 C  
HETATM    4  C   UNL     1      -7.401  10.297  67.026  1.00  0.00    -0.092 C  
HETATM    5  C   UNL     1     -10.509  11.280  69.166  1.00  0.00    -0.160 C  
HETATM    6  C   UNL     1     -11.724  12.255  69.079  1.00  0.00    -0.376 C  
HETATM    7  H   UNL     1      -6.948   9.378  65.087  1.00  0.00     0.000 HD 
HETATM    8  C   UNL     1     -12.496  12.220  67.758  1.00  0.00     1.093 C  
HETATM    9  N   UNL     1      -7.321  10.210  65.547  1.00  0.00    -0.137 NA 
HETATM   10  C   UNL     1      -7.797  11.365  64.762  1.00  0.00     1.081 C  
HETATM   11  N   UNL     1     -12.840  13.564  67.267  1.00  0.00     0.190 NA 
HETATM   12  C   UNL     1      -9.268  11.223  64.339  1.00  0.00    -0.065 C  
HETATM   13  H   UNL     1     -12.149  14.256  67.557  1.00  0.00     0.000 HD 
HETATM   14  H   UNL     1     -11.937  12.444  63.381  1.00  0.00     0.000 HD 
HETATM   15  C   UNL     1      -9.916  12.524  63.827  1.00  0.00    -0.128 C  
HETATM   16  C   UNL     1     -13.033  13.575  65.803  1.00  0.00    -0.102 C  
HETATM   17  C   UNL     1     -11.716  13.713  64.994  1.00  0.00    -0.339 C  
HETATM   18  N   UNL     1     -11.342  12.535  64.204  1.00  0.00    -0.351 NA 
ENDBRANCH   1   2
BRANCH   1  19
HETATM   19  C   UNL     1      -9.008  13.949  68.128  1.00  0.00    -0.185 A  
HETATM   20  C   UNL     1     -10.152  14.709  68.297  1.00  0.00    -0.228 A  
HETATM   21  C   UNL     1     -10.014  16.071  68.225  1.00  0.00    -0.220 A  
HETATM   22  C   UNL     1      -7.741  14.473  68.329  1.00  0.00    -0.126 A  
HETATM   23  C   UNL     1      -8.747  16.648  68.297  1.00  0.00    -0.216 A  
HETATM   24  C   UNL     1      -7.597  15.844  68.333  1.00  0.00    -0.132 A  
BRANCH  23  25
HETATM   25  C   UNL     1      -8.563  18.120  68.342  1.00  0.00    -0.299 C  
BRANCH  25  26
HETATM   26  N   UNL     1      -8.960  18.818  69.551  1.00  0.00     0.350 NA 
HETATM   27  C   UNL     1      -5.403  20.694  66.348  1.00  0.00    -0.171 C  
HETATM   28  H   UNL     1      -5.110  19.174  67.741  1.00  0.00     0.000 HD 
HETATM   29  N   UNL     1      -5.201  20.189  67.721  1.00  0.00    -0.182 NA 
HETATM   30  C   UNL     1      -6.470  19.912  65.539  1.00  0.00    -0.254 C  
HETATM   31  C   UNL     1      -6.275  20.659  68.610  1.00  0.00    -0.306 C  
HETATM   32  C   UNL     1      -7.932  19.600  70.289  1.00  0.00     1.126 C  
HETATM   33  N   UNL     1      -7.674  20.689  65.237  1.00  0.00    -0.270 NA 
HETATM   34  H   UNL     1      -7.480  21.398  64.529  1.00  0.00     0.000 HD 
HETATM   35  C   UNL     1      -6.452  19.757  69.831  1.00  0.00    -0.362 C  
HETATM   36  C   UNL     1      -8.819  19.854  64.841  1.00  0.00     2.176 C  
HETATM   37  C   UNL     1     -10.012  20.164  65.763  1.00  0.00    -0.329 C  
HETATM   38  C   UNL     1     -10.857  18.934  66.125  1.00  0.00    -0.130 C  
HETATM   39  N   UNL     1     -11.794  19.207  67.225  1.00  0.00     1.403 NA 
HETATM   40  C   UNL     1     -11.370  18.829  68.596  1.00  0.00     1.818 C  
HETATM   41  H   UNL     1     -12.702  19.639  67.054  1.00  0.00     0.000 HD 
HETATM   42  C   UNL     1     -10.192  19.601  69.290  1.00  0.00    -0.128 C  
ENDBRANCH  25  26
ENDBRANCH  23  25
ENDBRANCH   1  19
TORSDOF 4
ENDMDL
MODEL      159
REMARK 921   NORMALIZED FREE ENERGY PREDICTED BY IDOCK:    4.93 KCAL/MOL
REMARK 922        TOTAL FREE ENERGY PREDICTED BY IDOCK:    4.51 KCAL/MOL
REMARK 923 INTER-LIGAND FREE ENERGY PREDICTED BY IDOCK:    5.34 KCAL/MOL
REMARK 924 INTRA-LIGAND FREE ENERGY PREDICTED BY IDOCK:   -0.83 KCAL/MOL
REMARK 927      BINDING AFFINITY PREDICTED BY RF-SCORE:    0.00 PKD
ROOT
HETATM    1  C   UNL     1      -7.375  12.988  66.798  1.00  0.00     0.632 C  
ENDROOT
BRANCH   1   2
HETATM    2  N   UNL     1      -6.512  12.137  67.594  1.00  0.00    -0.095 NA 
HETATM    3  C   UNL     1      -6.850  10.722  67.320  1.00  0.00    -0.081 C  
HETATM    4  C   UNL     1      -6.889  10.328  65.802  1.00  0.00    -0.128 C  
HETATM    5  C   UNL     1      -6.400  12.421  69.055  1.00  0.00    -0.092 C  
HETATM    6  C   UNL     1      -7.094  13.605  69.796  1.00  0.00     0.329 C  
HETATM    7  H   UNL     1      -8.346   8.942  64.927  1.00  0.00     0.000 HD 
HETATM    8  C   UNL     1      -8.609  13.468  69.970  1.00  0.00     2.708 C  
HETATM    9  N   UNL     1      -8.174   9.914  65.186  1.00  0.00    -0.137 NA 
HETATM   10  C   UNL     1      -9.195  10.954  64.959  1.00  0.00    -0.207 C  
HETATM   11  N   UNL     1      -9.328  14.720  69.686  1.00  0.00    -0.421 NA 
HETATM   12  C   UNL     1     -10.194  11.063  66.122  1.00  0.00    -0.298 C  
HETATM   13  H   UNL     1      -8.837  15.282  68.989  1.00  0.00     0.000 HD 
HETATM   14  H   UNL     1     -12.319  12.628  67.724  1.00  0.00     0.000 HD 
HETATM   15  C   UNL     1     -11.058  12.339  66.107  1.00  0.00    -0.311 C  
HETATM   16  C   UNL     1     -10.726  14.464  69.285  1.00  0.00    -0.206 C  
HETATM   17  C   UNL     1     -10.900  14.125  67.781  1.00  0.00    -0.252 C  
HETATM   18  N   UNL     1     -11.333  12.753  67.496  1.00  0.00    -0.292 NA 
ENDBRANCH   1   2
BRANCH   1  19
HETATM   19  C   UNL     1      -7.079  14.452  66.758  1.00  0.00     1.222 A  
HETATM   20  C   UNL     1      -5.868  14.939  67.219  1.00  0.00     0.435 A  
HETATM   21  C   UNL     1      -5.864  16.206  67.743  1.00  0.00    -0.157 A  
HETATM   22  C   UNL     1      -8.123  15.291  66.406  1.00  0.00     0.234 A  
HETATM   23  C   UNL     1      -6.947  17.055  67.524  1.00  0.00    -0.168 A  
HETATM   24  C   UNL     1      -8.097  16.591  66.863  1.00  0.00    -0.254 A  
BRANCH  23  25
HETATM   25  C   UNL     1      -6.932  18.470  67.972  1.00  0.00    -0.227 C  
BRANCH  25  26
HETATM   26  N   UNL     1      -5.846  19.316  67.512  1.00  0.00    -0.185 NA 
HETATM   27  C   UNL     1     -10.734  20.159  66.160  1.00  0.00    -0.141 C  
HETATM   28  H   UNL     1      -9.478  18.706  65.353  1.00  0.00     0.000 HD 
HETATM   29  N   UNL     1      -9.625  19.713  65.293  1.00  0.00     0.194 NA 
HETATM   30  C   UNL     1     -10.685  19.575  67.596  1.00  0.00    -0.401 C  
HETATM   31  C   UNL     1      -8.395  20.463  65.597  1.00  0.00     0.346 C  
HETATM   32  C   UNL     1      -5.932  19.903  66.148  1.00  0.00    -0.168 C  
HETATM   33  N   UNL     1     -10.421  20.573  68.635  1.00  0.00    -0.047 NA 
HETATM   34  H   UNL     1     -11.232  21.175  68.774  1.00  0.00     0.000 HD 
HETATM   35  C   UNL     1      -7.137  19.704  65.181  1.00  0.00    -0.016 C  
HETATM   36  C   UNL     1      -9.980  19.983  69.909  1.00  0.00     0.368 C  
HETATM   37  C   UNL     1      -8.631  20.605  70.313  1.00  0.00     2.241 C  
HETATM   38  C   UNL     1      -7.661  19.615  70.972  1.00  0.00     1.776 C  
HETATM   39  N   UNL     1      -6.297  20.157  71.073  1.00  0.00    -0.408 NA 
HETATM   40  C   UNL     1      -5.332  19.787  70.009  1.00  0.00    -0.211 C  
HETATM   41  H   UNL     1      -6.024  20.764  71.847  1.00  0.00     0.000 HD 
HETATM   42  C   UNL     1      -5.533  20.328  68.549  1.00  0.00    -0.243 C  
ENDBRANCH  25  26
ENDBRANCH  23  25
ENDBRANCH   1  19
TORSDOF 4
ENDMDL
MODEL      160
REMARK 921   NORMALIZED FREE ENERGY PREDICTED BY IDOCK:    5.19 KCAL/MOL
REMARK 922        TOTAL FREE ENERGY PREDICTED BY IDOCK:    4.83 KCAL/MOL
REMARK 923 INTER-LIGAND FREE ENERGY PREDICTED BY IDOCK:    5.85 KCAL/MOL
REMARK 924 INTRA-LIGAND FREE ENERGY PREDICTED BY IDOCK:   -1.02 KCAL/MOL
REMARK 927      BINDING AFFINITY PREDICTED BY RF-SCORE:    0.00 PKD
ROOT
HETATM    1  C   UNL     1      -9.254  13.183  67.680  1.00  0.00    -0.207 C  
ENDROOT
BRANCH   1   2
HETATM    2  N   UNL     1      -8.084  13.880  67.178  1.00  0.00    -0.132 NA 
HETATM    3  C   UNL     1      -8.166  15.302  67.583  1.00  0.00    -0.161 C  
HETATM    4  C   UNL     1      -8.432  15.547  69.109  1.00  0.00    -0.248 C  
HETATM    5  C   UNL     1      -7.736  13.719  65.736  1.00  0.00     4.320 C  
HETATM    6  C   UNL     1      -8.497  12.808  64.724  1.00  0.00     3.096 C  
HETATM    7  H   UNL     1      -9.711  17.146  69.894  1.00  0.00     0.000 HD 
HETATM    8  C   UNL     1      -9.879  13.313  64.302  1.00  0.00     0.330 C  
HETATM    9  N   UNL     1      -9.700  16.190  69.537  1.00  0.00    -0.222 NA 
HETATM   10  C   UNL     1     -10.942  15.402  69.429  1.00  0.00    -0.276 C  
HETATM   11  N   UNL     1     -10.890  12.243  64.275  1.00  0.00    -0.320 NA 
HETATM   12  C   UNL     1     -11.679  15.642  68.102  1.00  0.00    -0.209 C  
HETATM   13  H   UNL     1     -10.684  11.518  64.963  1.00  0.00     0.000 HD 
HETATM   14  H   UNL     1     -13.709  14.782  65.942  1.00  0.00     0.000 HD 
HETATM   15  C   UNL     1     -12.777  14.610  67.783  1.00  0.00     1.045 C  
HETATM   16  C   UNL     1     -12.254  12.781  64.451  1.00  0.00    -0.428 C  
HETATM   17  C   UNL     1     -12.659  13.005  65.932  1.00  0.00    -0.110 C  
HETATM   18  N   UNL     1     -12.842  14.407  66.324  1.00  0.00     0.014 NA 
ENDBRANCH   1   2
BRANCH   1  19
HETATM   19  C   UNL     1      -9.044  11.934  68.471  1.00  0.00    -0.123 A  
HETATM   20  C   UNL     1      -8.496  10.809  67.880  1.00  0.00    -0.122 A  
HETATM   21  C   UNL     1      -8.882   9.591  68.377  1.00  0.00    -0.124 A  
HETATM   22  C   UNL     1      -9.577  11.906  69.749  1.00  0.00     1.711 A  
HETATM   23  C   UNL     1      -9.536   9.515  69.606  1.00  0.00    -0.213 A  
HETATM   24  C   UNL     1      -9.903  10.683  70.294  1.00  0.00     0.693 A  
BRANCH  23  25
HETATM   25  C   UNL     1      -9.865   8.212  70.234  1.00  0.00    -0.184 C  
BRANCH  25  26
HETATM   26  N   UNL     1     -10.212   7.104  69.361  1.00  0.00    -0.184 NA 
HETATM   27  C   UNL     1      -6.112   6.969  72.461  1.00  0.00    -0.041 C  
HETATM   28  H   UNL     1      -6.235   7.983  70.645  1.00  0.00     0.000 HD 
HETATM   29  N   UNL     1      -6.123   7.028  70.985  1.00  0.00    -0.036 NA 
HETATM   30  C   UNL     1      -7.245   7.787  73.132  1.00  0.00    -0.088 C  
HETATM   31  C   UNL     1      -7.151   6.128  70.437  1.00  0.00    -0.071 C  
HETATM   32  C   UNL     1      -9.111   6.303  68.761  1.00  0.00    -0.127 C  
HETATM   33  N   UNL     1      -8.244   6.966  73.820  1.00  0.00    -0.115 NA 
HETATM   34  H   UNL     1      -7.859   6.566  74.675  1.00  0.00     0.000 HD 
HETATM   35  C   UNL     1      -7.597   6.545  69.037  1.00  0.00    -0.100 C  
HETATM   36  C   UNL     1      -9.497   7.687  74.097  1.00  0.00     0.054 C  
HETATM   37  C   UNL     1     -10.674   6.906  73.486  1.00  0.00    -0.342 C  
HETATM   38  C   UNL     1     -11.771   7.799  72.888  1.00  0.00    -0.177 C  
HETATM   39  N   UNL     1     -12.720   7.037  72.062  1.00  0.00    -0.519 NA 
HETATM   40  C   UNL     1     -12.488   7.014  70.597  1.00  0.00    -0.122 C  
HETATM   41  H   UNL     1     -13.508   6.542  72.480  1.00  0.00     0.000 HD 
HETATM   42  C   UNL     1     -11.240   6.260  70.015  1.00  0.00    -0.412 C  
ENDBRANCH  25  26
ENDBRANCH  23  25
ENDBRANCH   1  19
TORSDOF 4
ENDMDL
MODEL      161
REMARK 921   NORMALIZED FREE ENERGY PREDICTED BY IDOCK:    5.73 KCAL/MOL
REMARK 922        TOTAL FREE ENERGY PREDICTED BY IDOCK:    5.49 KCAL/MOL
REMARK 923 INTER-LIGAND FREE ENERGY PREDICTED BY IDOCK:    3.49 KCAL/MOL
REMARK 924 INTRA-LIGAND FREE ENERGY PREDICTED BY IDOCK:    2.00 KCAL/MOL
REMARK 927      BINDING AFFINITY PREDICTED BY RF-SCORE:    0.00 PKD
ROOT
HETATM    1  C   UNL     1     -12.253   8.392  70.173  1.00  0.00     0.710 C  
ENDROOT
BRANCH   1   2
HETATM    2  N   UNL     1     -13.153   9.300  70.857  1.00  0.00    -0.088 NA 
HETATM    3  C   UNL     1     -12.356  10.366  71.505  1.00  0.00    -0.368 C  
HETATM    4  C   UNL     1     -11.330  11.093  70.568  1.00  0.00     0.080 C  
HETATM    5  C   UNL     1     -14.173   8.715  71.777  1.00  0.00    -0.412 C  
HETATM    6  C   UNL     1     -14.394   7.191  72.021  1.00  0.00    -0.398 C  
HETATM    7  H   UNL     1      -9.333  11.744  71.201  1.00  0.00     0.000 HD 
HETATM    8  C   UNL     1     -13.303   6.496  72.840  1.00  0.00     1.527 C  
HETATM    9  N   UNL     1      -9.875  10.961  70.834  1.00  0.00     2.403 NA 
HETATM   10  C   UNL     1      -9.239   9.661  70.549  1.00  0.00    -0.152 C  
HETATM   11  N   UNL     1     -12.920   5.189  72.281  1.00  0.00     1.202 NA 
HETATM   12  C   UNL     1      -9.189   8.747  71.784  1.00  0.00    -0.332 C  
HETATM   13  H   UNL     1     -13.035   5.169  71.267  1.00  0.00     0.000 HD 
HETATM   14  H   UNL     1      -8.924   5.954  73.071  1.00  0.00     0.000 HD 
HETATM   15  C   UNL     1      -8.860   7.273  71.476  1.00  0.00    -0.122 C  
HETATM   16  C   UNL     1     -11.548   4.811  72.676  1.00  0.00     0.112 C  
HETATM   17  C   UNL     1     -10.441   5.421  71.776  1.00  0.00    -0.226 C  
HETATM   18  N   UNL     1      -9.576   6.408  72.433  1.00  0.00    -0.147 NA 
ENDBRANCH   1   2
BRANCH   1  19
HETATM   19  C   UNL     1     -11.701   8.813  68.850  1.00  0.00     1.300 A  
HETATM   20  C   UNL     1     -10.746   8.043  68.207  1.00  0.00    -0.081 A  
HETATM   21  C   UNL     1      -9.852   8.701  67.403  1.00  0.00    -0.249 A  
HETATM   22  C   UNL     1     -12.057  10.072  68.395  1.00  0.00     1.370 A  
HETATM   23  C   UNL     1     -10.099  10.016  67.014  1.00  0.00    -0.274 A  
HETATM   24  C   UNL     1     -11.203  10.717  67.526  1.00  0.00    -0.326 A  
BRANCH  23  25
HETATM   25  C   UNL     1      -9.219  10.723  66.052  1.00  0.00    -0.187 C  
BRANCH  25  26
HETATM   26  N   UNL     1      -9.564  10.661  64.642  1.00  0.00    -0.252 NA 
HETATM   27  C   UNL     1      -8.432  15.091  66.992  1.00  0.00    -0.229 C  
HETATM   28  H   UNL     1     -10.243  14.070  67.122  1.00  0.00     0.000 HD 
HETATM   29  N   UNL     1      -9.742  14.664  66.462  1.00  0.00    -0.267 NA 
HETATM   30  C   UNL     1      -7.601  13.943  67.620  1.00  0.00    -0.178 C  
HETATM   31  C   UNL     1      -9.584  14.010  65.152  1.00  0.00     0.252 C  
HETATM   32  C   UNL     1     -10.324  11.794  64.048  1.00  0.00    -0.356 C  
HETATM   33  N   UNL     1      -6.387  13.611  66.872  1.00  0.00    -0.084 NA 
HETATM   34  H   UNL     1      -5.684  14.342  66.978  1.00  0.00     0.000 HD 
HETATM   35  C   UNL     1     -10.746  13.074  64.828  1.00  0.00    -0.370 C  
HETATM   36  C   UNL     1      -5.830  12.295  67.224  1.00  0.00    -0.143 C  
HETATM   37  C   UNL     1      -5.698  11.445  65.947  1.00  0.00     0.182 C  
HETATM   38  C   UNL     1      -6.017   9.957  66.152  1.00  0.00    -0.065 C  
HETATM   39  N   UNL     1      -6.171   9.240  64.877  1.00  0.00    -0.065 NA 
HETATM   40  C   UNL     1      -7.546   9.060  64.353  1.00  0.00    -0.112 C  
HETATM   41  H   UNL     1      -5.361   8.880  64.371  1.00  0.00     0.000 HD 
HETATM   42  C   UNL     1      -8.362  10.304  63.852  1.00  0.00    -0.165 C  
ENDBRANCH  25  26
ENDBRANCH  23  25
ENDBRANCH   1  19
TORSDOF 4
ENDMDL
MODEL      162
REMARK 921   NORMALIZED FREE ENERGY PREDICTED BY IDOCK:    6.06 KCAL/MOL
REMARK 922        TOTAL FREE ENERGY PREDICTED BY IDOCK:    5.89 KCAL/MOL
REMARK 923 INTER-LIGAND FREE ENERGY PREDICTED BY IDOCK:   -0.00 KCAL/MOL
REMARK 924 INTRA-LIGAND FREE ENERGY PREDICTED BY IDOCK:    5.89 KCAL/MOL
REMARK 927      BINDING AFFINITY PREDICTED BY RF-SCORE:    0.00 PKD
ROOT
HETATM    1  C   UNL     1      -7.242  10.612  67.947  1.00  0.00    -0.087 C  
ENDROOT
BRANCH   1   2
HETATM    2  N   UNL     1      -6.587  10.801  66.667  1.00  0.00    -0.103 NA 
HETATM    3  C   UNL     1      -6.052  12.180  66.602  1.00  0.00     0.317 C  
HETATM    4  C   UNL     1      -5.170  12.611  67.825  1.00  0.00    -0.105 C  
HETATM    5  C   UNL     1      -7.336  10.423  65.433  1.00  0.00    -0.124 C  
HETATM    6  C   UNL     1      -8.757   9.781  65.405  1.00  0.00    -0.176 C  
HETATM    7  H   UNL     1      -5.193  14.616  68.713  1.00  0.00     0.000 HD 
HETATM    8  C   UNL     1      -9.906  10.722  65.778  1.00  0.00    -0.240 C  
HETATM    9  N   UNL     1      -5.640  13.698  68.720  1.00  0.00    -0.080 NA 
HETATM   10  C   UNL     1      -6.773  13.409  69.618  1.00  0.00     0.056 C  
HETATM   11  N   UNL     1     -10.885  10.093  66.678  1.00  0.00    -0.082 NA 
HETATM   12  C   UNL     1      -8.126  13.806  69.006  1.00  0.00     0.168 C  
HETATM   13  H   UNL     1     -10.446   9.392  67.276  1.00  0.00     0.000 HD 
HETATM   14  H   UNL     1     -11.203  13.591  68.877  1.00  0.00     0.000 HD 
HETATM   15  C   UNL     1      -9.353  13.223  69.733  1.00  0.00     2.145 C  
HETATM   16  C   UNL     1     -11.616  11.099  67.474  1.00  0.00    -0.135 C  
HETATM   17  C   UNL     1     -10.866  11.558  68.753  1.00  0.00    -0.216 C  
HETATM   18  N   UNL     1     -10.417  12.955  68.746  1.00  0.00    -0.205 NA 
ENDBRANCH   1   2
BRANCH   1  19
HETATM   19  C   UNL     1      -7.825   9.271  68.249  1.00  0.00    -0.098 A  
HETATM   20  C   UNL     1      -9.194   9.106  68.365  1.00  0.00    -0.132 A  
HETATM   21  C   UNL     1      -9.636   8.122  69.211  1.00  0.00    -0.164 A  
HETATM   22  C   UNL     1      -6.933   8.260  68.574  1.00  0.00    -0.069 A  
HETATM   23  C   UNL     1      -8.751   7.148  69.670  1.00  0.00    -0.141 A  
HETATM   24  C   UNL     1      -7.383   7.224  69.363  1.00  0.00    -0.089 A  
BRANCH  23  25
HETATM   25  C   UNL     1      -9.212   6.000  70.489  1.00  0.00    -0.156 C  
BRANCH  25  26
HETATM   26  N   UNL     1     -10.346   5.232  70.007  1.00  0.00    -0.289 NA 
HETATM   27  C   UNL     1      -5.729   5.009  67.757  1.00  0.00    -0.017 C  
HETATM   28  H   UNL     1      -7.120   6.543  67.536  1.00  0.00     0.000 HD 
HETATM   29  N   UNL     1      -6.970   5.590  67.207  1.00  0.00    -0.064 NA 
HETATM   30  C   UNL     1      -5.554   5.224  69.282  1.00  0.00    -0.011 C  
HETATM   31  C   UNL     1      -8.123   4.723  67.500  1.00  0.00    -0.101 C  
HETATM   32  C   UNL     1     -10.472   4.998  68.542  1.00  0.00     0.049 C  
HETATM   33  N   UNL     1      -5.631   3.991  70.069  1.00  0.00    -0.015 NA 
HETATM   34  H   UNL     1      -4.799   3.419  69.929  1.00  0.00     0.000 HD 
HETATM   35  C   UNL     1      -9.443   5.491  67.482  1.00  0.00    -0.123 C  
HETATM   36  C   UNL     1      -5.869   4.231  71.501  1.00  0.00    -0.016 C  
HETATM   37  C   UNL     1      -7.125   3.457  71.941  1.00  0.00    -0.038 C  
HETATM   38  C   UNL     1      -7.991   4.203  72.965  1.00  0.00    -0.089 C  
HETATM   39  N   UNL     1      -9.312   3.580  73.136  1.00  0.00    -0.101 NA 
HETATM   40  C   UNL     1     -10.442   4.143  72.357  1.00  0.00    -0.102 C  
HETATM   41  H   UNL     1      -9.448   2.790  73.767  1.00  0.00     0.000 HD 
HETATM   42  C   UNL     1     -10.471   3.983  70.796  1.00  0.00     0.633 C  
ENDBRANCH  25  26
ENDBRANCH  23  25
ENDBRANCH   1  19
TORSDOF 4
ENDMDL
MODEL      163
REMARK 921   NORMALIZED FREE ENERGY PREDICTED BY IDOCK:    6.24 KCAL/MOL
REMARK 922        TOTAL FREE ENERGY PREDICTED BY IDOCK:    6.12 KCAL/MOL
REMARK 923 INTER-LIGAND FREE ENERGY PREDICTED BY IDOCK:    0.01 KCAL/MOL
REMARK 924 INTRA-LIGAND FREE ENERGY PREDICTED BY IDOCK:    6.11 KCAL/MOL
REMARK 927      BINDING AFFINITY PREDICTED BY RF-SCORE:    0.00 PKD
ROOT
HETATM    1  C   UNL     1      -7.231  10.607  67.951  1.00  0.00    -0.087 C  
ENDROOT
BRANCH   1   2
HETATM    2  N   UNL     1      -6.590  10.716  66.654  1.00  0.00    -0.093 NA 
HETATM    3  C   UNL     1      -6.048  12.085  66.502  1.00  0.00     0.357 C  
HETATM    4  C   UNL     1      -5.148  12.580  67.687  1.00  0.00    -0.102 C  
HETATM    5  C   UNL     1      -7.358  10.272  65.453  1.00  0.00    -0.144 C  
HETATM    6  C   UNL     1      -8.784   9.640  65.481  1.00  0.00    -0.176 C  
HETATM    7  H   UNL     1      -5.147  14.634  68.456  1.00  0.00     0.000 HD 
HETATM    8  C   UNL     1      -9.921  10.609  65.812  1.00  0.00    -0.257 C  
HETATM    9  N   UNL     1      -5.599  13.722  68.522  1.00  0.00    -0.086 NA 
HETATM   10  C   UNL     1      -6.723  13.494  69.449  1.00  0.00    -0.051 C  
HETATM   11  N   UNL     1     -10.893  10.041  66.760  1.00  0.00    -0.089 NA 
HETATM   12  C   UNL     1      -8.081  13.864  68.832  1.00  0.00     0.033 C  
HETATM   13  H   UNL     1     -10.450   9.373  67.392  1.00  0.00     0.000 HD 
HETATM   14  H   UNL     1     -11.160  13.664  68.753  1.00  0.00     0.000 HD 
HETATM   15  C   UNL     1      -9.302  13.333  69.606  1.00  0.00     1.745 C  
HETATM   16  C   UNL     1     -11.607  11.098  67.504  1.00  0.00    -0.135 C  
HETATM   17  C   UNL     1     -10.838  11.625  68.745  1.00  0.00    -0.220 C  
HETATM   18  N   UNL     1     -10.380  13.016  68.651  1.00  0.00    -0.225 NA 
ENDBRANCH   1   2
BRANCH   1  19
HETATM   19  C   UNL     1      -7.766   9.275  68.363  1.00  0.00    -0.090 A  
HETATM   20  C   UNL     1      -7.461   8.746  69.605  1.00  0.00    -0.071 A  
HETATM   21  C   UNL     1      -7.409   7.380  69.707  1.00  0.00    -0.083 A  
HETATM   22  C   UNL     1      -8.423   8.537  67.391  1.00  0.00    -0.127 A  
HETATM   23  C   UNL     1      -7.946   6.585  68.696  1.00  0.00    -0.114 A  
HETATM   24  C   UNL     1      -8.444   7.165  67.518  1.00  0.00    -0.123 A  
BRANCH  23  25
HETATM   25  C   UNL     1      -8.016   5.108  68.821  1.00  0.00    -0.082 C  
BRANCH  25  26
HETATM   26  N   UNL     1      -8.567   4.555  70.045  1.00  0.00    -0.075 NA 
HETATM   27  C   UNL     1     -11.522   6.755  66.460  1.00  0.00     1.253 C  
HETATM   28  H   UNL     1     -10.347   7.759  67.855  1.00  0.00     0.000 HD 
HETATM   29  N   UNL     1     -11.233   7.256  67.818  1.00  0.00     0.072 NA 
HETATM   30  C   UNL     1     -10.322   6.045  65.780  1.00  0.00     0.653 C  
HETATM   31  C   UNL     1     -11.279   6.158  68.797  1.00  0.00    -0.224 C  
HETATM   32  C   UNL     1      -9.747   5.224  70.658  1.00  0.00    -0.186 C  
HETATM   33  N   UNL     1     -10.519   4.608  65.578  1.00  0.00    -0.465 NA 
HETATM   34  H   UNL     1     -11.199   4.436  64.837  1.00  0.00     0.000 HD 
HETATM   35  C   UNL     1     -10.464   6.466  70.052  1.00  0.00    -0.267 C  
HETATM   36  C   UNL     1      -9.266   3.882  65.319  1.00  0.00    -0.150 C  
HETATM   37  C   UNL     1      -9.121   2.744  66.346  1.00  0.00    -0.137 C  
HETATM   38  C   UNL     1      -7.679   2.513  66.820  1.00  0.00    -0.071 C  
HETATM   39  N   UNL     1      -7.615   1.638  68.001  1.00  0.00    -0.053 NA 
HETATM   40  C   UNL     1      -7.533   2.288  69.332  1.00  0.00    -0.043 C  
HETATM   41  H   UNL     1      -7.627   0.622  67.909  1.00  0.00     0.000 HD 
HETATM   42  C   UNL     1      -8.760   3.093  69.886  1.00  0.00    -0.075 C  
ENDBRANCH  25  26
ENDBRANCH  23  25
ENDBRANCH   1  19
TORSDOF 4
ENDMDL
MODEL      164
REMARK 921   NORMALIZED FREE ENERGY PREDICTED BY IDOCK:    6.41 KCAL/MOL
REMARK 922        TOTAL FREE ENERGY PREDICTED BY IDOCK:    6.32 KCAL/MOL
REMARK 923 INTER-LIGAND FREE ENERGY PREDICTED BY IDOCK:    3.02 KCAL/MOL
REMARK 924 INTRA-LIGAND FREE ENERGY PREDICTED BY IDOCK:    3.30 KCAL/MOL
REMARK 927      BINDING AFFINITY PREDICTED BY RF-SCORE:    0.00 PKD
ROOT
HETATM    1  C   UNL     1     -12.283   8.404  70.167  1.00  0.00     0.710 C  
ENDROOT
BRANCH   1   2
HETATM    2  N   UNL     1     -13.213   9.246  70.895  1.00  0.00    -0.073 NA 
HETATM    3  C   UNL     1     -12.457  10.340  71.546  1.00  0.00    -0.422 C  
HETATM    4  C   UNL     1     -11.496  11.142  70.601  1.00  0.00     0.063 C  
HETATM    5  C   UNL     1     -14.175   8.587  71.826  1.00  0.00    -0.446 C  
HETATM    6  C   UNL     1     -14.307   7.048  72.041  1.00  0.00    -0.359 C  
HETATM    7  H   UNL     1      -9.522  11.886  71.197  1.00  0.00     0.000 HD 
HETATM    8  C   UNL     1     -13.159   6.396  72.815  1.00  0.00     1.005 C  
HETATM    9  N   UNL     1     -10.030  11.083  70.826  1.00  0.00     2.256 NA 
HETATM   10  C   UNL     1      -9.333   9.826  70.496  1.00  0.00    -0.054 C  
HETATM   11  N   UNL     1     -12.721   5.125  72.217  1.00  0.00     0.994 NA 
HETATM   12  C   UNL     1      -9.201   8.890  71.708  1.00  0.00    -0.279 C  
HETATM   13  H   UNL     1     -12.861   5.120  71.207  1.00  0.00     0.000 HD 
HETATM   14  H   UNL     1      -8.753   6.088  72.924  1.00  0.00     0.000 HD 
HETATM   15  C   UNL     1      -8.802   7.443  71.358  1.00  0.00    -0.126 C  
HETATM   16  C   UNL     1     -11.321   4.813  72.569  1.00  0.00     0.076 C  
HETATM   17  C   UNL     1     -10.272   5.502  71.655  1.00  0.00    -0.209 C  
HETATM   18  N   UNL     1      -9.445   6.520  72.312  1.00  0.00    -0.145 NA 
ENDBRANCH   1   2
BRANCH   1  19
HETATM   19  C   UNL     1     -11.737   8.912  68.872  1.00  0.00     1.212 A  
HETATM   20  C   UNL     1     -10.761   8.204  68.192  1.00  0.00    -0.090 A  
HETATM   21  C   UNL     1      -9.880   8.929  67.431  1.00  0.00    -0.247 A  
HETATM   22  C   UNL     1     -12.124  10.186  68.487  1.00  0.00     0.939 A  
HETATM   23  C   UNL     1     -10.160  10.257  67.116  1.00  0.00    -0.259 A  
HETATM   24  C   UNL     1     -11.284  10.900  67.661  1.00  0.00    -0.379 A  
BRANCH  23  25
HETATM   25  C   UNL     1      -9.295  11.040  66.199  1.00  0.00    -0.191 C  
BRANCH  25  26
HETATM   26  N   UNL     1      -9.177  12.469  66.430  1.00  0.00    -0.212 NA 
HETATM   27  C   UNL     1      -5.235   9.632  64.741  1.00  0.00    -0.051 C  
HETATM   28  H   UNL     1      -5.917   9.725  66.707  1.00  0.00     0.000 HD 
HETATM   29  N   UNL     1      -5.372  10.290  66.056  1.00  0.00    -0.053 NA 
HETATM   30  C   UNL     1      -6.564   9.063  64.180  1.00  0.00    -0.083 C  
HETATM   31  C   UNL     1      -5.933  11.642  65.905  1.00  0.00     0.693 C  
HETATM   32  C   UNL     1      -7.879  13.002  66.926  1.00  0.00     0.154 C  
HETATM   33  N   UNL     1      -7.049   9.755  62.984  1.00  0.00    -0.110 NA 
HETATM   34  H   UNL     1      -6.469   9.532  62.175  1.00  0.00     0.000 HD 
HETATM   35  C   UNL     1      -6.613  12.133  67.181  1.00  0.00    -0.127 C  
HETATM   36  C   UNL     1      -8.469   9.494  62.697  1.00  0.00    -0.187 C  
HETATM   37  C   UNL     1      -9.221  10.834  62.610  1.00  0.00    -0.349 C  
HETATM   38  C   UNL     1     -10.637  10.795  63.201  1.00  0.00     0.279 C  
HETATM   39  N   UNL     1     -11.207  12.141  63.370  1.00  0.00    -0.638 NA 
HETATM   40  C   UNL     1     -11.089  12.772  64.707  1.00  0.00    -0.302 C  
HETATM   41  H   UNL     1     -11.666  12.622  62.596  1.00  0.00     0.000 HD 
HETATM   42  C   UNL     1      -9.681  13.205  65.246  1.00  0.00     0.032 C  
ENDBRANCH  25  26
ENDBRANCH  23  25
ENDBRANCH   1  19
TORSDOF 4
ENDMDL
MODEL      165
REMARK 921   NORMALIZED FREE ENERGY PREDICTED BY IDOCK:    6.43 KCAL/MOL
REMARK 922        TOTAL FREE ENERGY PREDICTED BY IDOCK:    6.35 KCAL/MOL
REMARK 923 INTER-LIGAND FREE ENERGY PREDICTED BY IDOCK:    5.95 KCAL/MOL
REMARK 924 INTRA-LIGAND FREE ENERGY PREDICTED BY IDOCK:    0.40 KCAL/MOL
REMARK 927      BINDING AFFINITY PREDICTED BY RF-SCORE:    0.00 PKD
ROOT
HETATM    1  C   UNL     1     -10.273   7.243  70.245  1.00  0.00    -0.199 C  
ENDROOT
BRANCH   1   2
HETATM    2  N   UNL     1     -11.709   7.039  70.237  1.00  0.00    -0.272 NA 
HETATM    3  C   UNL     1     -12.374   8.306  70.618  1.00  0.00     0.187 C  
HETATM    4  C   UNL     1     -11.917   9.568  69.806  1.00  0.00     0.377 C  
HETATM    5  C   UNL     1     -12.255   5.865  70.979  1.00  0.00     0.871 C  
HETATM    6  C   UNL     1     -11.399   4.794  71.722  1.00  0.00     0.612 C  
HETATM    7  H   UNL     1     -11.667  11.566  70.676  1.00  0.00     0.000 HD 
HETATM    8  C   UNL     1     -10.741   5.270  73.020  1.00  0.00    -0.257 C  
HETATM    9  N   UNL     1     -11.209  10.670  70.504  1.00  0.00    -0.268 NA 
HETATM   10  C   UNL     1      -9.821  10.428  70.940  1.00  0.00     1.523 C  
HETATM   11  N   UNL     1      -9.345   4.820  73.146  1.00  0.00    -0.121 NA 
HETATM   12  C   UNL     1      -9.737   9.928  72.392  1.00  0.00     4.186 C  
HETATM   13  H   UNL     1      -8.902   4.720  72.233  1.00  0.00     0.000 HD 
HETATM   14  H   UNL     1      -8.231   8.505  74.679  1.00  0.00     0.000 HD 
HETATM   15  C   UNL     1      -8.372   9.336  72.788  1.00  0.00     1.565 C  
HETATM   16  C   UNL     1      -8.565   5.710  74.030  1.00  0.00    -0.117 C  
HETATM   17  C   UNL     1      -8.003   6.970  73.319  1.00  0.00    -0.097 C  
HETATM   18  N   UNL     1      -8.581   8.245  73.758  1.00  0.00    -0.267 NA 
ENDBRANCH   1   2
BRANCH   1  19
HETATM   19  C   UNL     1      -9.487   6.769  69.066  1.00  0.00    -0.133 A  
HETATM   20  C   UNL     1      -9.063   7.660  68.097  1.00  0.00    -0.132 A  
HETATM   21  C   UNL     1      -8.935   7.180  66.819  1.00  0.00    -0.151 A  
HETATM   22  C   UNL     1      -9.361   5.398  68.910  1.00  0.00    -0.161 A  
HETATM   23  C   UNL     1      -8.927   5.805  66.588  1.00  0.00    -0.123 A  
HETATM   24  C   UNL     1      -9.158   4.903  67.639  1.00  0.00    -0.126 A  
BRANCH  23  25
HETATM   25  C   UNL     1      -8.673   5.243  65.239  1.00  0.00    -0.151 C  
BRANCH  25  26
HETATM   26  N   UNL     1      -8.061   6.108  64.246  1.00  0.00    -0.118 NA 
HETATM   27  C   UNL     1      -5.310   3.752  67.896  1.00  0.00    -0.012 C  
HETATM   28  H   UNL     1      -6.474   5.460  68.157  1.00  0.00     0.000 HD 
HETATM   29  N   UNL     1      -5.572   5.199  67.760  1.00  0.00    -0.012 NA 
HETATM   30  C   UNL     1      -6.506   2.854  67.484  1.00  0.00    -0.036 C  
HETATM   31  C   UNL     1      -5.453   5.618  66.354  1.00  0.00    -0.013 C  
HETATM   32  C   UNL     1      -6.887   6.929  64.648  1.00  0.00    -0.046 C  
HETATM   33  N   UNL     1      -6.264   2.057  66.280  1.00  0.00    -0.023 NA 
HETATM   34  H   UNL     1      -5.604   1.304  66.470  1.00  0.00     0.000 HD 
HETATM   35  C   UNL     1      -6.236   6.897  66.062  1.00  0.00    -0.039 C  
HETATM   36  C   UNL     1      -7.497   1.533  65.673  1.00  0.00    -0.060 C  
HETATM   37  C   UNL     1      -7.567   1.982  64.202  1.00  0.00    -0.060 C  
HETATM   38  C   UNL     1      -8.982   2.335  63.724  1.00  0.00    -0.092 C  
HETATM   39  N   UNL     1      -8.974   3.033  62.429  1.00  0.00    -0.081 NA 
HETATM   40  C   UNL     1      -9.036   4.515  62.449  1.00  0.00    -0.122 C  
HETATM   41  H   UNL     1      -8.928   2.518  61.549  1.00  0.00     0.000 HD 
HETATM   42  C   UNL     1      -7.820   5.341  63.001  1.00  0.00    -0.083 C  
ENDBRANCH  25  26
ENDBRANCH  23  25
ENDBRANCH   1  19
TORSDOF 4
ENDMDL
MODEL      166
REMARK 921   NORMALIZED FREE ENERGY PREDICTED BY IDOCK:    7.54 KCAL/MOL
REMARK 922        TOTAL FREE ENERGY PREDICTED BY IDOCK:    7.73 KCAL/MOL
REMARK 923 INTER-LIGAND FREE ENERGY PREDICTED BY IDOCK:    7.48 KCAL/MOL
REMARK 924 INTRA-LIGAND FREE ENERGY PREDICTED BY IDOCK:    0.24 KCAL/MOL
REMARK 927      BINDING AFFINITY PREDICTED BY RF-SCORE:    0.00 PKD
ROOT
HETATM    1  C   UNL     1      -8.129   8.179  64.865  1.00  0.00    -0.153 C  
ENDROOT
BRANCH   1   2
HETATM    2  N   UNL     1      -7.201   7.813  63.812  1.00  0.00    -0.083 NA 
HETATM    3  C   UNL     1      -7.469   6.415  63.405  1.00  0.00    -0.073 C  
HETATM    4  C   UNL     1      -8.966   6.098  63.057  1.00  0.00     0.689 C  
HETATM    5  C   UNL     1      -5.748   8.070  64.037  1.00  0.00    -0.056 C  
HETATM    6  C   UNL     1      -5.142   8.761  65.297  1.00  0.00    -0.037 C  
HETATM    7  H   UNL     1      -9.973   4.216  63.559  1.00  0.00     0.000 HD 
HETATM    8  C   UNL     1      -5.160   7.919  66.576  1.00  0.00    -0.024 C  
HETATM    9  N   UNL     1      -9.728   5.145  63.902  1.00  0.00     0.582 NA 
HETATM   10  C   UNL     1     -10.118   5.586  65.254  1.00  0.00     0.638 C  
HETATM   11  N   UNL     1      -5.576   8.691  67.758  1.00  0.00    -0.035 NA 
HETATM   12  C   UNL     1      -9.097   5.174  66.327  1.00  0.00    -0.136 C  
HETATM   13  H   UNL     1      -6.222   9.440  67.506  1.00  0.00     0.000 HD 
HETATM   14  H   UNL     1      -7.834   5.497  69.125  1.00  0.00     0.000 HD 
HETATM   15  C   UNL     1      -9.266   5.889  67.680  1.00  0.00    -0.104 C  
HETATM   16  C   UNL     1      -6.144   7.818  68.804  1.00  0.00    -0.039 C  
HETATM   17  C   UNL     1      -7.646   7.485  68.602  1.00  0.00    -0.110 C  
HETATM   18  N   UNL     1      -7.939   6.080  68.295  1.00  0.00    -0.106 NA 
ENDBRANCH   1   2
BRANCH   1  19
HETATM   19  C   UNL     1      -8.429   9.629  65.066  1.00  0.00    -0.160 A  
HETATM   20  C   UNL     1      -7.454  10.587  64.851  1.00  0.00     0.006 A  
HETATM   21  C   UNL     1      -7.529  11.733  65.600  1.00  0.00     1.131 A  
HETATM   22  C   UNL     1      -9.653   9.941  65.636  1.00  0.00    -0.320 A  
HETATM   23  C   UNL     1      -8.697  12.036  66.297  1.00  0.00    -0.027 A  
HETATM   24  C   UNL     1      -9.766  11.126  66.330  1.00  0.00    -0.235 A  
BRANCH  23  25
HETATM   25  C   UNL     1      -8.862  13.320  67.022  1.00  0.00    -0.212 C  
BRANCH  25  26
HETATM   26  N   UNL     1      -8.521  14.545  66.321  1.00  0.00     0.330 NA 
HETATM   27  C   UNL     1     -13.242  12.516  66.157  1.00  0.00     2.904 C  
HETATM   28  H   UNL     1     -11.591  11.851  65.076  1.00  0.00     0.000 HD 
HETATM   29  N   UNL     1     -12.267  12.614  65.053  1.00  0.00    -0.455 NA 
HETATM   30  C   UNL     1     -12.602  12.233  67.541  1.00  0.00     1.626 C  
HETATM   31  C   UNL     1     -11.605  13.929  65.060  1.00  0.00    -0.345 C  
HETATM   32  C   UNL     1      -9.180  14.821  65.015  1.00  0.00     1.460 C  
HETATM   33  N   UNL     1     -12.719  13.343  68.489  1.00  0.00     0.374 NA 
HETATM   34  H   UNL     1     -13.680  13.440  68.816  1.00  0.00     0.000 HD 
HETATM   35  C   UNL     1     -10.249  13.899  64.359  1.00  0.00     0.067 C  
HETATM   36  C   UNL     1     -11.788  13.238  69.623  1.00  0.00    -0.327 C  
HETATM   37  C   UNL     1     -10.940  14.521  69.699  1.00  0.00    -0.225 C  
HETATM   38  C   UNL     1      -9.481  14.281  70.111  1.00  0.00     1.541 C  
HETATM   39  N   UNL     1      -8.638  15.466  69.889  1.00  0.00    -0.268 NA 
HETATM   40  C   UNL     1      -7.861  15.527  68.627  1.00  0.00    -0.143 C  
HETATM   41  H   UNL     1      -8.589  16.218  70.576  1.00  0.00     0.000 HD 
HETATM   42  C   UNL     1      -8.607  15.692  67.256  1.00  0.00    -0.192 C  
ENDBRANCH  25  26
ENDBRANCH  23  25
ENDBRANCH   1  19
TORSDOF 4
ENDMDL
MODEL      167
REMARK 921   NORMALIZED FREE ENERGY PREDICTED BY IDOCK:    7.67 KCAL/MOL
REMARK 922        TOTAL FREE ENERGY PREDICTED BY IDOCK:    7.88 KCAL/MOL
REMARK 923 INTER-LIGAND FREE ENERGY PREDICTED BY IDOCK:    9.02 KCAL/MOL
REMARK 924 INTRA-LIGAND FREE ENERGY PREDICTED BY IDOCK:   -1.14 KCAL/MOL
REMARK 927      BINDING AFFINITY PREDICTED BY RF-SCORE:    0.00 PKD
ROOT
HETATM    1  C   UNL     1     -10.340   7.256  70.580  1.00  0.00    -0.206 C  
ENDROOT
BRANCH   1   2
HETATM    2  N   UNL     1     -11.774   7.042  70.565  1.00  0.00    -0.326 NA 
HETATM    3  C   UNL     1     -12.451   8.316  70.894  1.00  0.00     0.011 C  
HETATM    4  C   UNL     1     -11.995   9.552  70.042  1.00  0.00     0.182 C  
HETATM    5  C   UNL     1     -12.320   5.891  71.344  1.00  0.00     0.739 C  
HETATM    6  C   UNL     1     -11.464   4.854  72.133  1.00  0.00     0.306 C  
HETATM    7  H   UNL     1     -11.766  11.581  70.842  1.00  0.00     0.000 HD 
HETATM    8  C   UNL     1     -10.821   5.380  73.419  1.00  0.00    -0.297 C  
HETATM    9  N   UNL     1     -11.300  10.683  70.707  1.00  0.00    -0.230 NA 
HETATM   10  C   UNL     1      -9.915  10.467  71.165  1.00  0.00     2.043 C  
HETATM   11  N   UNL     1      -9.424   4.945  73.575  1.00  0.00    -0.132 NA 
HETATM   12  C   UNL     1      -9.843  10.020  72.634  1.00  0.00     5.924 C  
HETATM   13  H   UNL     1      -8.971   4.815  72.670  1.00  0.00     0.000 HD 
HETATM   14  H   UNL     1      -8.349   8.690  74.985  1.00  0.00     0.000 HD 
HETATM   15  C   UNL     1      -8.477   9.452  73.064  1.00  0.00     2.440 C  
HETATM   16  C   UNL     1      -8.659   5.872  74.433  1.00  0.00    -0.115 C  
HETATM   17  C   UNL     1      -8.097   7.109  73.683  1.00  0.00    -0.117 C  
HETATM   18  N   UNL     1      -8.688   8.395  74.070  1.00  0.00    -0.145 NA 
ENDBRANCH   1   2
BRANCH   1  19
HETATM   19  C   UNL     1      -9.534   6.710  69.446  1.00  0.00    -0.146 A  
HETATM   20  C   UNL     1      -8.164   6.556  69.564  1.00  0.00    -0.126 A  
HETATM   21  C   UNL     1      -7.421   6.673  68.418  1.00  0.00    -0.095 A  
HETATM   22  C   UNL     1     -10.192   6.537  68.238  1.00  0.00    -0.195 A  
HETATM   23  C   UNL     1      -8.047   6.630  67.174  1.00  0.00    -0.113 A  
HETATM   24  C   UNL     1      -9.447   6.577  67.079  1.00  0.00    -0.161 A  
BRANCH  23  25
HETATM   25  C   UNL     1      -7.270   6.634  65.909  1.00  0.00    -0.067 C  
BRANCH  25  26
HETATM   26  N   UNL     1      -5.851   6.333  65.983  1.00  0.00    -0.024 NA 
HETATM   27  C   UNL     1      -9.292   2.916  64.273  1.00  0.00    -0.133 C  
HETATM   28  H   UNL     1      -8.937   3.396  66.269  1.00  0.00     0.000 HD 
HETATM   29  N   UNL     1      -8.505   2.853  65.521  1.00  0.00    -0.099 NA 
HETATM   30  C   UNL     1      -9.744   4.348  63.884  1.00  0.00     0.001 C  
HETATM   31  C   UNL     1      -7.114   3.268  65.279  1.00  0.00    -0.062 C  
HETATM   32  C   UNL     1      -5.438   4.942  66.313  1.00  0.00    -0.017 C  
HETATM   33  N   UNL     1      -9.110   4.861  62.668  1.00  0.00    -0.273 NA 
HETATM   34  H   UNL     1      -9.476   4.389  61.842  1.00  0.00     0.000 HD 
HETATM   35  C   UNL     1      -6.428   3.764  66.550  1.00  0.00    -0.037 C  
HETATM   36  C   UNL     1      -9.220   6.322  62.528  1.00  0.00     0.892 C  
HETATM   37  C   UNL     1      -7.811   6.921  62.366  1.00  0.00    -0.118 C  
HETATM   38  C   UNL     1      -7.622   8.271  63.073  1.00  0.00    -0.123 C  
HETATM   39  N   UNL     1      -6.207   8.665  63.150  1.00  0.00    -0.086 NA 
HETATM   40  C   UNL     1      -5.475   8.352  64.401  1.00  0.00    -0.048 C  
HETATM   41  H   UNL     1      -5.746   9.137  62.372  1.00  0.00     0.000 HD 
HETATM   42  C   UNL     1      -5.170   6.859  64.775  1.00  0.00    -0.027 C  
ENDBRANCH  25  26
ENDBRANCH  23  25
ENDBRANCH   1  19
TORSDOF 4
ENDMDL
MODEL      168
REMARK 921   NORMALIZED FREE ENERGY PREDICTED BY IDOCK:    7.99 KCAL/MOL
REMARK 922        TOTAL FREE ENERGY PREDICTED BY IDOCK:    8.28 KCAL/MOL
REMARK 923 INTER-LIGAND FREE ENERGY PREDICTED BY IDOCK:    8.34 KCAL/MOL
REMARK 924 INTRA-LIGAND FREE ENERGY PREDICTED BY IDOCK:   -0.06 KCAL/MOL
REMARK 927      BINDING AFFINITY PREDICTED BY RF-SCORE:    0.00 PKD
ROOT
HETATM    1  C   UNL     1      -8.643  13.521  68.259  1.00  0.00    -0.168 C  
ENDROOT
BRANCH   1   2
HETATM    2  N   UNL     1      -7.929  14.617  68.886  1.00  0.00    -0.150 NA 
HETATM    3  C   UNL     1      -8.823  15.272  69.867  1.00  0.00     0.156 C  
HETATM    4  C   UNL     1      -9.509  14.304  70.893  1.00  0.00     3.654 C  
HETATM    5  C   UNL     1      -7.238  15.601  68.002  1.00  0.00    -0.129 C  
HETATM    6  C   UNL     1      -7.168  15.517  66.446  1.00  0.00     1.157 C  
HETATM    7  H   UNL     1     -11.569  14.531  71.611  1.00  0.00     0.000 HD 
HETATM    8  C   UNL     1      -8.478  15.829  65.717  1.00  0.00     0.700 C  
HETATM    9  N   UNL     1     -10.984  14.140  70.872  1.00  0.00     0.690 NA 
HETATM   10  C   UNL     1     -11.577  13.393  69.747  1.00  0.00    -0.235 C  
HETATM   11  N   UNL     1      -8.751  14.889  64.616  1.00  0.00     3.420 NA 
HETATM   12  C   UNL     1     -12.015  14.311  68.595  1.00  0.00    -0.348 C  
HETATM   13  H   UNL     1      -8.357  13.968  64.806  1.00  0.00     0.000 HD 
HETATM   14  H   UNL     1     -12.766  14.768  65.636  1.00  0.00     0.000 HD 
HETATM   15  C   UNL     1     -12.316  13.581  67.272  1.00  0.00    -0.133 C  
HETATM   16  C   UNL     1     -10.195  14.808  64.319  1.00  0.00     1.122 C  
HETATM   17  C   UNL     1     -10.974  13.826  65.233  1.00  0.00    -0.322 C  
HETATM   18  N   UNL     1     -11.940  14.452  66.143  1.00  0.00    -0.388 NA 
ENDBRANCH   1   2
BRANCH   1  19
HETATM   19  C   UNL     1      -8.160  12.130  68.508  1.00  0.00    -0.112 A  
HETATM   20  C   UNL     1      -7.674  11.355  67.469  1.00  0.00    -0.125 A  
HETATM   21  C   UNL     1      -7.839   9.998  67.572  1.00  0.00    -0.095 A  
HETATM   22  C   UNL     1      -8.382  11.608  69.772  1.00  0.00     1.452 A  
HETATM   23  C   UNL     1      -8.186   9.429  68.796  1.00  0.00    -0.108 A  
HETATM   24  C   UNL     1      -8.476  10.240  69.905  1.00  0.00    -0.013 A  
BRANCH  23  25
HETATM   25  C   UNL     1      -8.258   7.958  68.978  1.00  0.00    -0.126 C  
BRANCH  25  26
HETATM   26  N   UNL     1      -9.334   7.243  68.315  1.00  0.00    -0.136 NA 
HETATM   27  C   UNL     1      -5.142   4.853  70.088  1.00  0.00     0.000 C  
HETATM   28  H   UNL     1      -5.262   5.960  68.328  1.00  0.00     0.000 HD 
HETATM   29  N   UNL     1      -5.540   5.044  68.679  1.00  0.00    -0.014 NA 
HETATM   30  C   UNL     1      -5.485   6.053  71.008  1.00  0.00    -0.018 C  
HETATM   31  C   UNL     1      -6.984   4.810  68.511  1.00  0.00    -0.056 C  
HETATM   32  C   UNL     1      -8.989   6.067  67.471  1.00  0.00    -0.111 C  
HETATM   33  N   UNL     1      -6.516   5.761  72.007  1.00  0.00    -0.051 NA 
HETATM   34  H   UNL     1      -6.151   5.148  72.735  1.00  0.00     0.000 HD 
HETATM   35  C   UNL     1      -7.545   5.517  67.279  1.00  0.00    -0.089 C  
HETATM   36  C   UNL     1      -7.116   6.971  72.591  1.00  0.00    -0.069 C  
HETATM   37  C   UNL     1      -8.643   6.919  72.399  1.00  0.00    -0.128 C  
HETATM   38  C   UNL     1      -9.279   8.282  72.093  1.00  0.00    -0.222 C  
HETATM   39  N   UNL     1     -10.669   8.155  71.628  1.00  0.00    -0.230 NA 
HETATM   40  C   UNL     1     -10.905   8.156  70.163  1.00  0.00    -0.241 C  
HETATM   41  H   UNL     1     -11.443   8.070  72.287  1.00  0.00     0.000 HD 
HETATM   42  C   UNL     1     -10.410   6.949  69.291  1.00  0.00    -0.198 C  
ENDBRANCH  25  26
ENDBRANCH  23  25
ENDBRANCH   1  19
TORSDOF 4
ENDMDL
MODEL      169
REMARK 921   NORMALIZED FREE ENERGY PREDICTED BY IDOCK:    8.06 KCAL/MOL
REMARK 922        TOTAL FREE ENERGY PREDICTED BY IDOCK:    8.36 KCAL/MOL
REMARK 923 INTER-LIGAND FREE ENERGY PREDICTED BY IDOCK:    6.93 KCAL/MOL
REMARK 924 INTRA-LIGAND FREE ENERGY PREDICTED BY IDOCK:    1.43 KCAL/MOL
REMARK 927      BINDING AFFINITY PREDICTED BY RF-SCORE:    0.00 PKD
ROOT
HETATM    1  C   UNL     1      -9.247  17.278  69.010  1.00  0.00    -0.109 C  
ENDROOT
BRANCH   1   2
HETATM    2  N   UNL     1      -9.578  18.107  67.867  1.00  0.00    -0.280 NA 
HETATM    3  C   UNL     1     -10.207  19.357  68.349  1.00  0.00    -0.418 C  
HETATM    4  C   UNL     1      -9.407  20.119  69.462  1.00  0.00     0.539 C  
HETATM    5  C   UNL     1     -10.341  17.483  66.746  1.00  0.00    -0.314 C  
HETATM    6  C   UNL     1     -10.766  15.984  66.672  1.00  0.00    -0.247 C  
HETATM    7  H   UNL     1     -10.337  21.152  71.158  1.00  0.00     0.000 HD 
HETATM    8  C   UNL     1     -11.893  15.577  67.625  1.00  0.00     0.087 C  
HETATM    9  N   UNL     1      -9.989  20.254  70.821  1.00  0.00     1.159 NA 
HETATM   10  C   UNL     1     -10.049  19.047  71.667  1.00  0.00     3.702 C  
HETATM   11  N   UNL     1     -11.635  14.290  68.291  1.00  0.00    -0.305 NA 
HETATM   12  C   UNL     1     -11.392  18.310  71.547  1.00  0.00     4.085 C  
HETATM   13  H   UNL     1     -10.636  14.129  68.417  1.00  0.00     0.000 HD 
HETATM   14  H   UNL     1     -13.122  15.773  71.864  1.00  0.00     0.000 HD 
HETATM   15  C   UNL     1     -11.392  16.882  72.125  1.00  0.00     0.699 C  
HETATM   16  C   UNL     1     -12.364  14.187  69.571  1.00  0.00    -0.231 C  
HETATM   17  C   UNL     1     -11.634  14.852  70.769  1.00  0.00    -0.296 C  
HETATM   18  N   UNL     1     -12.298  16.036  71.324  1.00  0.00    -0.402 NA 
ENDBRANCH   1   2
BRANCH   1  19
HETATM   19  C   UNL     1      -8.630  15.941  68.756  1.00  0.00    -0.212 A  
HETATM   20  C   UNL     1      -7.997  15.673  67.555  1.00  0.00    -0.184 A  
HETATM   21  C   UNL     1      -8.018  14.375  67.114  1.00  0.00    -0.147 A  
HETATM   22  C   UNL     1      -8.875  14.952  69.695  1.00  0.00     0.106 A  
HETATM   23  C   UNL     1      -8.378  13.348  67.985  1.00  0.00    -0.165 A  
HETATM   24  C   UNL     1      -8.826  13.637  69.284  1.00  0.00     0.664 A  
BRANCH  23  25
HETATM   25  C   UNL     1      -8.300  11.922  67.583  1.00  0.00    -0.152 C  
BRANCH  25  26
HETATM   26  N   UNL     1      -8.493  10.915  68.611  1.00  0.00    -0.146 NA 
HETATM   27  C   UNL     1     -11.281  10.990  64.292  1.00  0.00     0.200 C  
HETATM   28  H   UNL     1     -11.558  12.228  65.944  1.00  0.00     0.000 HD 
HETATM   29  N   UNL     1     -11.745  11.264  65.667  1.00  0.00     0.079 NA 
HETATM   30  C   UNL     1      -9.849  11.505  63.995  1.00  0.00    -0.274 C  
HETATM   31  C   UNL     1     -11.160  10.301  66.614  1.00  0.00     0.159 C  
HETATM   32  C   UNL     1      -9.868  10.401  68.850  1.00  0.00    -0.200 C  
HETATM   33  N   UNL     1      -8.869  10.440  63.773  1.00  0.00    -0.197 NA 
HETATM   34  H   UNL     1      -9.024   9.986  62.874  1.00  0.00     0.000 HD 
HETATM   35  C   UNL     1     -11.124  10.841  68.042  1.00  0.00    -0.359 C  
HETATM   36  C   UNL     1      -7.476  10.899  63.894  1.00  0.00     0.526 C  
HETATM   37  C   UNL     1      -6.750  10.036  64.943  1.00  0.00    -0.126 C  
HETATM   38  C   UNL     1      -5.753  10.817  65.811  1.00  0.00    -0.144 C  
HETATM   39  N   UNL     1      -5.305  10.041  66.978  1.00  0.00    -0.041 NA 
HETATM   40  C   UNL     1      -6.005  10.273  68.265  1.00  0.00    -0.041 C  
HETATM   41  H   UNL     1      -4.541   9.369  66.906  1.00  0.00     0.000 HD 
HETATM   42  C   UNL     1      -7.501   9.828  68.432  1.00  0.00    -0.083 C  
ENDBRANCH  25  26
ENDBRANCH  23  25
ENDBRANCH   1  19
TORSDOF 4
ENDMDL
MODEL      170
REMARK 921   NORMALIZED FREE ENERGY PREDICTED BY IDOCK:    8.22 KCAL/MOL
REMARK 922        TOTAL FREE ENERGY PREDICTED BY IDOCK:    8.56 KCAL/MOL
REMARK 923 INTER-LIGAND FREE ENERGY PREDICTED BY IDOCK:    4.87 KCAL/MOL
REMARK 924 INTRA-LIGAND FREE ENERGY PREDICTED BY IDOCK:    3.69 KCAL/MOL
REMARK 927      BINDING AFFINITY PREDICTED BY RF-SCORE:    0.00 PKD
ROOT
HETATM    1  C   UNL     1      -9.672  11.744  68.444  1.00  0.00    -0.197 C  
ENDROOT
BRANCH   1   2
HETATM    2  N   UNL     1      -9.257  12.766  69.386  1.00  0.00     1.022 NA 
HETATM    3  C   UNL     1     -10.202  13.902  69.306  1.00  0.00     0.140 C  
HETATM    4  C   UNL     1     -11.718  13.518  69.428  1.00  0.00    -0.325 C  
HETATM    5  C   UNL     1      -7.832  13.209  69.357  1.00  0.00     0.697 C  
HETATM    6  C   UNL     1      -6.725  12.618  68.430  1.00  0.00    -0.082 C  
HETATM    7  H   UNL     1     -13.326  14.472  68.281  1.00  0.00     0.000 HD 
HETATM    8  C   UNL     1      -6.841  12.999  66.952  1.00  0.00     0.635 C  
HETATM    9  N   UNL     1     -12.623  13.731  68.271  1.00  0.00     0.343 NA 
HETATM   10  C   UNL     1     -12.474  12.838  67.107  1.00  0.00     0.593 C  
HETATM   11  N   UNL     1      -6.602  11.858  66.053  1.00  0.00    -0.052 NA 
HETATM   12  C   UNL     1     -11.540  13.420  66.034  1.00  0.00    -0.375 C  
HETATM   13  H   UNL     1      -6.883  10.977  66.485  1.00  0.00     0.000 HD 
HETATM   14  H   UNL     1      -9.696  13.081  63.582  1.00  0.00     0.000 HD 
HETATM   15  C   UNL     1     -11.075  12.406  64.972  1.00  0.00    -0.304 C  
HETATM   16  C   UNL     1      -7.260  12.051  64.745  1.00  0.00     3.990 C  
HETATM   17  C   UNL     1      -8.757  11.641  64.724  1.00  0.00     0.588 C  
HETATM   18  N   UNL     1      -9.705  12.747  64.545  1.00  0.00     0.017 NA 
ENDBRANCH   1   2
BRANCH   1  19
HETATM   19  C   UNL     1      -8.892  10.471  68.396  1.00  0.00    -0.140 A  
HETATM   20  C   UNL     1      -9.458   9.316  67.886  1.00  0.00    -0.154 A  
HETATM   21  C   UNL     1      -9.019   8.124  68.403  1.00  0.00    -0.136 A  
HETATM   22  C   UNL     1      -7.662  10.467  69.035  1.00  0.00    -0.116 A  
HETATM   23  C   UNL     1      -7.851   8.081  69.161  1.00  0.00    -0.108 A  
HETATM   24  C   UNL     1      -7.172   9.264  69.495  1.00  0.00    -0.061 A  
BRANCH  23  25
HETATM   25  C   UNL     1      -7.278   6.798  69.639  1.00  0.00    -0.081 C  
BRANCH  25  26
HETATM   26  N   UNL     1      -6.443   6.827  70.826  1.00  0.00    -0.050 NA 
HETATM   27  C   UNL     1     -11.571   7.111  71.075  1.00  0.00    -0.309 C  
HETATM   28  H   UNL     1     -10.287   8.668  70.560  1.00  0.00     0.000 HD 
HETATM   29  N   UNL     1     -10.595   8.171  71.396  1.00  0.00    -0.215 NA 
HETATM   30  C   UNL     1     -11.157   6.214  69.880  1.00  0.00    -0.410 C  
HETATM   31  C   UNL     1      -9.459   7.620  72.152  1.00  0.00    -0.155 C  
HETATM   32  C   UNL     1      -6.880   7.659  71.980  1.00  0.00    -0.063 C  
HETATM   33  N   UNL     1     -10.854   4.830  70.252  1.00  0.00     0.421 NA 
HETATM   34  H   UNL     1     -11.706   4.325  70.495  1.00  0.00     0.000 HD 
HETATM   35  C   UNL     1      -8.203   8.479  72.020  1.00  0.00    -0.192 C  
HETATM   36  C   UNL     1     -10.091   4.106  69.223  1.00  0.00     0.229 C  
HETATM   37  C   UNL     1      -8.801   3.547  69.851  1.00  0.00    -0.150 C  
HETATM   38  C   UNL     1      -7.581   3.598  68.920  1.00  0.00    -0.053 C  
HETATM   39  N   UNL     1      -6.323   3.340  69.636  1.00  0.00    -0.028 NA 
HETATM   40  C   UNL     1      -5.537   4.515  70.086  1.00  0.00    -0.012 C  
HETATM   41  H   UNL     1      -6.002   2.389  69.818  1.00  0.00     0.000 HD 
HETATM   42  C   UNL     1      -6.096   5.442  71.222  1.00  0.00    -0.032 C  
ENDBRANCH  25  26
ENDBRANCH  23  25
ENDBRANCH   1  19
TORSDOF 4
ENDMDL
MODEL      171
REMARK 921   NORMALIZED FREE ENERGY PREDICTED BY IDOCK:    8.53 KCAL/MOL
REMARK 922        TOTAL FREE ENERGY PREDICTED BY IDOCK:    8.94 KCAL/MOL
REMARK 923 INTER-LIGAND FREE ENERGY PREDICTED BY IDOCK:    4.75 KCAL/MOL
REMARK 924 INTRA-LIGAND FREE ENERGY PREDICTED BY IDOCK:    4.19 KCAL/MOL
REMARK 927      BINDING AFFINITY PREDICTED BY RF-SCORE:    0.00 PKD
ROOT
HETATM    1  C   UNL     1      -9.241   5.366  67.556  1.00  0.00    -0.112 C  
ENDROOT
BRANCH   1   2
HETATM    2  N   UNL     1     -10.329   4.782  68.317  1.00  0.00     0.023 NA 
HETATM    3  C   UNL     1     -10.004   4.866  69.758  1.00  0.00    -0.244 C  
HETATM    4  C   UNL     1      -9.581   6.290  70.264  1.00  0.00    -0.164 C  
HETATM    5  C   UNL     1     -10.813   3.427  67.922  1.00  0.00     4.300 C  
HETATM    6  C   UNL     1     -10.281   2.600  66.711  1.00  0.00     1.862 C  
HETATM    7  H   UNL     1      -8.018   6.650  71.760  1.00  0.00     0.000 HD 
HETATM    8  C   UNL     1      -8.878   2.014  66.886  1.00  0.00    -0.128 C  
HETATM    9  N   UNL     1      -8.201   6.509  70.766  1.00  0.00    -0.123 NA 
HETATM   10  C   UNL     1      -7.104   6.515  69.780  1.00  0.00    -0.072 C  
HETATM   11  N   UNL     1      -8.044   2.171  65.683  1.00  0.00    -0.082 NA 
HETATM   12  C   UNL     1      -6.449   5.134  69.620  1.00  0.00    -0.038 C  
HETATM   13  H   UNL     1      -8.300   3.007  65.158  1.00  0.00     0.000 HD 
HETATM   14  H   UNL     1      -4.751   3.116  68.014  1.00  0.00     0.000 HD 
HETATM   15  C   UNL     1      -5.547   4.993  68.379  1.00  0.00    -0.016 C  
HETATM   16  C   UNL     1      -6.605   2.161  66.015  1.00  0.00    -0.027 C  
HETATM   17  C   UNL     1      -6.053   3.539  66.469  1.00  0.00    -0.024 C  
HETATM   18  N   UNL     1      -5.631   3.610  67.873  1.00  0.00    -0.020 NA 
ENDBRANCH   1   2
BRANCH   1  19
HETATM   19  C   UNL     1      -8.983   6.830  67.704  1.00  0.00    -0.115 A  
HETATM   20  C   UNL     1     -10.035   7.722  67.824  1.00  0.00    -0.220 A  
HETATM   21  C   UNL     1      -9.837   8.989  67.339  1.00  0.00    -0.244 A  
HETATM   22  C   UNL     1      -7.674   7.254  67.542  1.00  0.00    -0.111 A  
HETATM   23  C   UNL     1      -8.549   9.428  67.040  1.00  0.00    -0.131 A  
HETATM   24  C   UNL     1      -7.456   8.550  67.126  1.00  0.00    -0.085 A  
BRANCH  23  25
HETATM   25  C   UNL     1      -8.278  10.827  66.626  1.00  0.00    -0.140 C  
BRANCH  25  26
HETATM   26  N   UNL     1      -7.419  11.633  67.475  1.00  0.00    -0.115 NA 
HETATM   27  C   UNL     1      -6.385  10.833  62.503  1.00  0.00    -0.067 C  
HETATM   28  H   UNL     1      -6.055   9.478  64.050  1.00  0.00     0.000 HD 
HETATM   29  N   UNL     1      -5.636  10.326  63.670  1.00  0.00    -0.129 NA 
HETATM   30  C   UNL     1      -7.921  10.884  62.713  1.00  0.00     0.004 C  
HETATM   31  C   UNL     1      -5.500  11.374  64.695  1.00  0.00     1.243 C  
HETATM   32  C   UNL     1      -5.951  11.605  67.229  1.00  0.00    -0.112 C  
HETATM   33  N   UNL     1      -8.470  12.241  62.754  1.00  0.00     0.866 NA 
HETATM   34  H   UNL     1      -8.459  12.664  61.826  1.00  0.00     0.000 HD 
HETATM   35  C   UNL     1      -5.267  10.795  66.088  1.00  0.00    -0.098 C  
HETATM   36  C   UNL     1      -9.817  12.304  63.343  1.00  0.00    -0.034 C  
HETATM   37  C   UNL     1      -9.809  13.303  64.514  1.00  0.00     0.048 C  
HETATM   38  C   UNL     1     -10.684  12.878  65.702  1.00  0.00    -0.274 C  
HETATM   39  N   UNL     1     -10.425  13.688  66.902  1.00  0.00    -0.270 NA 
HETATM   40  C   UNL     1      -9.481  13.142  67.908  1.00  0.00    -0.218 C  
HETATM   41  H   UNL     1     -10.877  14.593  67.038  1.00  0.00     0.000 HD 
HETATM   42  C   UNL     1      -7.956  13.012  67.559  1.00  0.00    -0.177 C  
ENDBRANCH  25  26
ENDBRANCH  23  25
ENDBRANCH   1  19
TORSDOF 4
ENDMDL
MODEL      172
REMARK 921   NORMALIZED FREE ENERGY PREDICTED BY IDOCK:    8.74 KCAL/MOL
REMARK 922        TOTAL FREE ENERGY PREDICTED BY IDOCK:    9.21 KCAL/MOL
REMARK 923 INTER-LIGAND FREE ENERGY PREDICTED BY IDOCK:    7.28 KCAL/MOL
REMARK 924 INTRA-LIGAND FREE ENERGY PREDICTED BY IDOCK:    1.93 KCAL/MOL
REMARK 927      BINDING AFFINITY PREDICTED BY RF-SCORE:    0.00 PKD
ROOT
HETATM    1  C   UNL     1     -11.525   9.701  71.071  1.00  0.00    -0.371 C  
ENDROOT
BRANCH   1   2
HETATM    2  N   UNL     1     -12.680   9.158  71.760  1.00  0.00    -0.347 NA 
HETATM    3  C   UNL     1     -13.403   8.252  70.838  1.00  0.00     0.293 C  
HETATM    4  C   UNL     1     -12.516   7.159  70.147  1.00  0.00     0.399 C  
HETATM    5  C   UNL     1     -13.595  10.111  72.454  1.00  0.00    -0.008 C  
HETATM    6  C   UNL     1     -13.380  11.652  72.554  1.00  0.00     0.495 C  
HETATM    7  H   UNL     1     -12.773   6.499  68.071  1.00  0.00     0.000 HD 
HETATM    8  C   UNL     1     -13.609  12.428  71.254  1.00  0.00     0.629 C  
HETATM    9  N   UNL     1     -12.329   7.192  68.675  1.00  0.00     2.562 NA 
HETATM   10  C   UNL     1     -11.480   8.259  68.113  1.00  0.00     1.282 C  
HETATM   11  N   UNL     1     -12.575  13.449  71.014  1.00  0.00    -0.361 NA 
HETATM   12  C   UNL     1     -12.290   9.492  67.683  1.00  0.00     5.668 C  
HETATM   13  H   UNL     1     -11.679  13.174  71.416  1.00  0.00     0.000 HD 
HETATM   14  H   UNL     1     -12.482  12.493  66.982  1.00  0.00     0.000 HD 
HETATM   15  C   UNL     1     -11.445  10.753  67.418  1.00  0.00    -0.028 C  
HETATM   16  C   UNL     1     -12.447  13.764  69.576  1.00  0.00    -0.076 C  
HETATM   17  C   UNL     1     -11.535  12.782  68.794  1.00  0.00    -0.304 C  
HETATM   18  N   UNL     1     -12.222  11.946  67.803  1.00  0.00    -0.400 NA 
ENDBRANCH   1   2
BRANCH   1  19
HETATM   19  C   UNL     1     -10.312   8.839  70.941  1.00  0.00    -0.281 A  
HETATM   20  C   UNL     1      -9.257   9.223  70.132  1.00  0.00    -0.254 A  
HETATM   21  C   UNL     1      -8.517   8.223  69.554  1.00  0.00    -0.125 A  
HETATM   22  C   UNL     1     -10.373   7.582  71.522  1.00  0.00    -0.216 A  
HETATM   23  C   UNL     1      -8.632   6.914  70.017  1.00  0.00    -0.141 A  
HETATM   24  C   UNL     1      -9.579   6.584  71.000  1.00  0.00    -0.185 A  
BRANCH  23  25
HETATM   25  C   UNL     1      -7.765   5.826  69.501  1.00  0.00    -0.092 C  
BRANCH  25  26
HETATM   26  N   UNL     1      -6.430   5.698  70.057  1.00  0.00    -0.033 NA 
HETATM   27  C   UNL     1      -9.144   1.623  68.491  1.00  0.00    -0.141 C  
HETATM   28  H   UNL     1      -9.414   2.653  70.281  1.00  0.00     0.000 HD 
HETATM   29  N   UNL     1      -8.769   1.976  69.875  1.00  0.00    -0.053 NA 
HETATM   30  C   UNL     1      -9.480   2.846  67.598  1.00  0.00    -0.119 C  
HETATM   31  C   UNL     1      -7.376   2.447  69.930  1.00  0.00    -0.043 C  
HETATM   32  C   UNL     1      -6.114   4.496  70.875  1.00  0.00    -0.018 C  
HETATM   33  N   UNL     1      -8.517   3.075  66.518  1.00  0.00    -0.101 NA 
HETATM   34  H   UNL     1      -8.610   2.364  65.793  1.00  0.00     0.000 HD 
HETATM   35  C   UNL     1      -7.112   3.332  71.147  1.00  0.00    -0.033 C  
HETATM   36  C   UNL     1      -8.602   4.426  65.941  1.00  0.00    -0.114 C  
HETATM   37  C   UNL     1      -7.219   5.097  66.022  1.00  0.00    -0.073 C  
HETATM   38  C   UNL     1      -7.272   6.598  66.338  1.00  0.00    -0.072 C  
HETATM   39  N   UNL     1      -5.952   7.138  66.697  1.00  0.00    -0.033 NA 
HETATM   40  C   UNL     1      -5.625   7.246  68.140  1.00  0.00    -0.022 C  
HETATM   41  H   UNL     1      -5.285   7.427  65.981  1.00  0.00     0.000 HD 
HETATM   42  C   UNL     1      -5.425   5.946  68.996  1.00  0.00    -0.004 C  
ENDBRANCH  25  26
ENDBRANCH  23  25
ENDBRANCH   1  19
TORSDOF 4
ENDMDL
MODEL      173
REMARK 921   NORMALIZED FREE ENERGY PREDICTED BY IDOCK:    8.80 KCAL/MOL
REMARK 922        TOTAL FREE ENERGY PREDICTED BY IDOCK:    9.28 KCAL/MOL
REMARK 923 INTER-LIGAND FREE ENERGY PREDICTED BY IDOCK:    2.29 KCAL/MOL
REMARK 924 INTRA-LIGAND FREE ENERGY PREDICTED BY IDOCK:    6.99 KCAL/MOL
REMARK 927      BINDING AFFINITY PREDICTED BY RF-SCORE:    0.00 PKD
ROOT
HETATM    1  C   UNL     1      -8.374  15.897  67.060  1.00  0.00    -0.223 C  
ENDROOT
BRANCH   1   2
HETATM    2  N   UNL     1      -7.158  16.538  67.521  1.00  0.00    -0.132 NA 
HETATM    3  C   UNL     1      -7.114  16.473  68.999  1.00  0.00    -0.213 C  
HETATM    4  C   UNL     1      -7.339  15.045  69.610  1.00  0.00    -0.181 C  
HETATM    5  C   UNL     1      -6.844  17.902  67.003  1.00  0.00    -0.177 C  
HETATM    6  C   UNL     1      -7.692  18.682  65.952  1.00  0.00    -0.143 C  
HETATM    7  H   UNL     1      -8.468  14.658  71.449  1.00  0.00     0.000 HD 
HETATM    8  C   UNL     1      -9.032  19.217  66.461  1.00  0.00    -0.346 C  
HETATM    9  N   UNL     1      -8.542  14.785  70.440  1.00  0.00     1.068 NA 
HETATM   10  C   UNL     1      -9.847  14.716  69.756  1.00  0.00     0.281 C  
HETATM   11  N   UNL     1     -10.129  19.003  65.503  1.00  0.00    -0.301 NA 
HETATM   12  C   UNL     1     -10.579  16.067  69.746  1.00  0.00    -0.323 C  
HETATM   13  H   UNL     1      -9.975  18.166  64.941  1.00  0.00     0.000 HD 
HETATM   14  H   UNL     1     -12.704  17.983  68.586  1.00  0.00     0.000 HD 
HETATM   15  C   UNL     1     -11.764  16.146  68.764  1.00  0.00    -0.231 C  
HETATM   16  C   UNL     1     -11.441  18.965  66.180  1.00  0.00     1.364 C  
HETATM   17  C   UNL     1     -11.805  17.577  66.773  1.00  0.00     2.475 C  
HETATM   18  N   UNL     1     -11.865  17.520  68.237  1.00  0.00     1.273 NA 
ENDBRANCH   1   2
BRANCH   1  19
HETATM   19  C   UNL     1      -8.461  14.408  67.143  1.00  0.00    -0.229 A  
HETATM   20  C   UNL     1      -9.574  13.796  67.692  1.00  0.00    -0.219 A  
HETATM   21  C   UNL     1      -9.382  12.587  68.310  1.00  0.00    -0.193 A  
HETATM   22  C   UNL     1      -7.320  13.696  66.810  1.00  0.00     0.955 A  
HETATM   23  C   UNL     1      -8.197  11.882  68.108  1.00  0.00    -0.158 A  
HETATM   24  C   UNL     1      -7.147  12.446  67.365  1.00  0.00    -0.152 A  
BRANCH  23  25
HETATM   25  C   UNL     1      -7.996  10.520  68.662  1.00  0.00    -0.124 C  
BRANCH  25  26
HETATM   26  N   UNL     1      -6.873  10.309  69.557  1.00  0.00    -0.071 NA 
HETATM   27  C   UNL     1     -10.626   6.839  69.006  1.00  0.00    -0.230 C  
HETATM   28  H   UNL     1     -10.740   8.591  70.127  1.00  0.00     0.000 HD 
HETATM   29  N   UNL     1     -10.328   7.661  70.196  1.00  0.00    -0.212 NA 
HETATM   30  C   UNL     1     -10.394   7.573  67.660  1.00  0.00    -0.229 C  
HETATM   31  C   UNL     1      -8.877   7.722  70.435  1.00  0.00    -0.146 C  
HETATM   32  C   UNL     1      -7.106   9.564  70.824  1.00  0.00    -0.097 C  
HETATM   33  N   UNL     1      -9.285   7.032  66.872  1.00  0.00    -0.144 NA 
HETATM   34  H   UNL     1      -9.529   6.124  66.476  1.00  0.00     0.000 HD 
HETATM   35  C   UNL     1      -8.475   8.953  71.244  1.00  0.00    -0.239 C  
HETATM   36  C   UNL     1      -8.816   7.951  65.823  1.00  0.00    -0.119 C  
HETATM   37  C   UNL     1      -7.307   8.197  66.005  1.00  0.00    -0.076 C  
HETATM   38  C   UNL     1      -6.868   9.636  65.697  1.00  0.00    -0.091 C  
HETATM   39  N   UNL     1      -5.498   9.911  66.160  1.00  0.00    -0.050 NA 
HETATM   40  C   UNL     1      -5.340  10.563  67.482  1.00  0.00    -0.040 C  
HETATM   41  H   UNL     1      -4.688   9.662  65.592  1.00  0.00     0.000 HD 
HETATM   42  C   UNL     1      -5.719   9.782  68.790  1.00  0.00    -0.035 C  
ENDBRANCH  25  26
ENDBRANCH  23  25
ENDBRANCH   1  19
TORSDOF 4
ENDMDL
MODEL      174
REMARK 921   NORMALIZED FREE ENERGY PREDICTED BY IDOCK:    9.10 KCAL/MOL
REMARK 922        TOTAL FREE ENERGY PREDICTED BY IDOCK:    9.65 KCAL/MOL
REMARK 923 INTER-LIGAND FREE ENERGY PREDICTED BY IDOCK:   -1.11 KCAL/MOL
REMARK 924 INTRA-LIGAND FREE ENERGY PREDICTED BY IDOCK:   10.76 KCAL/MOL
REMARK 927      BINDING AFFINITY PREDICTED BY RF-SCORE:    0.00 PKD
ROOT
HETATM    1  C   UNL     1      -6.884  11.564  70.144  1.00  0.00     0.388 C  
ENDROOT
BRANCH   1   2
HETATM    2  N   UNL     1      -5.533  11.687  69.633  1.00  0.00    -0.064 NA 
HETATM    3  C   UNL     1      -5.196  13.124  69.516  1.00  0.00    -0.077 C  
HETATM    4  C   UNL     1      -5.456  13.977  70.807  1.00  0.00    -0.159 C  
HETATM    5  C   UNL     1      -5.174  10.918  68.405  1.00  0.00    -0.040 C  
HETATM    6  C   UNL     1      -6.122   9.936  67.651  1.00  0.00    -0.054 C  
HETATM    7  H   UNL     1      -6.223  16.031  70.791  1.00  0.00     0.000 HD 
HETATM    8  C   UNL     1      -7.258  10.598  66.867  1.00  0.00    -0.110 C  
HETATM    9  N   UNL     1      -6.486  15.045  70.783  1.00  0.00     0.111 NA 
HETATM   10  C   UNL     1      -7.902  14.635  70.749  1.00  0.00     1.908 C  
HETATM   11  N   UNL     1      -8.546   9.905  67.039  1.00  0.00    -0.128 NA 
HETATM   12  C   UNL     1      -8.458  14.555  69.318  1.00  0.00     0.099 C  
HETATM   13  H   UNL     1      -8.609   9.458  67.954  1.00  0.00     0.000 HD 
HETATM   14  H   UNL     1     -10.536  13.532  67.277  1.00  0.00     0.000 HD 
HETATM   15  C   UNL     1      -9.801  13.811  69.194  1.00  0.00     0.234 C  
HETATM   16  C   UNL     1      -9.686  10.812  66.802  1.00  0.00    -0.187 C  
HETATM   17  C   UNL     1     -10.081  11.667  68.035  1.00  0.00    -0.189 C  
HETATM   18  N   UNL     1      -9.846  13.108  67.897  1.00  0.00    -0.224 NA 
ENDBRANCH   1   2
BRANCH   1  19
HETATM   19  C   UNL     1      -7.396  10.196  70.459  1.00  0.00     0.097 A  
HETATM   20  C   UNL     1      -8.658   9.803  70.047  1.00  0.00    -0.229 A  
HETATM   21  C   UNL     1      -9.313   8.887  70.829  1.00  0.00    -0.280 A  
HETATM   22  C   UNL     1      -6.629   9.423  71.316  1.00  0.00    -0.023 A  
HETATM   23  C   UNL     1      -8.613   8.167  71.795  1.00  0.00    -0.191 A  
HETATM   24  C   UNL     1      -7.261   8.447  72.055  1.00  0.00    -0.114 A  
BRANCH  23  25
HETATM   25  C   UNL     1      -9.257   7.085  72.580  1.00  0.00    -0.134 C  
BRANCH  25  26
HETATM   26  N   UNL     1     -10.548   6.596  72.130  1.00  0.00    -0.209 NA 
HETATM   27  C   UNL     1      -6.436   6.709  69.047  1.00  0.00    -0.040 C  
HETATM   28  H   UNL     1      -7.624   8.342  69.556  1.00  0.00     0.000 HD 
HETATM   29  N   UNL     1      -7.660   7.527  68.943  1.00  0.00    -0.103 NA 
HETATM   30  C   UNL     1      -5.985   6.429  70.504  1.00  0.00    -0.023 C  
HETATM   31  C   UNL     1      -8.856   6.707  69.197  1.00  0.00    -0.129 C  
HETATM   32  C   UNL     1     -10.943   6.835  70.716  1.00  0.00    -0.262 C  
HETATM   33  N   UNL     1      -6.099   5.025  70.902  1.00  0.00    -0.018 NA 
HETATM   34  H   UNL     1      -5.386   4.459  70.443  1.00  0.00     0.000 HD 
HETATM   35  C   UNL     1     -10.045   7.546  69.661  1.00  0.00    -0.189 C  
HETATM   36  C   UNL     1      -6.063   4.830  72.360  1.00  0.00    -0.021 C  
HETATM   37  C   UNL     1      -7.323   4.061  72.798  1.00  0.00    -0.071 C  
HETATM   38  C   UNL     1      -7.901   4.523  74.143  1.00  0.00    -0.096 C  
HETATM   39  N   UNL     1      -9.248   3.984  74.385  1.00  0.00    -0.101 NA 
HETATM   40  C   UNL     1     -10.403   4.848  74.039  1.00  0.00    -0.255 C  
HETATM   41  H   UNL     1      -9.383   3.052  74.776  1.00  0.00     0.000 HD 
HETATM   42  C   UNL     1     -10.710   5.179  72.536  1.00  0.00    -0.229 C  
ENDBRANCH  25  26
ENDBRANCH  23  25
ENDBRANCH   1  19
TORSDOF 4
ENDMDL
MODEL      175
REMARK 921   NORMALIZED FREE ENERGY PREDICTED BY IDOCK:    9.75 KCAL/MOL
REMARK 922        TOTAL FREE ENERGY PREDICTED BY IDOCK:   10.46 KCAL/MOL
REMARK 923 INTER-LIGAND FREE ENERGY PREDICTED BY IDOCK:   11.08 KCAL/MOL
REMARK 924 INTRA-LIGAND FREE ENERGY PREDICTED BY IDOCK:   -0.62 KCAL/MOL
REMARK 927      BINDING AFFINITY PREDICTED BY RF-SCORE:    0.00 PKD
ROOT
HETATM    1  C   UNL     1      -8.039   7.722  68.563  1.00  0.00    -0.123 C  
ENDROOT
BRANCH   1   2
HETATM    2  N   UNL     1      -7.900   7.228  69.920  1.00  0.00    -0.110 NA 
HETATM    3  C   UNL     1      -6.954   6.089  69.919  1.00  0.00    -0.070 C  
HETATM    4  C   UNL     1      -5.582   6.363  69.210  1.00  0.00    -0.013 C  
HETATM    5  C   UNL     1      -9.144   6.932  70.690  1.00  0.00    -0.155 C  
HETATM    6  C   UNL     1     -10.597   7.167  70.175  1.00  0.00    -0.247 C  
HETATM    7  H   UNL     1      -4.509   4.888  67.991  1.00  0.00     0.000 HD 
HETATM    8  C   UNL     1     -11.072   6.194  69.094  1.00  0.00    -0.378 C  
HETATM    9  N   UNL     1      -5.230   5.611  67.980  1.00  0.00    -0.004 NA 
HETATM   10  C   UNL     1      -5.956   5.942  66.739  1.00  0.00    -0.018 C  
HETATM   11  N   UNL     1     -11.795   6.867  68.002  1.00  0.00     0.260 NA 
HETATM   12  C   UNL     1      -7.182   5.042  66.516  1.00  0.00    -0.077 C  
HETATM   13  H   UNL     1     -11.461   7.821  67.867  1.00  0.00     0.000 HD 
HETATM   14  H   UNL     1      -9.913   4.471  65.194  1.00  0.00     0.000 HD 
HETATM   15  C   UNL     1      -8.163   5.552  65.443  1.00  0.00    -0.133 C  
HETATM   16  C   UNL     1     -11.732   6.090  66.748  1.00  0.00     1.338 C  
HETATM   17  C   UNL     1     -10.440   6.329  65.922  1.00  0.00     0.770 C  
HETATM   18  N   UNL     1      -9.537   5.177  65.827  1.00  0.00    -0.149 NA 
ENDBRANCH   1   2
BRANCH   1  19
HETATM   19  C   UNL     1      -8.402   9.158  68.370  1.00  0.00    -0.120 A  
HETATM   20  C   UNL     1      -7.427  10.141  68.397  1.00  0.00    -0.086 A  
HETATM   21  C   UNL     1      -7.804  11.382  68.839  1.00  0.00    -0.096 A  
HETATM   22  C   UNL     1      -9.753   9.463  68.341  1.00  0.00    -0.163 A  
HETATM   23  C   UNL     1      -9.156  11.703  68.948  1.00  0.00     0.060 A  
HETATM   24  C   UNL     1     -10.143  10.732  68.712  1.00  0.00    -0.202 A  
BRANCH  23  25
HETATM   25  C   UNL     1      -9.606  13.070  69.309  1.00  0.00     0.788 C  
BRANCH  25  26
HETATM   26  N   UNL     1      -8.622  14.138  69.286  1.00  0.00     0.232 NA 
HETATM   27  C   UNL     1     -12.393  13.812  65.807  1.00  0.00    -0.486 C  
HETATM   28  H   UNL     1     -10.647  12.677  65.823  1.00  0.00     0.000 HD 
HETATM   29  N   UNL     1     -10.946  13.622  65.585  1.00  0.00    -0.288 NA 
HETATM   30  C   UNL     1     -12.897  13.276  67.172  1.00  0.00     1.288 C  
HETATM   31  C   UNL     1     -10.171  14.639  66.314  1.00  0.00    -0.292 C  
HETATM   32  C   UNL     1      -8.184  14.670  67.967  1.00  0.00    -0.145 C  
HETATM   33  N   UNL     1     -13.346  14.323  68.093  1.00  0.00     2.446 NA 
HETATM   34  H   UNL     1     -14.231  14.723  67.783  1.00  0.00     0.000 HD 
HETATM   35  C   UNL     1      -8.740  14.185  66.596  1.00  0.00    -0.073 C  
HETATM   36  C   UNL     1     -13.436  13.868  69.489  1.00  0.00     2.476 C  
HETATM   37  C   UNL     1     -12.579  14.790  70.376  1.00  0.00    -0.399 C  
HETATM   38  C   UNL     1     -11.847  14.059  71.511  1.00  0.00     0.234 C  
HETATM   39  N   UNL     1     -10.821  14.902  72.145  1.00  0.00     0.049 NA 
HETATM   40  C   UNL     1      -9.423  14.750  71.674  1.00  0.00     4.172 C  
HETATM   41  H   UNL     1     -11.062  15.567  72.880  1.00  0.00     0.000 HD 
HETATM   42  C   UNL     1      -9.031  15.210  70.225  1.00  0.00     0.790 C  
ENDBRANCH  25  26
ENDBRANCH  23  25
ENDBRANCH   1  19
TORSDOF 4
ENDMDL
MODEL      176
REMARK 921   NORMALIZED FREE ENERGY PREDICTED BY IDOCK:   10.25 KCAL/MOL
REMARK 922        TOTAL FREE ENERGY PREDICTED BY IDOCK:   11.06 KCAL/MOL
REMARK 923 INTER-LIGAND FREE ENERGY PREDICTED BY IDOCK:   11.29 KCAL/MOL
REMARK 924 INTRA-LIGAND FREE ENERGY PREDICTED BY IDOCK:   -0.22 KCAL/MOL
REMARK 927      BINDING AFFINITY PREDICTED BY RF-SCORE:    0.00 PKD
ROOT
HETATM    1  C   UNL     1      -9.663  11.288  66.441  1.00  0.00    -0.209 C  
ENDROOT
BRANCH   1   2
HETATM    2  N   UNL     1      -9.157  12.647  66.427  1.00  0.00    -0.164 NA 
HETATM    3  C   UNL     1      -9.225  13.168  65.043  1.00  0.00     0.943 C  
HETATM    4  C   UNL     1     -10.618  13.013  64.340  1.00  0.00    -0.409 C  
HETATM    5  C   UNL     1      -7.836  12.911  67.070  1.00  0.00     0.004 C  
HETATM    6  C   UNL     1      -6.971  11.848  67.815  1.00  0.00    -0.102 C  
HETATM    7  H   UNL     1     -10.877  12.518  62.219  1.00  0.00     0.000 HD 
HETATM    8  C   UNL     1      -6.292  10.812  66.915  1.00  0.00    -0.084 C  
HETATM    9  N   UNL     1     -10.745  12.130  63.154  1.00  0.00    -0.303 NA 
HETATM   10  C   UNL     1     -10.673  10.672  63.370  1.00  0.00     0.457 C  
HETATM   11  N   UNL     1      -6.388   9.445  67.453  1.00  0.00    -0.061 NA 
HETATM   12  C   UNL     1      -9.250  10.119  63.190  1.00  0.00    -0.316 C  
HETATM   13  H   UNL     1      -7.238   9.319  68.003  1.00  0.00     0.000 HD 
HETATM   14  H   UNL     1      -7.117   7.938  63.662  1.00  0.00     0.000 HD 
HETATM   15  C   UNL     1      -9.045   8.692  63.732  1.00  0.00     0.706 C  
HETATM   16  C   UNL     1      -6.282   8.432  66.383  1.00  0.00    -0.053 C  
HETATM   17  C   UNL     1      -7.621   8.144  65.653  1.00  0.00    -0.083 C  
HETATM   18  N   UNL     1      -7.669   8.564  64.248  1.00  0.00    -0.122 NA 
ENDBRANCH   1   2
BRANCH   1  19
HETATM   19  C   UNL     1     -10.216  10.755  67.723  1.00  0.00    -0.212 A  
HETATM   20  C   UNL     1      -9.895  11.350  68.931  1.00  0.00    -0.127 A  
HETATM   21  C   UNL     1      -9.869  10.541  70.038  1.00  0.00     0.178 A  
HETATM   22  C   UNL     1     -10.909   9.557  67.655  1.00  0.00    -0.253 A  
HETATM   23  C   UNL     1     -10.443   9.272  69.988  1.00  0.00    -0.254 A  
HETATM   24  C   UNL     1     -10.955   8.766  68.782  1.00  0.00     0.084 A  
BRANCH  23  25
HETATM   25  C   UNL     1     -10.540   8.413  71.193  1.00  0.00    -0.215 C  
BRANCH  25  26
HETATM   26  N   UNL     1     -10.712   9.064  72.480  1.00  0.00     0.136 NA 
HETATM   27  C   UNL     1     -11.944   4.130  71.720  1.00  0.00     3.510 C  
HETATM   28  H   UNL     1     -13.077   5.775  71.129  1.00  0.00     0.000 HD 
HETATM   29  N   UNL     1     -12.862   5.257  71.980  1.00  0.00     1.547 NA 
HETATM   30  C   UNL     1     -10.723   4.503  70.839  1.00  0.00     0.495 C  
HETATM   31  C   UNL     1     -12.323   6.134  73.032  1.00  0.00     0.858 C  
HETATM   32  C   UNL     1     -11.865   8.660  73.330  1.00  0.00     1.447 C  
HETATM   33  N   UNL     1      -9.442   4.450  71.547  1.00  0.00    -0.143 NA 
HETATM   34  H   UNL     1      -9.169   3.485  71.732  1.00  0.00     0.000 HD 
HETATM   35  C   UNL     1     -12.889   7.550  72.952  1.00  0.00     0.860 C  
HETATM   36  C   UNL     1      -8.365   5.175  70.853  1.00  0.00    -0.114 C  
HETATM   37  C   UNL     1      -7.760   6.217  71.811  1.00  0.00    -0.100 C  
HETATM   38  C   UNL     1      -7.366   7.536  71.129  1.00  0.00    -0.071 C  
HETATM   39  N   UNL     1      -7.075   8.600  72.102  1.00  0.00    -0.236 NA 
HETATM   40  C   UNL     1      -8.167   9.549  72.428  1.00  0.00     2.007 C  
HETATM   41  H   UNL     1      -6.156   8.682  72.538  1.00  0.00     0.000 HD 
HETATM   42  C   UNL     1      -9.427   9.050  73.219  1.00  0.00     1.685 C  
ENDBRANCH  25  26
ENDBRANCH  23  25
ENDBRANCH   1  19
TORSDOF 4
ENDMDL
MODEL      177
REMARK 921   NORMALIZED FREE ENERGY PREDICTED BY IDOCK:   10.51 KCAL/MOL
REMARK 922        TOTAL FREE ENERGY PREDICTED BY IDOCK:   11.39 KCAL/MOL
REMARK 923 INTER-LIGAND FREE ENERGY PREDICTED BY IDOCK:    4.29 KCAL/MOL
REMARK 924 INTRA-LIGAND FREE ENERGY PREDICTED BY IDOCK:    7.09 KCAL/MOL
REMARK 927      BINDING AFFINITY PREDICTED BY RF-SCORE:    0.00 PKD
ROOT
HETATM    1  C   UNL     1      -8.411  15.898  67.046  1.00  0.00    -0.223 C  
ENDROOT
BRANCH   1   2
HETATM    2  N   UNL     1      -7.124  16.265  67.607  1.00  0.00    -0.129 NA 
HETATM    3  C   UNL     1      -7.128  15.954  69.054  1.00  0.00    -0.161 C  
HETATM    4  C   UNL     1      -7.578  14.496  69.421  1.00  0.00    -0.033 C  
HETATM    5  C   UNL     1      -6.598  17.632  67.321  1.00  0.00    -0.157 C  
HETATM    6  C   UNL     1      -7.294  18.691  66.412  1.00  0.00    -0.272 C  
HETATM    7  H   UNL     1      -8.798  13.989  71.171  1.00  0.00     0.000 HD 
HETATM    8  C   UNL     1      -8.553  19.332  67.002  1.00  0.00    -0.285 C  
HETATM    9  N   UNL     1      -8.826  14.288  70.196  1.00  0.00     1.408 NA 
HETATM   10  C   UNL     1     -10.110  14.529  69.510  1.00  0.00     0.091 C  
HETATM   11  N   UNL     1      -9.645  19.445  66.022  1.00  0.00    -0.425 NA 
HETATM   12  C   UNL     1     -10.633  15.959  69.723  1.00  0.00    -0.322 C  
HETATM   13  H   UNL     1      -9.603  18.697  65.329  1.00  0.00     0.000 HD 
HETATM   14  H   UNL     1     -12.419  18.336  68.894  1.00  0.00     0.000 HD 
HETATM   15  C   UNL     1     -11.768  16.374  68.767  1.00  0.00    -0.037 C  
HETATM   16  C   UNL     1     -10.965  19.494  66.683  1.00  0.00    -0.265 C  
HETATM   17  C   UNL     1     -11.546  18.100  67.039  1.00  0.00     1.594 C  
HETATM   18  N   UNL     1     -11.650  17.815  68.474  1.00  0.00     1.180 NA 
ENDBRANCH   1   2
BRANCH   1  19
HETATM   19  C   UNL     1      -8.752  14.447  66.955  1.00  0.00    -0.244 A  
HETATM   20  C   UNL     1      -9.976  13.981  67.403  1.00  0.00    -0.243 A  
HETATM   21  C   UNL     1     -10.018  12.697  67.883  1.00  0.00    -0.228 A  
HETATM   22  C   UNL     1      -7.735  13.588  66.571  1.00  0.00     1.158 A  
HETATM   23  C   UNL     1      -8.962  11.824  67.631  1.00  0.00    -0.169 A  
HETATM   24  C   UNL     1      -7.801  12.274  66.983  1.00  0.00    -0.108 A  
BRANCH  23  25
HETATM   25  C   UNL     1      -9.020  10.395  68.030  1.00  0.00    -0.129 C  
BRANCH  25  26
HETATM   26  N   UNL     1      -9.853  10.040  69.165  1.00  0.00    -0.193 NA 
HETATM   27  C   UNL     1      -7.914   6.504  65.975  1.00  0.00    -0.112 C  
HETATM   28  H   UNL     1      -9.561   7.720  65.592  1.00  0.00     0.000 HD 
HETATM   29  N   UNL     1      -9.330   6.890  66.137  1.00  0.00    -0.098 NA 
HETATM   30  C   UNL     1      -6.920   7.687  66.106  1.00  0.00    -0.065 C  
HETATM   31  C   UNL     1      -9.662   7.061  67.560  1.00  0.00    -0.136 C  
HETATM   32  C   UNL     1     -10.768   8.874  69.034  1.00  0.00    -0.126 C  
HETATM   33  N   UNL     1      -6.062   7.614  67.291  1.00  0.00    -0.047 NA 
HETATM   34  H   UNL     1      -5.364   6.878  67.187  1.00  0.00     0.000 HD 
HETATM   35  C   UNL     1     -10.869   7.974  67.768  1.00  0.00    -0.081 C  
HETATM   36  C   UNL     1      -5.425   8.897  67.626  1.00  0.00    -0.035 C  
HETATM   37  C   UNL     1      -5.771   9.267  69.080  1.00  0.00    -0.036 C  
HETATM   38  C   UNL     1      -6.005  10.768  69.303  1.00  0.00    -0.043 C  
HETATM   39  N   UNL     1      -6.616  11.048  70.612  1.00  0.00    -0.474 NA 
HETATM   40  C   UNL     1      -8.089  11.211  70.660  1.00  0.00     3.501 C  
HETATM   41  H   UNL     1      -6.047  11.127  71.455  1.00  0.00     0.000 HD 
HETATM   42  C   UNL     1      -9.021   9.977  70.390  1.00  0.00     0.237 C  
ENDBRANCH  25  26
ENDBRANCH  23  25
ENDBRANCH   1  19
TORSDOF 4
ENDMDL
MODEL      178
REMARK 921   NORMALIZED FREE ENERGY PREDICTED BY IDOCK:   11.09 KCAL/MOL
REMARK 922        TOTAL FREE ENERGY PREDICTED BY IDOCK:   12.10 KCAL/MOL
REMARK 923 INTER-LIGAND FREE ENERGY PREDICTED BY IDOCK:   12.79 KCAL/MOL
REMARK 924 INTRA-LIGAND FREE ENERGY PREDICTED BY IDOCK:   -0.69 KCAL/MOL
REMARK 927      BINDING AFFINITY PREDICTED BY RF-SCORE:    0.00 PKD
ROOT
HETATM    1  C   UNL     1      -9.191  17.411  69.167  1.00  0.00     0.016 C  
ENDROOT
BRANCH   1   2
HETATM    2  N   UNL     1      -9.515  18.188  67.986  1.00  0.00    -0.277 NA 
HETATM    3  C   UNL     1      -9.730  19.597  68.384  1.00  0.00    -0.403 C  
HETATM    4  C   UNL     1      -8.584  20.227  69.251  1.00  0.00     0.708 C  
HETATM    5  C   UNL     1     -10.592  17.681  67.086  1.00  0.00    -0.276 C  
HETATM    6  C   UNL     1     -11.369  16.342  67.280  1.00  0.00     0.164 C  
HETATM    7  H   UNL     1      -8.922  21.618  70.913  1.00  0.00     0.000 HD 
HETATM    8  C   UNL     1     -12.371  16.330  68.437  1.00  0.00     1.070 C  
HETATM    9  N   UNL     1      -8.865  20.633  70.651  1.00  0.00     1.766 NA 
HETATM   10  C   UNL     1      -9.059  19.567  71.651  1.00  0.00     3.998 C  
HETATM   11  N   UNL     1     -12.313  15.088  69.224  1.00  0.00    -0.578 NA 
HETATM   12  C   UNL     1     -10.539  19.193  71.835  1.00  0.00     3.616 C  
HETATM   13  H   UNL     1     -11.375  14.686  69.219  1.00  0.00     0.000 HD 
HETATM   14  H   UNL     1     -12.738  17.228  72.747  1.00  0.00     0.000 HD 
HETATM   15  C   UNL     1     -10.776  17.873  72.593  1.00  0.00     3.631 C  
HETATM   16  C   UNL     1     -12.804  15.295  70.602  1.00  0.00    -0.409 C  
HETATM   17  C   UNL     1     -11.735  15.857  71.575  1.00  0.00    -0.475 C  
HETATM   18  N   UNL     1     -11.986  17.219  72.059  1.00  0.00     1.404 NA 
ENDBRANCH   1   2
BRANCH   1  19
HETATM   19  C   UNL     1      -8.739  16.000  68.981  1.00  0.00    -0.245 A  
HETATM   20  C   UNL     1      -8.175  15.592  67.785  1.00  0.00    -0.157 A  
HETATM   21  C   UNL     1      -8.357  14.282  67.423  1.00  0.00    -0.212 A  
HETATM   22  C   UNL     1      -9.067  15.101  69.983  1.00  0.00     0.306 A  
HETATM   23  C   UNL     1      -8.806  13.355  68.362  1.00  0.00    -0.133 A  
HETATM   24  C   UNL     1      -9.181  13.768  69.651  1.00  0.00     1.275 A  
BRANCH  23  25
HETATM   25  C   UNL     1      -8.903  11.909  68.046  1.00  0.00    -0.177 C  
BRANCH  25  26
HETATM   26  N   UNL     1      -9.354  11.533  66.718  1.00  0.00    -0.177 NA 
HETATM   27  C   UNL     1      -5.183   9.450  68.887  1.00  0.00    -0.037 C  
HETATM   28  H   UNL     1      -5.288  11.336  68.008  1.00  0.00     0.000 HD 
HETATM   29  N   UNL     1      -5.234  10.358  67.723  1.00  0.00    -0.037 NA 
HETATM   30  C   UNL     1      -6.234   9.770  69.982  1.00  0.00    -0.059 C  
HETATM   31  C   UNL     1      -6.339   9.989  66.824  1.00  0.00    -0.069 C  
HETATM   32  C   UNL     1      -8.331  11.187  65.693  1.00  0.00     0.002 C  
HETATM   33  N   UNL     1      -7.269   8.744  70.130  1.00  0.00    -0.050 NA 
HETATM   34  H   UNL     1      -6.887   7.905  70.567  1.00  0.00     0.000 HD 
HETATM   35  C   UNL     1      -6.797  11.160  65.958  1.00  0.00     0.053 C  
HETATM   36  C   UNL     1      -8.457   9.218  70.856  1.00  0.00    -0.149 C  
HETATM   37  C   UNL     1      -9.706   8.988  69.984  1.00  0.00    -0.203 C  
HETATM   38  C   UNL     1     -10.753  10.106  70.088  1.00  0.00    -0.300 C  
HETATM   39  N   UNL     1     -11.778  10.007  69.038  1.00  0.00    -0.486 NA 
HETATM   40  C   UNL     1     -11.593  10.832  67.819  1.00  0.00    -0.069 C  
HETATM   41  H   UNL     1     -12.587   9.394  69.143  1.00  0.00     0.000 HD 
HETATM   42  C   UNL     1     -10.420  10.509  66.827  1.00  0.00    -0.242 C  
ENDBRANCH  25  26
ENDBRANCH  23  25
ENDBRANCH   1  19
TORSDOF 4
ENDMDL
MODEL      179
REMARK 921   NORMALIZED FREE ENERGY PREDICTED BY IDOCK:   11.17 KCAL/MOL
REMARK 922        TOTAL FREE ENERGY PREDICTED BY IDOCK:   12.20 KCAL/MOL
REMARK 923 INTER-LIGAND FREE ENERGY PREDICTED BY IDOCK:   12.17 KCAL/MOL
REMARK 924 INTRA-LIGAND FREE ENERGY PREDICTED BY IDOCK:    0.03 KCAL/MOL
REMARK 927      BINDING AFFINITY PREDICTED BY RF-SCORE:    0.00 PKD
ROOT
HETATM    1  C   UNL     1      -6.839  11.222  70.369  1.00  0.00     0.631 C  
ENDROOT
BRANCH   1   2
HETATM    2  N   UNL     1      -6.959  12.665  70.449  1.00  0.00     0.877 NA 
HETATM    3  C   UNL     1      -6.580  13.101  71.812  1.00  0.00     3.118 C  
HETATM    4  C   UNL     1      -5.200  12.558  72.325  1.00  0.00     0.249 C  
HETATM    5  C   UNL     1      -8.233  13.290  69.987  1.00  0.00     2.637 C  
HETATM    6  C   UNL     1      -9.437  12.520  69.363  1.00  0.00     1.122 C  
HETATM    7  H   UNL     1      -4.814  11.939  74.393  1.00  0.00     0.000 HD 
HETATM    8  C   UNL     1     -10.247  11.669  70.344  1.00  0.00     2.638 C  
HETATM    9  N   UNL     1      -5.163  11.632  73.485  1.00  0.00    -0.043 NA 
HETATM   10  C   UNL     1      -5.647  10.254  73.280  1.00  0.00     0.662 C  
HETATM   11  N   UNL     1     -10.589  10.345  69.799  1.00  0.00    -0.285 NA 
HETATM   12  C   UNL     1      -7.131  10.091  73.646  1.00  0.00     2.968 C  
HETATM   13  H   UNL     1      -9.880  10.019  69.142  1.00  0.00     0.000 HD 
HETATM   14  H   UNL     1      -9.810   8.568  73.461  1.00  0.00     0.000 HD 
HETATM   15  C   UNL     1      -7.777   8.788  73.137  1.00  0.00     0.261 C  
HETATM   16  C   UNL     1     -10.823   9.360  70.874  1.00  0.00    -0.322 C  
HETATM   17  C   UNL     1      -9.528   8.703  71.421  1.00  0.00    -0.237 C  
HETATM   18  N   UNL     1      -9.191   9.046  72.807  1.00  0.00     0.058 NA 
ENDBRANCH   1   2
BRANCH   1  19
HETATM   19  C   UNL     1      -6.413  10.621  69.069  1.00  0.00    -0.052 A  
HETATM   20  C   UNL     1      -6.855  11.149  67.869  1.00  0.00    -0.068 A  
HETATM   21  C   UNL     1      -6.986  10.282  66.815  1.00  0.00    -0.093 A  
HETATM   22  C   UNL     1      -5.709   9.429  69.132  1.00  0.00    -0.035 A  
HETATM   23  C   UNL     1      -6.402   9.018  66.875  1.00  0.00    -0.059 A  
HETATM   24  C   UNL     1      -5.770   8.578  68.050  1.00  0.00    -0.035 A  
BRANCH  23  25
HETATM   25  C   UNL     1      -6.419   8.095  65.714  1.00  0.00    -0.052 C  
BRANCH  25  26
HETATM   26  N   UNL     1      -6.541   6.673  65.978  1.00  0.00    -0.043 NA 
HETATM   27  C   UNL     1     -10.600   9.827  66.040  1.00  0.00     0.118 C  
HETATM   28  H   UNL     1      -9.184   9.632  67.555  1.00  0.00     0.000 HD 
HETATM   29  N   UNL     1      -9.989   9.126  67.187  1.00  0.00    -0.200 NA 
HETATM   30  C   UNL     1      -9.577  10.317  64.982  1.00  0.00    -0.285 C  
HETATM   31  C   UNL     1      -9.643   7.742  66.824  1.00  0.00    -0.212 C  
HETATM   32  C   UNL     1      -7.559   6.219  66.964  1.00  0.00    -0.095 C  
HETATM   33  N   UNL     1      -9.678   9.626  63.695  1.00  0.00    -0.409 NA 
HETATM   34  H   UNL     1     -10.519   9.912  63.194  1.00  0.00     0.000 HD 
HETATM   35  C   UNL     1      -8.541   7.168  67.712  1.00  0.00    -0.126 C  
HETATM   36  C   UNL     1      -8.483   9.793  62.852  1.00  0.00    -0.177 C  
HETATM   37  C   UNL     1      -7.937   8.405  62.469  1.00  0.00    -0.153 C  
HETATM   38  C   UNL     1      -6.405   8.327  62.429  1.00  0.00    -0.088 C  
HETATM   39  N   UNL     1      -5.920   6.941  62.354  1.00  0.00    -0.039 NA 
HETATM   40  C   UNL     1      -5.528   6.282  63.624  1.00  0.00    -0.018 C  
HETATM   41  H   UNL     1      -5.855   6.449  61.462  1.00  0.00     0.000 HD 
HETATM   42  C   UNL     1      -6.623   5.935  64.695  1.00  0.00    -0.042 C  
ENDBRANCH  25  26
ENDBRANCH  23  25
ENDBRANCH   1  19
TORSDOF 4
ENDMDL
MODEL      180
REMARK 921   NORMALIZED FREE ENERGY PREDICTED BY IDOCK:   11.22 KCAL/MOL
REMARK 922        TOTAL FREE ENERGY PREDICTED BY IDOCK:   12.26 KCAL/MOL
REMARK 923 INTER-LIGAND FREE ENERGY PREDICTED BY IDOCK:    6.26 KCAL/MOL
REMARK 924 INTRA-LIGAND FREE ENERGY PREDICTED BY IDOCK:    6.00 KCAL/MOL
REMARK 927      BINDING AFFINITY PREDICTED BY RF-SCORE:    0.00 PKD
ROOT
HETATM    1  C   UNL     1     -12.392   9.345  69.819  1.00  0.00     0.901 C  
ENDROOT
BRANCH   1   2
HETATM    2  N   UNL     1     -13.084   9.736  71.031  1.00  0.00    -0.328 NA 
HETATM    3  C   UNL     1     -12.199  10.621  71.822  1.00  0.00     0.007 C  
HETATM    4  C   UNL     1     -11.589  11.831  71.032  1.00  0.00     0.962 C  
HETATM    5  C   UNL     1     -13.704   8.663  71.863  1.00  0.00    -0.421 C  
HETATM    6  C   UNL     1     -13.722   7.145  71.504  1.00  0.00    -0.413 C  
HETATM    7  H   UNL     1      -9.548  12.583  71.316  1.00  0.00     0.000 HD 
HETATM    8  C   UNL     1     -12.376   6.427  71.636  1.00  0.00    -0.158 C  
HETATM    9  N   UNL     1     -10.122  11.901  70.818  1.00  0.00     4.383 NA 
HETATM   10  C   UNL     1      -9.520  10.952  69.862  1.00  0.00     0.741 C  
HETATM   11  N   UNL     1     -12.102   5.524  70.506  1.00  0.00     1.811 NA 
HETATM   12  C   UNL     1      -9.005   9.675  70.545  1.00  0.00    -0.186 C  
HETATM   13  H   UNL     1     -12.539   5.859  69.647  1.00  0.00     0.000 HD 
HETATM   14  H   UNL     1      -8.133   6.715  70.438  1.00  0.00     0.000 HD 
HETATM   15  C   UNL     1      -8.688   8.517  69.580  1.00  0.00    -0.136 C  
HETATM   16  C   UNL     1     -10.653   5.306  70.326  1.00  0.00    -0.218 C  
HETATM   17  C   UNL     1      -9.946   6.413  69.498  1.00  0.00    -0.162 C  
HETATM   18  N   UNL     1      -8.989   7.236  70.246  1.00  0.00    -0.151 NA 
ENDBRANCH   1   2
BRANCH   1  19
HETATM   19  C   UNL     1     -12.242  10.360  68.734  1.00  0.00     0.525 A  
HETATM   20  C   UNL     1     -11.469  10.091  67.617  1.00  0.00     0.357 A  
HETATM   21  C   UNL     1     -10.858  11.157  67.009  1.00  0.00    -0.338 A  
HETATM   22  C   UNL     1     -12.762  11.621  68.981  1.00  0.00     0.907 A  
HETATM   23  C   UNL     1     -11.257  12.457  67.314  1.00  0.00    -0.357 A  
HETATM   24  C   UNL     1     -12.207  12.695  68.320  1.00  0.00     0.060 A  
BRANCH  23  25
HETATM   25  C   UNL     1     -10.705  13.631  66.593  1.00  0.00    -0.280 C  
BRANCH  25  26
HETATM   26  N   UNL     1     -10.844  13.669  65.148  1.00  0.00    -0.317 NA 
HETATM   27  C   UNL     1      -9.128  17.698  67.842  1.00  0.00    -0.260 C  
HETATM   28  H   UNL     1     -11.118  17.105  67.668  1.00  0.00     0.000 HD 
HETATM   29  N   UNL     1     -10.407  17.582  67.113  1.00  0.00    -0.329 NA 
HETATM   30  C   UNL     1      -8.671  16.383  68.525  1.00  0.00    -0.223 C  
HETATM   31  C   UNL     1     -10.204  16.930  65.809  1.00  0.00    -0.268 C  
HETATM   32  C   UNL     1     -11.241  14.952  64.508  1.00  0.00    -0.264 C  
HETATM   33  N   UNL     1      -7.462  15.799  67.940  1.00  0.00    -0.126 NA 
HETATM   34  H   UNL     1      -6.640  16.353  68.178  1.00  0.00     0.000 HD 
HETATM   35  C   UNL     1     -11.482  16.282  65.281  1.00  0.00     0.271 C  
HETATM   36  C   UNL     1      -7.265  14.387  68.304  1.00  0.00    -0.122 C  
HETATM   37  C   UNL     1      -7.136  13.548  67.019  1.00  0.00     0.474 C  
HETATM   38  C   UNL     1      -7.800  12.167  67.106  1.00  0.00    -0.160 C  
HETATM   39  N   UNL     1      -7.917  11.522  65.790  1.00  0.00    -0.344 NA 
HETATM   40  C   UNL     1      -9.206  11.662  65.070  1.00  0.00     0.045 C  
HETATM   41  H   UNL     1      -7.140  10.997  65.386  1.00  0.00     0.000 HD 
HETATM   42  C   UNL     1      -9.646  13.064  64.519  1.00  0.00     0.377 C  
ENDBRANCH  25  26
ENDBRANCH  23  25
ENDBRANCH   1  19
TORSDOF 4
ENDMDL
MODEL      181
REMARK 921   NORMALIZED FREE ENERGY PREDICTED BY IDOCK:   11.30 KCAL/MOL
REMARK 922        TOTAL FREE ENERGY PREDICTED BY IDOCK:   12.36 KCAL/MOL
REMARK 923 INTER-LIGAND FREE ENERGY PREDICTED BY IDOCK:    1.33 KCAL/MOL
REMARK 924 INTRA-LIGAND FREE ENERGY PREDICTED BY IDOCK:   11.03 KCAL/MOL
REMARK 927      BINDING AFFINITY PREDICTED BY RF-SCORE:    0.00 PKD
ROOT
HETATM    1  C   UNL     1      -9.902   9.314  68.847  1.00  0.00    -0.165 C  
ENDROOT
BRANCH   1   2
HETATM    2  N   UNL     1      -9.345  10.614  68.529  1.00  0.00    -0.162 NA 
HETATM    3  C   UNL     1      -8.236  10.901  69.467  1.00  0.00     0.139 C  
HETATM    4  C   UNL     1      -7.156   9.770  69.588  1.00  0.00    -0.083 C  
HETATM    5  C   UNL     1     -10.284  11.766  68.390  1.00  0.00    -0.206 C  
HETATM    6  C   UNL     1     -11.837  11.677  68.502  1.00  0.00    -0.357 C  
HETATM    7  H   UNL     1      -6.166   9.210  71.463  1.00  0.00     0.000 HD 
HETATM    8  C   UNL     1     -12.378  11.446  69.915  1.00  0.00    -0.214 C  
HETATM    9  N   UNL     1      -6.987   9.054  70.877  1.00  0.00    -0.083 NA 
HETATM   10  C   UNL     1      -8.045   8.110  71.283  1.00  0.00    -0.107 C  
HETATM   11  N   UNL     1     -13.459  10.447  69.952  1.00  0.00    -0.218 NA 
HETATM   12  C   UNL     1      -9.101   8.762  72.188  1.00  0.00    -0.218 C  
HETATM   13  H   UNL     1     -13.348   9.751  69.215  1.00  0.00     0.000 HD 
HETATM   14  H   UNL     1     -11.922   8.825  73.442  1.00  0.00     0.000 HD 
HETATM   15  C   UNL     1     -10.393   7.941  72.360  1.00  0.00    -0.270 C  
HETATM   16  C   UNL     1     -13.565   9.812  71.282  1.00  0.00    -0.216 C  
HETATM   17  C   UNL     1     -12.584   8.629  71.497  1.00  0.00    -0.322 C  
HETATM   18  N   UNL     1     -11.537   8.861  72.499  1.00  0.00    -0.164 NA 
ENDBRANCH   1   2
BRANCH   1  19
HETATM   19  C   UNL     1      -9.148   8.099  68.416  1.00  0.00    -0.136 A  
HETATM   20  C   UNL     1      -7.980   8.217  67.683  1.00  0.00    -0.122 A  
HETATM   21  C   UNL     1      -7.684   7.200  66.812  1.00  0.00    -0.098 A  
HETATM   22  C   UNL     1      -9.760   6.874  68.632  1.00  0.00    -0.136 A  
HETATM   23  C   UNL     1      -8.358   5.984  66.904  1.00  0.00    -0.105 A  
HETATM   24  C   UNL     1      -9.417   5.821  67.811  1.00  0.00    -0.116 A  
BRANCH  23  25
HETATM   25  C   UNL     1      -7.987   4.821  66.060  1.00  0.00    -0.103 C  
BRANCH  25  26
HETATM   26  N   UNL     1      -9.055   4.096  65.395  1.00  0.00    -0.131 NA 
HETATM   27  C   UNL     1      -8.343   9.144  64.729  1.00  0.00    -0.169 C  
HETATM   28  H   UNL     1      -9.236   8.247  66.383  1.00  0.00     0.000 HD 
HETATM   29  N   UNL     1      -9.467   8.477  65.416  1.00  0.00     0.095 NA 
HETATM   30  C   UNL     1      -6.973   8.449  64.940  1.00  0.00    -0.075 C  
HETATM   31  C   UNL     1      -9.908   7.293  64.662  1.00  0.00     3.417 C  
HETATM   32  C   UNL     1     -10.348   4.795  65.161  1.00  0.00     0.069 C  
HETATM   33  N   UNL     1      -6.420   7.844  63.727  1.00  0.00    -0.062 NA 
HETATM   34  H   UNL     1      -6.095   8.562  63.079  1.00  0.00     0.000 HD 
HETATM   35  C   UNL     1     -10.628   6.278  65.547  1.00  0.00     1.862 C  
HETATM   36  C   UNL     1      -5.357   6.864  63.999  1.00  0.00    -0.028 C  
HETATM   37  C   UNL     1      -5.731   5.520  63.348  1.00  0.00    -0.014 C  
HETATM   38  C   UNL     1      -5.335   4.292  64.180  1.00  0.00    -0.013 C  
HETATM   39  N   UNL     1      -5.960   3.057  63.683  1.00  0.00    -0.013 NA 
HETATM   40  C   UNL     1      -7.212   2.610  64.340  1.00  0.00    -0.054 C  
HETATM   41  H   UNL     1      -5.549   2.527  62.914  1.00  0.00     0.000 HD 
HETATM   42  C   UNL     1      -8.528   3.449  64.170  1.00  0.00    -0.090 C  
ENDBRANCH  25  26
ENDBRANCH  23  25
ENDBRANCH   1  19
TORSDOF 4
ENDMDL
MODEL      182
REMARK 921   NORMALIZED FREE ENERGY PREDICTED BY IDOCK:   11.45 KCAL/MOL
REMARK 922        TOTAL FREE ENERGY PREDICTED BY IDOCK:   12.55 KCAL/MOL
REMARK 923 INTER-LIGAND FREE ENERGY PREDICTED BY IDOCK:   12.96 KCAL/MOL
REMARK 924 INTRA-LIGAND FREE ENERGY PREDICTED BY IDOCK:   -0.41 KCAL/MOL
REMARK 927      BINDING AFFINITY PREDICTED BY RF-SCORE:    0.00 PKD
ROOT
HETATM    1  C   UNL     1      -8.071   7.713  68.576  1.00  0.00    -0.124 C  
ENDROOT
BRANCH   1   2
HETATM    2  N   UNL     1      -7.788   7.062  69.841  1.00  0.00    -0.112 NA 
HETATM    3  C   UNL     1      -6.767   6.013  69.621  1.00  0.00    -0.052 C  
HETATM    4  C   UNL     1      -5.479   6.485  68.859  1.00  0.00    -0.016 C  
HETATM    5  C   UNL     1      -8.942   6.571  70.650  1.00  0.00    -0.148 C  
HETATM    6  C   UNL     1     -10.445   6.753  70.275  1.00  0.00    -0.238 C  
HETATM    7  H   UNL     1      -4.407   5.269  67.382  1.00  0.00     0.000 HD 
HETATM    8  C   UNL     1     -10.936   5.891  69.109  1.00  0.00    -0.312 C  
HETATM    9  N   UNL     1      -5.176   5.927  67.518  1.00  0.00    -0.004 NA 
HETATM   10  C   UNL     1      -6.021   6.355  66.387  1.00  0.00    -0.028 C  
HETATM   11  N   UNL     1     -11.790   6.638  68.172  1.00  0.00     0.063 NA 
HETATM   12  C   UNL     1      -7.194   5.396  66.133  1.00  0.00    -0.077 C  
HETATM   13  H   UNL     1     -11.536   7.626  68.142  1.00  0.00     0.000 HD 
HETATM   14  H   UNL     1      -9.975   4.781  64.942  1.00  0.00     0.000 HD 
HETATM   15  C   UNL     1      -8.292   5.958  65.210  1.00  0.00    -0.146 C  
HETATM   16  C   UNL     1     -11.773   6.035  66.824  1.00  0.00     1.338 C  
HETATM   17  C   UNL     1     -10.572   6.482  65.948  1.00  0.00     1.198 C  
HETATM   18  N   UNL     1      -9.601   5.427  65.636  1.00  0.00    -0.064 NA 
ENDBRANCH   1   2
BRANCH   1  19
HETATM   19  C   UNL     1      -8.599   9.110  68.605  1.00  0.00    -0.128 A  
HETATM   20  C   UNL     1      -9.536   9.490  69.550  1.00  0.00    -0.198 A  
HETATM   21  C   UNL     1     -10.419  10.477  69.193  1.00  0.00    -0.250 A  
HETATM   22  C   UNL     1      -8.241   9.936  67.551  1.00  0.00    -0.114 A  
HETATM   23  C   UNL     1     -10.171  11.259  68.067  1.00  0.00    -0.201 A  
HETATM   24  C   UNL     1      -9.081  10.979  67.227  1.00  0.00    -0.142 A  
BRANCH  23  25
HETATM   25  C   UNL     1     -11.036  12.412  67.713  1.00  0.00    -0.247 C  
BRANCH  25  26
HETATM   26  N   UNL     1     -11.961  12.902  68.719  1.00  0.00    -0.298 NA 
HETATM   27  C   UNL     1      -7.917  15.657  67.142  1.00  0.00    -0.219 C  
HETATM   28  H   UNL     1      -7.858  14.058  68.476  1.00  0.00     0.000 HD 
HETATM   29  N   UNL     1      -8.125  15.042  68.469  1.00  0.00    -0.140 NA 
HETATM   30  C   UNL     1      -8.460  14.809  65.963  1.00  0.00     0.890 C  
HETATM   31  C   UNL     1      -9.513  15.235  68.919  1.00  0.00    -0.218 C  
HETATM   32  C   UNL     1     -11.428  13.751  69.819  1.00  0.00    -0.199 C  
HETATM   33  N   UNL     1      -9.601  15.414  65.272  1.00  0.00    -0.296 NA 
HETATM   34  H   UNL     1      -9.304  16.218  64.719  1.00  0.00     0.000 HD 
HETATM   35  C   UNL     1      -9.939  14.189  69.947  1.00  0.00     0.845 C  
HETATM   36  C   UNL     1     -10.352  14.457  64.444  1.00  0.00     0.308 C  
HETATM   37  C   UNL     1     -11.831  14.471  64.874  1.00  0.00    -0.417 C  
HETATM   38  C   UNL     1     -12.503  13.092  64.843  1.00  0.00    -0.455 C  
HETATM   39  N   UNL     1     -13.803  13.090  65.531  1.00  0.00     0.884 NA 
HETATM   40  C   UNL     1     -13.830  12.636  66.943  1.00  0.00     9.453 C  
HETATM   41  H   UNL     1     -14.654  13.389  65.055  1.00  0.00     0.000 HD 
HETATM   42  C   UNL     1     -13.143  13.503  68.056  1.00  0.00     2.824 C  
ENDBRANCH  25  26
ENDBRANCH  23  25
ENDBRANCH   1  19
TORSDOF 4
ENDMDL
MODEL      183
REMARK 921   NORMALIZED FREE ENERGY PREDICTED BY IDOCK:   11.64 KCAL/MOL
REMARK 922        TOTAL FREE ENERGY PREDICTED BY IDOCK:   12.78 KCAL/MOL
REMARK 923 INTER-LIGAND FREE ENERGY PREDICTED BY IDOCK:   10.37 KCAL/MOL
REMARK 924 INTRA-LIGAND FREE ENERGY PREDICTED BY IDOCK:    2.41 KCAL/MOL
REMARK 927      BINDING AFFINITY PREDICTED BY RF-SCORE:    0.00 PKD
ROOT
HETATM    1  C   UNL     1     -10.300  10.091  66.644  1.00  0.00    -0.213 C  
ENDROOT
BRANCH   1   2
HETATM    2  N   UNL     1     -10.847   9.363  65.515  1.00  0.00     1.459 NA 
HETATM    3  C   UNL     1      -9.747   8.644  64.832  1.00  0.00     1.130 C  
HETATM    4  C   UNL     1      -8.846   7.763  65.766  1.00  0.00    -0.106 C  
HETATM    5  C   UNL     1     -11.720  10.105  64.558  1.00  0.00     4.754 C  
HETATM    6  C   UNL     1     -12.147  11.598  64.704  1.00  0.00     0.038 C  
HETATM    7  H   UNL     1      -6.675   7.551  65.538  1.00  0.00     0.000 HD 
HETATM    8  C   UNL     1     -11.041  12.623  64.440  1.00  0.00    -0.345 C  
HETATM    9  N   UNL     1      -7.417   8.117  65.951  1.00  0.00    -0.079 NA 
HETATM   10  C   UNL     1      -7.103   9.316  66.751  1.00  0.00    -0.082 C  
HETATM   11  N   UNL     1     -11.033  13.715  65.427  1.00  0.00    -0.291 NA 
HETATM   12  C   UNL     1      -6.939  10.576  65.886  1.00  0.00    -0.131 C  
HETATM   13  H   UNL     1     -11.375  13.400  66.335  1.00  0.00     0.000 HD 
HETATM   14  H   UNL     1      -6.891  13.645  65.560  1.00  0.00     0.000 HD 
HETATM   15  C   UNL     1      -6.955  11.900  66.673  1.00  0.00     0.087 C  
HETATM   16  C   UNL     1      -9.697  14.334  65.540  1.00  0.00    -0.154 C  
HETATM   17  C   UNL     1      -8.731  13.583  66.494  1.00  0.00     0.110 C  
HETATM   18  N   UNL     1      -7.579  12.948  65.844  1.00  0.00     2.136 NA 
ENDBRANCH   1   2
BRANCH   1  19
HETATM   19  C   UNL     1     -10.220   9.391  67.961  1.00  0.00    -0.248 A  
HETATM   20  C   UNL     1      -9.757  10.053  69.085  1.00  0.00    -0.217 A  
HETATM   21  C   UNL     1      -9.122   9.298  70.038  1.00  0.00    -0.229 A  
HETATM   22  C   UNL     1     -10.461   8.026  67.960  1.00  0.00    -0.243 A  
HETATM   23  C   UNL     1      -9.229   7.909  70.012  1.00  0.00    -0.153 A  
HETATM   24  C   UNL     1      -9.891   7.263  68.955  1.00  0.00    -0.165 A  
BRANCH  23  25
HETATM   25  C   UNL     1      -8.658   7.063  71.089  1.00  0.00    -0.133 C  
BRANCH  25  26
HETATM   26  N   UNL     1      -8.030   7.730  72.216  1.00  0.00    -0.105 NA 
HETATM   27  C   UNL     1     -13.115   7.032  71.934  1.00  0.00    -0.216 C  
HETATM   28  H   UNL     1     -12.026   8.485  70.915  1.00  0.00     0.000 HD 
HETATM   29  N   UNL     1     -12.377   8.308  71.856  1.00  0.00    -0.319 NA 
HETATM   30  C   UNL     1     -12.389   5.841  71.257  1.00  0.00     1.149 C  
HETATM   31  C   UNL     1     -11.299   8.347  72.857  1.00  0.00     0.012 C  
HETATM   32  C   UNL     1      -8.762   8.842  72.880  1.00  0.00     0.291 C  
HETATM   33  N   UNL     1     -11.935   4.811  72.194  1.00  0.00     0.966 NA 
HETATM   34  H   UNL     1     -12.725   4.281  72.561  1.00  0.00     0.000 HD 
HETATM   35  C   UNL     1     -10.187   9.321  72.474  1.00  0.00     1.086 C  
HETATM   36  C   UNL     1     -10.920   3.912  71.623  1.00  0.00     1.087 C  
HETATM   37  C   UNL     1      -9.670   3.925  72.522  1.00  0.00    -0.202 C  
HETATM   38  C   UNL     1      -8.345   3.852  71.750  1.00  0.00    -0.082 C  
HETATM   39  N   UNL     1      -7.187   4.162  72.602  1.00  0.00    -0.064 NA 
HETATM   40  C   UNL     1      -6.671   5.552  72.579  1.00  0.00    -0.075 C  
HETATM   41  H   UNL     1      -6.754   3.447  73.188  1.00  0.00     0.000 HD 
HETATM   42  C   UNL     1      -7.536   6.717  73.179  1.00  0.00    -0.082 C  
ENDBRANCH  25  26
ENDBRANCH  23  25
ENDBRANCH   1  19
TORSDOF 4
ENDMDL
MODEL      184
REMARK 921   NORMALIZED FREE ENERGY PREDICTED BY IDOCK:   12.16 KCAL/MOL
REMARK 922        TOTAL FREE ENERGY PREDICTED BY IDOCK:   13.43 KCAL/MOL
REMARK 923 INTER-LIGAND FREE ENERGY PREDICTED BY IDOCK:   10.87 KCAL/MOL
REMARK 924 INTRA-LIGAND FREE ENERGY PREDICTED BY IDOCK:    2.56 KCAL/MOL
REMARK 927      BINDING AFFINITY PREDICTED BY RF-SCORE:    0.00 PKD
ROOT
HETATM    1  C   UNL     1      -9.633  12.746  66.616  1.00  0.00    -0.255 C  
ENDROOT
BRANCH   1   2
HETATM    2  N   UNL     1     -10.841  12.237  67.236  1.00  0.00    -0.237 NA 
HETATM    3  C   UNL     1     -10.479  11.553  68.498  1.00  0.00    -0.208 C  
HETATM    4  C   UNL     1      -9.579  12.388  69.475  1.00  0.00     1.372 C  
HETATM    5  C   UNL     1     -11.773  11.427  66.398  1.00  0.00     0.357 C  
HETATM    6  C   UNL     1     -11.584  11.127  64.879  1.00  0.00     0.336 C  
HETATM    7  H   UNL     1      -7.960  11.538  70.686  1.00  0.00     0.000 HD 
HETATM    8  C   UNL     1     -10.468  10.134  64.543  1.00  0.00     0.521 C  
HETATM    9  N   UNL     1      -8.200  11.928  69.773  1.00  0.00     1.338 NA 
HETATM   10  C   UNL     1      -7.188  12.052  68.708  1.00  0.00    -0.108 C  
HETATM   11  N   UNL     1      -9.655  10.563  63.393  1.00  0.00    -0.312 NA 
HETATM   12  C   UNL     1      -7.056  10.771  67.868  1.00  0.00    -0.085 C  
HETATM   13  H   UNL     1      -9.615  11.580  63.323  1.00  0.00     0.000 HD 
HETATM   14  H   UNL     1      -6.194   9.302  65.293  1.00  0.00     0.000 HD 
HETATM   15  C   UNL     1      -6.282  10.948  66.548  1.00  0.00    -0.122 C  
HETATM   16  C   UNL     1      -8.302   9.971  63.435  1.00  0.00    -0.170 C  
HETATM   17  C   UNL     1      -7.298  10.752  64.323  1.00  0.00     0.375 C  
HETATM   18  N   UNL     1      -6.851  10.046  65.529  1.00  0.00    -0.113 NA 
ENDBRANCH   1   2
BRANCH   1  19
HETATM   19  C   UNL     1      -9.192  14.130  66.962  1.00  0.00    -0.249 A  
HETATM   20  C   UNL     1      -7.925  14.573  66.623  1.00  0.00     0.433 A  
HETATM   21  C   UNL     1      -7.350  15.510  67.442  1.00  0.00    -0.241 A  
HETATM   22  C   UNL     1     -10.035  14.870  67.776  1.00  0.00    -0.222 A  
HETATM   23  C   UNL     1      -8.131  16.198  68.369  1.00  0.00    -0.171 A  
HETATM   24  C   UNL     1      -9.483  15.866  68.552  1.00  0.00    -0.209 A  
BRANCH  23  25
HETATM   25  C   UNL     1      -7.574  17.300  69.192  1.00  0.00    -0.103 C  
BRANCH  25  26
HETATM   26  N   UNL     1      -6.134  17.348  69.379  1.00  0.00    -0.232 NA 
HETATM   27  C   UNL     1      -8.443  19.513  65.327  1.00  0.00     1.139 C  
HETATM   28  H   UNL     1      -8.056  17.481  65.568  1.00  0.00     0.000 HD 
HETATM   29  N   UNL     1      -7.552  18.335  65.332  1.00  0.00    -0.239 NA 
HETATM   30  C   UNL     1      -9.372  19.606  66.566  1.00  0.00    -0.384 C  
HETATM   31  C   UNL     1      -6.403  18.557  66.225  1.00  0.00    -0.193 C  
HETATM   32  C   UNL     1      -5.261  17.303  68.175  1.00  0.00    -0.121 C  
HETATM   33  N   UNL     1      -9.069  20.731  67.453  1.00  0.00    -0.472 NA 
HETATM   34  H   UNL     1      -9.346  21.615  67.025  1.00  0.00     0.000 HD 
HETATM   35  C   UNL     1      -5.786  17.247  66.710  1.00  0.00    -0.227 C  
HETATM   36  C   UNL     1      -9.660  20.590  68.793  1.00  0.00     0.436 C  
HETATM   37  C   UNL     1      -8.546  20.699  69.850  1.00  0.00     1.992 C  
HETATM   38  C   UNL     1      -8.730  19.761  71.050  1.00  0.00     2.455 C  
HETATM   39  N   UNL     1      -7.520  19.674  71.881  1.00  0.00     2.139 NA 
HETATM   40  C   UNL     1      -6.599  18.538  71.634  1.00  0.00     2.805 C  
HETATM   41  H   UNL     1      -7.320  20.370  72.600  1.00  0.00     0.000 HD 
HETATM   42  C   UNL     1      -5.790  18.464  70.291  1.00  0.00    -0.154 C  
ENDBRANCH  25  26
ENDBRANCH  23  25
ENDBRANCH   1  19
TORSDOF 4
ENDMDL
MODEL      185
REMARK 921   NORMALIZED FREE ENERGY PREDICTED BY IDOCK:   12.55 KCAL/MOL
REMARK 922        TOTAL FREE ENERGY PREDICTED BY IDOCK:   13.91 KCAL/MOL
REMARK 923 INTER-LIGAND FREE ENERGY PREDICTED BY IDOCK:    2.26 KCAL/MOL
REMARK 924 INTRA-LIGAND FREE ENERGY PREDICTED BY IDOCK:   11.64 KCAL/MOL
REMARK 927      BINDING AFFINITY PREDICTED BY RF-SCORE:    0.00 PKD
ROOT
HETATM    1  C   UNL     1      -7.371   6.522  68.542  1.00  0.00    -0.087 C  
ENDROOT
BRANCH   1   2
HETATM    2  N   UNL     1      -6.033   6.587  67.988  1.00  0.00    -0.019 NA 
HETATM    3  C   UNL     1      -5.404   5.251  68.099  1.00  0.00    -0.008 C  
HETATM    4  C   UNL     1      -6.259   4.063  67.532  1.00  0.00    -0.036 C  
HETATM    5  C   UNL     1      -5.131   7.679  68.457  1.00  0.00    -0.025 C  
HETATM    6  C   UNL     1      -5.530   8.805  69.461  1.00  0.00    -0.034 C  
HETATM    7  H   UNL     1      -6.361   2.074  68.449  1.00  0.00     0.000 HD 
HETATM    8  C   UNL     1      -5.692   8.356  70.915  1.00  0.00    -0.032 C  
HETATM    9  N   UNL     1      -6.757   3.014  68.456  1.00  0.00    -0.040 NA 
HETATM   10  C   UNL     1      -7.845   3.376  69.384  1.00  0.00    -0.050 C  
HETATM   11  N   UNL     1      -6.884   8.934  71.557  1.00  0.00    -0.148 NA 
HETATM   12  C   UNL     1      -7.322   3.837  70.754  1.00  0.00    -0.037 C  
HETATM   13  H   UNL     1      -7.627   9.104  70.880  1.00  0.00     0.000 HD 
HETATM   14  H   UNL     1      -7.699   5.329  73.430  1.00  0.00     0.000 HD 
HETATM   15  C   UNL     1      -8.370   4.546  71.634  1.00  0.00    -0.103 C  
HETATM   16  C   UNL     1      -7.356   8.097  72.678  1.00  0.00    -0.111 C  
HETATM   17  C   UNL     1      -8.270   6.919  72.245  1.00  0.00    -0.104 C  
HETATM   18  N   UNL     1      -7.700   5.582  72.443  1.00  0.00    -0.101 NA 
ENDBRANCH   1   2
BRANCH   1  19
HETATM   19  C   UNL     1      -8.271   7.699  68.350  1.00  0.00    -0.125 A  
HETATM   20  C   UNL     1      -7.940   8.701  67.455  1.00  0.00    -0.106 A  
HETATM   21  C   UNL     1      -8.385   9.966  67.741  1.00  0.00    -0.114 A  
HETATM   22  C   UNL     1      -9.341   7.817  69.223  1.00  0.00    -0.148 A  
HETATM   23  C   UNL     1      -9.376  10.156  68.703  1.00  0.00    -0.161 A  
HETATM   24  C   UNL     1      -9.849   9.075  69.465  1.00  0.00    -0.181 A  
BRANCH  23  25
HETATM   25  C   UNL     1      -9.968  11.492  68.959  1.00  0.00    -0.019 C  
BRANCH  25  26
HETATM   26  N   UNL     1     -10.391  12.278  67.814  1.00  0.00    -0.204 NA 
HETATM   27  C   UNL     1     -12.054   7.478  68.607  1.00  0.00     2.552 C  
HETATM   28  H   UNL     1     -10.191   8.013  67.844  1.00  0.00     0.000 HD 
HETATM   29  N   UNL     1     -11.160   7.955  67.532  1.00  0.00     0.099 NA 
HETATM   30  C   UNL     1     -11.833   8.184  69.970  1.00  0.00     0.432 C  
HETATM   31  C   UNL     1     -11.638   9.237  66.990  1.00  0.00     2.409 C  
HETATM   32  C   UNL     1     -10.642  11.577  66.526  1.00  0.00    -0.258 C  
HETATM   33  N   UNL     1     -12.953   9.028  70.391  1.00  0.00     0.013 NA 
HETATM   34  H   UNL     1     -13.749   8.458  70.676  1.00  0.00     0.000 HD 
HETATM   35  C   UNL     1     -10.519  10.037  66.326  1.00  0.00    -0.172 C  
HETATM   36  C   UNL     1     -12.592   9.988  71.446  1.00  0.00    -0.415 C  
HETATM   37  C   UNL     1     -12.944  11.411  70.976  1.00  0.00    -0.280 C  
HETATM   38  C   UNL     1     -11.932  12.480  71.411  1.00  0.00     0.884 C  
HETATM   39  N   UNL     1     -12.134  13.756  70.707  1.00  0.00    -0.448 NA 
HETATM   40  C   UNL     1     -11.300  14.016  69.509  1.00  0.00    -0.245 C  
HETATM   41  H   UNL     1     -12.821  14.437  71.031  1.00  0.00     0.000 HD 
HETATM   42  C   UNL     1     -11.513  13.164  68.208  1.00  0.00    -0.314 C  
ENDBRANCH  25  26
ENDBRANCH  23  25
ENDBRANCH   1  19
TORSDOF 4
ENDMDL
MODEL      186
REMARK 921   NORMALIZED FREE ENERGY PREDICTED BY IDOCK:   12.86 KCAL/MOL
REMARK 922        TOTAL FREE ENERGY PREDICTED BY IDOCK:   14.29 KCAL/MOL
REMARK 923 INTER-LIGAND FREE ENERGY PREDICTED BY IDOCK:    9.95 KCAL/MOL
REMARK 924 INTRA-LIGAND FREE ENERGY PREDICTED BY IDOCK:    4.34 KCAL/MOL
REMARK 927      BINDING AFFINITY PREDICTED BY RF-SCORE:    0.00 PKD
ROOT
HETATM    1  C   UNL     1      -9.086  17.729  69.294  1.00  0.00     0.250 C  
ENDROOT
BRANCH   1   2
HETATM    2  N   UNL     1      -9.522  18.461  68.121  1.00  0.00    -0.298 NA 
HETATM    3  C   UNL     1      -8.440  18.434  67.111  1.00  0.00    -0.254 C  
HETATM    4  C   UNL     1      -7.871  17.010  66.783  1.00  0.00    -0.239 C  
HETATM    5  C   UNL     1     -10.082  19.831  68.317  1.00  0.00    -0.458 C  
HETATM    6  C   UNL     1     -10.295  20.526  69.697  1.00  0.00     0.382 C  
HETATM    7  H   UNL     1      -5.753  16.591  66.393  1.00  0.00     0.000 HD 
HETATM    8  C   UNL     1      -9.015  20.982  70.402  1.00  0.00     3.309 C  
HETATM    9  N   UNL     1      -6.462  16.689  67.121  1.00  0.00    -0.172 NA 
HETATM   10  C   UNL     1      -6.119  16.516  68.546  1.00  0.00    -0.129 C  
HETATM   11  N   UNL     1      -9.020  20.672  71.841  1.00  0.00     0.691 NA 
HETATM   12  C   UNL     1      -5.609  17.814  69.191  1.00  0.00    -0.195 C  
HETATM   13  H   UNL     1      -9.566  19.834  72.040  1.00  0.00     0.000 HD 
HETATM   14  H   UNL     1      -5.033  19.554  71.675  1.00  0.00     0.000 HD 
HETATM   15  C   UNL     1      -5.565  17.790  70.731  1.00  0.00    -0.042 C  
HETATM   16  C   UNL     1      -7.648  20.561  72.377  1.00  0.00     2.592 C  
HETATM   17  C   UNL     1      -6.999  19.167  72.168  1.00  0.00     3.002 C  
HETATM   18  N   UNL     1      -5.859  19.141  71.245  1.00  0.00    -0.044 NA 
ENDBRANCH   1   2
BRANCH   1  19
HETATM   19  C   UNL     1      -9.084  16.236  69.233  1.00  0.00    -0.185 A  
HETATM   20  C   UNL     1      -8.982  15.580  68.019  1.00  0.00    -0.174 A  
HETATM   21  C   UNL     1      -9.589  14.355  67.918  1.00  0.00    -0.219 A  
HETATM   22  C   UNL     1      -9.360  15.562  70.412  1.00  0.00     0.818 A  
HETATM   23  C   UNL     1     -10.001  13.684  69.068  1.00  0.00     0.088 A  
HETATM   24  C   UNL     1      -9.902  14.298  70.327  1.00  0.00     1.453 A  
BRANCH  23  25
HETATM   25  C   UNL     1     -10.553  12.308  69.012  1.00  0.00    -0.066 C  
BRANCH  25  26
HETATM   26  N   UNL     1     -11.460  11.983  67.925  1.00  0.00    -0.307 NA 
HETATM   27  C   UNL     1      -6.775   9.898  68.301  1.00  0.00    -0.060 C  
HETATM   28  H   UNL     1      -7.204  11.819  67.619  1.00  0.00     0.000 HD 
HETATM   29  N   UNL     1      -7.254  10.856  67.285  1.00  0.00    -0.094 NA 
HETATM   30  C   UNL     1      -7.350  10.143  69.720  1.00  0.00    -0.158 C  
HETATM   31  C   UNL     1      -8.612  10.504  66.838  1.00  0.00    -0.125 C  
HETATM   32  C   UNL     1     -10.885  11.707  66.581  1.00  0.00    -0.283 C  
HETATM   33  N   UNL     1      -8.253   9.088  70.186  1.00  0.00    -0.121 NA 
HETATM   34  H   UNL     1      -7.734   8.239  70.409  1.00  0.00     0.000 HD 
HETATM   35  C   UNL     1      -9.361  11.703  66.261  1.00  0.00    -0.228 C  
HETATM   36  C   UNL     1      -9.093   9.502  71.321  1.00  0.00     0.334 C  
HETATM   37  C   UNL     1     -10.573   9.285  70.959  1.00  0.00    -0.386 C  
HETATM   38  C   UNL     1     -11.514  10.372  71.497  1.00  0.00     0.305 C  
HETATM   39  N   UNL     1     -12.853  10.298  70.894  1.00  0.00    -0.382 NA 
HETATM   40  C   UNL     1     -13.133  11.182  69.736  1.00  0.00     0.657 C  
HETATM   41  H   UNL     1     -13.564   9.663  71.258  1.00  0.00     0.000 HD 
HETATM   42  C   UNL     1     -12.406  10.931  68.367  1.00  0.00     0.687 C  
ENDBRANCH  25  26
ENDBRANCH  23  25
ENDBRANCH   1  19
TORSDOF 4
ENDMDL
MODEL      187
REMARK 921   NORMALIZED FREE ENERGY PREDICTED BY IDOCK:   13.79 KCAL/MOL
REMARK 922        TOTAL FREE ENERGY PREDICTED BY IDOCK:   15.43 KCAL/MOL
REMARK 923 INTER-LIGAND FREE ENERGY PREDICTED BY IDOCK:   10.36 KCAL/MOL
REMARK 924 INTRA-LIGAND FREE ENERGY PREDICTED BY IDOCK:    5.07 KCAL/MOL
REMARK 927      BINDING AFFINITY PREDICTED BY RF-SCORE:    0.00 PKD
ROOT
HETATM    1  C   UNL     1     -10.050   6.007  70.762  1.00  0.00    -0.197 C  
ENDROOT
BRANCH   1   2
HETATM    2  N   UNL     1     -10.815   4.874  70.275  1.00  0.00     0.237 NA 
HETATM    3  C   UNL     1     -11.066   3.947  71.402  1.00  0.00     1.795 C  
HETATM    4  C   UNL     1     -11.678   4.609  72.686  1.00  0.00     0.282 C  
HETATM    5  C   UNL     1     -10.323   4.167  69.056  1.00  0.00     0.735 C  
HETATM    6  C   UNL     1      -9.075   4.583  68.218  1.00  0.00    -0.158 C  
HETATM    7  H   UNL     1     -11.138   4.047  74.736  1.00  0.00     0.000 HD 
HETATM    8  C   UNL     1      -7.723   4.313  68.883  1.00  0.00    -0.058 C  
HETATM    9  N   UNL     1     -10.888   4.637  73.942  1.00  0.00    -0.293 NA 
HETATM   10  C   UNL     1      -9.728   5.547  74.005  1.00  0.00    -0.165 C  
HETATM   11  N   UNL     1      -6.781   5.434  68.728  1.00  0.00    -0.051 NA 
HETATM   12  C   UNL     1      -8.414   4.856  73.609  1.00  0.00    -0.105 C  
HETATM   13  H   UNL     1      -7.271   6.327  68.671  1.00  0.00     0.000 HD 
HETATM   14  H   UNL     1      -5.486   4.967  72.636  1.00  0.00     0.000 HD 
HETATM   15  C   UNL     1      -7.245   5.818  73.322  1.00  0.00    -0.086 C  
HETATM   16  C   UNL     1      -5.767   5.443  69.801  1.00  0.00    -0.016 C  
HETATM   17  C   UNL     1      -6.237   6.134  71.109  1.00  0.00    -0.039 C  
HETATM   18  N   UNL     1      -6.394   5.243  72.264  1.00  0.00    -0.034 NA 
ENDBRANCH   1   2
BRANCH   1  19
HETATM   19  C   UNL     1      -9.641   7.055  69.780  1.00  0.00    -0.151 A  
HETATM   20  C   UNL     1      -8.553   6.856  68.948  1.00  0.00    -0.131 A  
HETATM   21  C   UNL     1      -7.852   7.969  68.561  1.00  0.00    -0.115 A  
HETATM   22  C   UNL     1     -10.286   8.278  69.866  1.00  0.00    -0.218 A  
HETATM   23  C   UNL     1      -8.402   9.237  68.738  1.00  0.00    -0.117 A  
HETATM   24  C   UNL     1      -9.624   9.398  69.411  1.00  0.00    -0.177 A  
BRANCH  23  25
HETATM   25  C   UNL     1      -7.730  10.457  68.227  1.00  0.00    -0.096 C  
BRANCH  25  26
HETATM   26  N   UNL     1      -6.387  10.319  67.690  1.00  0.00    -0.057 NA 
HETATM   27  C   UNL     1      -9.730  13.767  65.854  1.00  0.00    -0.196 C  
HETATM   28  H   UNL     1      -9.730  11.726  65.437  1.00  0.00     0.000 HD 
HETATM   29  N   UNL     1      -9.212  12.564  65.172  1.00  0.00     0.367 NA 
HETATM   30  C   UNL     1      -9.961  13.578  67.376  1.00  0.00    -0.234 C  
HETATM   31  C   UNL     1      -7.768  12.412  65.412  1.00  0.00     2.968 C  
HETATM   32  C   UNL     1      -6.178  10.548  66.235  1.00  0.00    -0.105 C  
HETATM   33  N   UNL     1      -9.057  14.365  68.217  1.00  0.00    -0.187 NA 
HETATM   34  H   UNL     1      -9.296  15.356  68.178  1.00  0.00     0.000 HD 
HETATM   35  C   UNL     1      -7.301  10.968  65.242  1.00  0.00     0.352 C  
HETATM   36  C   UNL     1      -9.001  13.893  69.609  1.00  0.00     1.191 C  
HETATM   37  C   UNL     1      -7.538  13.590  69.981  1.00  0.00     1.354 C  
HETATM   38  C   UNL     1      -7.365  12.363  70.887  1.00  0.00     4.675 C  
HETATM   39  N   UNL     1      -5.962  11.931  70.979  1.00  0.00    -0.504 NA 
HETATM   40  C   UNL     1      -5.522  10.838  70.078  1.00  0.00    -0.057 C  
HETATM   41  H   UNL     1      -5.316  12.367  71.637  1.00  0.00     0.000 HD 
HETATM   42  C   UNL     1      -5.437  11.086  68.530  1.00  0.00    -0.043 C  
ENDBRANCH  25  26
ENDBRANCH  23  25
ENDBRANCH   1  19
TORSDOF 4
ENDMDL
MODEL      188
REMARK 921   NORMALIZED FREE ENERGY PREDICTED BY IDOCK:   13.84 KCAL/MOL
REMARK 922        TOTAL FREE ENERGY PREDICTED BY IDOCK:   15.49 KCAL/MOL
REMARK 923 INTER-LIGAND FREE ENERGY PREDICTED BY IDOCK:    5.48 KCAL/MOL
REMARK 924 INTRA-LIGAND FREE ENERGY PREDICTED BY IDOCK:   10.01 KCAL/MOL
REMARK 927      BINDING AFFINITY PREDICTED BY RF-SCORE:    0.00 PKD
ROOT
HETATM    1  C   UNL     1     -10.497   5.062  72.160  1.00  0.00    -0.210 C  
ENDROOT
BRANCH   1   2
HETATM    2  N   UNL     1      -9.969   4.708  73.464  1.00  0.00    -0.143 NA 
HETATM    3  C   UNL     1     -11.062   4.139  74.284  1.00  0.00     0.141 C  
HETATM    4  C   UNL     1     -11.873   2.981  73.603  1.00  0.00     0.310 C  
HETATM    5  C   UNL     1      -9.180   5.736  74.204  1.00  0.00    -0.128 C  
HETATM    6  C   UNL     1      -8.821   7.154  73.664  1.00  0.00    -0.203 C  
HETATM    7  H   UNL     1     -14.039   2.708  73.812  1.00  0.00     0.000 HD 
HETATM    8  C   UNL     1      -9.988   8.142  73.597  1.00  0.00     0.494 C  
HETATM    9  N   UNL     1     -13.308   3.183  73.282  1.00  0.00     1.020 NA 
HETATM   10  C   UNL     1     -13.643   4.094  72.171  1.00  0.00     5.364 C  
HETATM   11  N   UNL     1     -10.004   8.918  72.347  1.00  0.00    -0.161 NA 
HETATM   12  C   UNL     1     -13.910   5.531  72.646  1.00  0.00     1.513 C  
HETATM   13  H   UNL     1      -9.603   8.387  71.573  1.00  0.00     0.000 HD 
HETATM   14  H   UNL     1     -14.126   8.563  72.106  1.00  0.00     0.000 HD 
HETATM   15  C   UNL     1     -13.922   6.586  71.524  1.00  0.00     0.351 C  
HETATM   16  C   UNL     1     -11.362   9.400  72.024  1.00  0.00    -0.052 C  
HETATM   17  C   UNL     1     -12.243   8.358  71.285  1.00  0.00    -0.277 C  
HETATM   18  N   UNL     1     -13.391   7.858  72.049  1.00  0.00    -0.260 NA 
ENDBRANCH   1   2
BRANCH   1  19
HETATM   19  C   UNL     1      -9.598   5.780  71.208  1.00  0.00    -0.198 A  
HETATM   20  C   UNL     1      -8.391   6.304  71.636  1.00  0.00    -0.129 A  
HETATM   21  C   UNL     1      -7.929   7.420  70.987  1.00  0.00    -0.097 A  
HETATM   22  C   UNL     1     -10.106   6.040  69.945  1.00  0.00    -0.240 A  
HETATM   23  C   UNL     1      -8.490   7.801  69.769  1.00  0.00    -0.133 A  
HETATM   24  C   UNL     1      -9.599   7.116  69.248  1.00  0.00    -0.155 A  
BRANCH  23  25
HETATM   25  C   UNL     1      -7.943   8.931  68.979  1.00  0.00    -0.106 C  
BRANCH  25  26
HETATM   26  N   UNL     1      -6.700   9.534  69.426  1.00  0.00    -0.047 NA 
HETATM   27  C   UNL     1      -6.935   4.690  67.722  1.00  0.00    -0.060 C  
HETATM   28  H   UNL     1      -7.527   5.349  69.607  1.00  0.00     0.000 HD 
HETATM   29  N   UNL     1      -6.666   5.146  69.100  1.00  0.00    -0.051 NA 
HETATM   30  C   UNL     1      -7.969   5.559  66.960  1.00  0.00    -0.102 C  
HETATM   31  C   UNL     1      -5.750   6.299  69.095  1.00  0.00    -0.020 C  
HETATM   32  C   UNL     1      -5.702   8.673  70.116  1.00  0.00    -0.027 C  
HETATM   33  N   UNL     1      -7.402   6.310  65.837  1.00  0.00    -0.078 NA 
HETATM   34  H   UNL     1      -7.172   5.686  65.064  1.00  0.00     0.000 HD 
HETATM   35  C   UNL     1      -5.879   7.145  70.360  1.00  0.00    -0.024 C  
HETATM   36  C   UNL     1      -8.262   7.413  65.383  1.00  0.00    -0.134 C  
HETATM   37  C   UNL     1      -7.460   8.727  65.421  1.00  0.00    -0.086 C  
HETATM   38  C   UNL     1      -8.280   9.946  65.864  1.00  0.00    -0.124 C  
HETATM   39  N   UNL     1      -7.430  11.107  66.173  1.00  0.00    -0.330 NA 
HETATM   40  C   UNL     1      -7.064  11.330  67.593  1.00  0.00    -0.090 C  
HETATM   41  H   UNL     1      -7.104  11.735  65.438  1.00  0.00     0.000 HD 
HETATM   42  C   UNL     1      -6.105  10.323  68.320  1.00  0.00    -0.044 C  
ENDBRANCH  25  26
ENDBRANCH  23  25
ENDBRANCH   1  19
TORSDOF 4
ENDMDL
MODEL      189
REMARK 921   NORMALIZED FREE ENERGY PREDICTED BY IDOCK:   13.92 KCAL/MOL
REMARK 922        TOTAL FREE ENERGY PREDICTED BY IDOCK:   15.60 KCAL/MOL
REMARK 923 INTER-LIGAND FREE ENERGY PREDICTED BY IDOCK:    9.77 KCAL/MOL
REMARK 924 INTRA-LIGAND FREE ENERGY PREDICTED BY IDOCK:    5.83 KCAL/MOL
REMARK 927      BINDING AFFINITY PREDICTED BY RF-SCORE:    0.00 PKD
ROOT
HETATM    1  C   UNL     1      -9.636  11.798  68.498  1.00  0.00    -0.170 C  
ENDROOT
BRANCH   1   2
HETATM    2  N   UNL     1      -9.611  12.607  69.702  1.00  0.00     1.489 NA 
HETATM    3  C   UNL     1     -10.975  12.653  70.274  1.00  0.00     1.210 C  
HETATM    4  C   UNL     1     -11.662  11.257  70.475  1.00  0.00    -0.247 C  
HETATM    5  C   UNL     1      -8.982  13.958  69.625  1.00  0.00     1.191 C  
HETATM    6  C   UNL     1      -8.287  14.556  68.363  1.00  0.00    -0.153 C  
HETATM    7  H   UNL     1     -13.794  10.873  70.133  1.00  0.00     0.000 HD 
HETATM    8  C   UNL     1      -9.233  14.967  67.231  1.00  0.00    -0.201 C  
HETATM    9  N   UNL     1     -12.875  10.918  69.691  1.00  0.00    -0.114 NA 
HETATM   10  C   UNL     1     -12.710  10.649  68.250  1.00  0.00     2.970 C  
HETATM   11  N   UNL     1      -8.741  14.559  65.905  1.00  0.00    -0.038 NA 
HETATM   12  C   UNL     1     -12.932  11.902  67.387  1.00  0.00     4.176 C  
HETATM   13  H   UNL     1      -8.182  13.707  65.961  1.00  0.00     0.000 HD 
HETATM   14  H   UNL     1     -12.569  13.469  64.753  1.00  0.00     0.000 HD 
HETATM   15  C   UNL     1     -12.442  11.772  65.932  1.00  0.00     1.598 C  
HETATM   16  C   UNL     1      -9.846  14.417  64.937  1.00  0.00     0.089 C  
HETATM   17  C   UNL     1     -10.564  13.042  64.996  1.00  0.00    -0.319 C  
HETATM   18  N   UNL     1     -11.953  13.083  65.467  1.00  0.00    -0.398 NA 
ENDBRANCH   1   2
BRANCH   1  19
HETATM   19  C   UNL     1      -8.688  10.647  68.404  1.00  0.00    -0.141 A  
HETATM   20  C   UNL     1      -7.721  10.610  67.415  1.00  0.00    -0.106 A  
HETATM   21  C   UNL     1      -7.331   9.373  66.968  1.00  0.00    -0.087 A  
HETATM   22  C   UNL     1      -8.937   9.563  69.230  1.00  0.00    -0.160 A  
HETATM   23  C   UNL     1      -7.662   8.233  67.698  1.00  0.00    -0.099 A  
HETATM   24  C   UNL     1      -8.486   8.323  68.831  1.00  0.00    -0.128 A  
BRANCH  23  25
HETATM   25  C   UNL     1      -7.160   6.890  67.314  1.00  0.00    -0.084 C  
BRANCH  25  26
HETATM   26  N   UNL     1      -7.920   5.731  67.749  1.00  0.00    -0.098 NA 
HETATM   27  C   UNL     1      -9.973   9.398  64.788  1.00  0.00     0.644 C  
HETATM   28  H   UNL     1      -9.655   9.526  66.843  1.00  0.00     0.000 HD 
HETATM   29  N   UNL     1     -10.306   9.085  66.192  1.00  0.00    -0.101 NA 
HETATM   30  C   UNL     1      -8.470   9.233  64.444  1.00  0.00    -0.188 C  
HETATM   31  C   UNL     1     -10.379   7.629  66.396  1.00  0.00     0.144 C  
HETATM   32  C   UNL     1      -9.371   5.900  68.032  1.00  0.00    -0.111 C  
HETATM   33  N   UNL     1      -8.190   8.136  63.516  1.00  0.00    -0.333 NA 
HETATM   34  H   UNL     1      -8.506   8.367  62.575  1.00  0.00     0.000 HD 
HETATM   35  C   UNL     1     -10.151   7.236  67.854  1.00  0.00    -0.217 C  
HETATM   36  C   UNL     1      -6.776   7.729  63.509  1.00  0.00    -0.062 C  
HETATM   37  C   UNL     1      -6.682   6.223  63.813  1.00  0.00    -0.037 C  
HETATM   38  C   UNL     1      -5.479   5.836  64.685  1.00  0.00    -0.016 C  
HETATM   39  N   UNL     1      -5.582   4.461  65.197  1.00  0.00    -0.013 NA 
HETATM   40  C   UNL     1      -6.132   4.277  66.562  1.00  0.00    -0.031 C  
HETATM   41  H   UNL     1      -5.287   3.663  64.635  1.00  0.00     0.000 HD 
HETATM   42  C   UNL     1      -7.644   4.589  66.845  1.00  0.00    -0.086 C  
ENDBRANCH  25  26
ENDBRANCH  23  25
ENDBRANCH   1  19
TORSDOF 4
ENDMDL
MODEL      190
REMARK 921   NORMALIZED FREE ENERGY PREDICTED BY IDOCK:   14.08 KCAL/MOL
REMARK 922        TOTAL FREE ENERGY PREDICTED BY IDOCK:   15.79 KCAL/MOL
REMARK 923 INTER-LIGAND FREE ENERGY PREDICTED BY IDOCK:    7.77 KCAL/MOL
REMARK 924 INTRA-LIGAND FREE ENERGY PREDICTED BY IDOCK:    8.02 KCAL/MOL
REMARK 927      BINDING AFFINITY PREDICTED BY RF-SCORE:    0.00 PKD
ROOT
HETATM    1  C   UNL     1     -10.136   4.951  66.010  1.00  0.00    -0.239 C  
ENDROOT
BRANCH   1   2
HETATM    2  N   UNL     1     -11.503   5.187  65.587  1.00  0.00     0.532 NA 
HETATM    3  C   UNL     1     -11.636   4.799  64.165  1.00  0.00     1.951 C  
HETATM    4  C   UNL     1     -11.113   3.362  63.815  1.00  0.00     0.117 C  
HETATM    5  C   UNL     1     -12.103   6.524  65.870  1.00  0.00     5.215 C  
HETATM    6  C   UNL     1     -11.398   7.681  66.642  1.00  0.00     1.629 C  
HETATM    7  H   UNL     1     -10.061   2.854  61.959  1.00  0.00     0.000 HD 
HETATM    8  C   UNL     1     -10.271   8.383  65.880  1.00  0.00     0.698 C  
HETATM    9  N   UNL     1      -9.947   3.208  62.910  1.00  0.00    -0.096 NA 
HETATM   10  C   UNL     1      -8.619   3.583  63.430  1.00  0.00    -0.090 C  
HETATM   11  N   UNL     1      -9.088   8.632  66.720  1.00  0.00    -0.142 NA 
HETATM   12  C   UNL     1      -8.242   5.034  63.092  1.00  0.00    -0.107 C  
HETATM   13  H   UNL     1      -8.990   7.922  67.446  1.00  0.00     0.000 HD 
HETATM   14  H   UNL     1      -6.574   7.582  63.598  1.00  0.00     0.000 HD 
HETATM   15  C   UNL     1      -7.044   5.586  63.889  1.00  0.00    -0.049 C  
HETATM   16  C   UNL     1      -7.860   8.746  65.908  1.00  0.00    -0.102 C  
HETATM   17  C   UNL     1      -7.210   7.382  65.551  1.00  0.00    -0.066 C  
HETATM   18  N   UNL     1      -7.245   7.028  64.128  1.00  0.00    -0.063 NA 
ENDBRANCH   1   2
BRANCH   1  19
HETATM   19  C   UNL     1      -9.900   4.512  67.419  1.00  0.00    -0.204 A  
HETATM   20  C   UNL     1     -10.714   4.962  68.443  1.00  0.00     0.416 A  
HETATM   21  C   UNL     1     -10.148   5.077  69.687  1.00  0.00    -0.321 A  
HETATM   22  C   UNL     1      -8.743   3.789  67.663  1.00  0.00    -0.121 A  
HETATM   23  C   UNL     1      -8.922   4.472  69.953  1.00  0.00    -0.145 A  
HETATM   24  C   UNL     1      -8.202   3.834  68.930  1.00  0.00    -0.084 A  
BRANCH  23  25
HETATM   25  C   UNL     1      -8.331   4.472  71.315  1.00  0.00    -0.103 C  
BRANCH  25  26
HETATM   26  N   UNL     1      -9.016   3.720  72.352  1.00  0.00    -0.103 NA 
HETATM   27  C   UNL     1      -5.274   7.080  73.420  1.00  0.00    -0.042 C  
HETATM   28  H   UNL     1      -5.006   5.150  72.684  1.00  0.00     0.000 HD 
HETATM   29  N   UNL     1      -5.232   5.612  73.565  1.00  0.00    -0.022 NA 
HETATM   30  C   UNL     1      -6.074   7.569  72.185  1.00  0.00    -0.039 C  
HETATM   31  C   UNL     1      -6.493   5.110  74.136  1.00  0.00    -0.069 C  
HETATM   32  C   UNL     1      -8.240   3.299  73.550  1.00  0.00    -0.074 C  
HETATM   33  N   UNL     1      -7.308   8.284  72.521  1.00  0.00    -0.114 NA 
HETATM   34  H   UNL     1      -7.100   9.205  72.905  1.00  0.00     0.000 HD 
HETATM   35  C   UNL     1      -6.741   3.643  73.792  1.00  0.00    -0.044 C  
HETATM   36  C   UNL     1      -8.246   8.386  71.392  1.00  0.00    -0.139 C  
HETATM   37  C   UNL     1      -9.606   7.798  71.811  1.00  0.00    -0.204 C  
HETATM   38  C   UNL     1     -10.320   7.023  70.695  1.00  0.00    -0.207 C  
HETATM   39  N   UNL     1     -11.454   6.235  71.203  1.00  0.00    -0.314 NA 
HETATM   40  C   UNL     1     -11.213   4.803  71.504  1.00  0.00     0.693 C  
HETATM   41  H   UNL     1     -12.372   6.657  71.342  1.00  0.00     0.000 HD 
HETATM   42  C   UNL     1     -10.283   4.403  72.704  1.00  0.00    -0.180 C  
ENDBRANCH  25  26
ENDBRANCH  23  25
ENDBRANCH   1  19
TORSDOF 4
ENDMDL
MODEL      191
REMARK 921   NORMALIZED FREE ENERGY PREDICTED BY IDOCK:   14.09 KCAL/MOL
REMARK 922        TOTAL FREE ENERGY PREDICTED BY IDOCK:   15.81 KCAL/MOL
REMARK 923 INTER-LIGAND FREE ENERGY PREDICTED BY IDOCK:   11.85 KCAL/MOL
REMARK 924 INTRA-LIGAND FREE ENERGY PREDICTED BY IDOCK:    3.95 KCAL/MOL
REMARK 927      BINDING AFFINITY PREDICTED BY RF-SCORE:    0.00 PKD
ROOT
HETATM    1  C   UNL     1      -9.241   5.366  67.556  1.00  0.00    -0.112 C  
ENDROOT
BRANCH   1   2
HETATM    2  N   UNL     1     -10.338   4.784  68.305  1.00  0.00     0.023 NA 
HETATM    3  C   UNL     1     -10.026   4.865  69.750  1.00  0.00    -0.244 C  
HETATM    4  C   UNL     1      -9.605   6.286  70.262  1.00  0.00    -0.164 C  
HETATM    5  C   UNL     1     -10.821   3.430  67.903  1.00  0.00     4.300 C  
HETATM    6  C   UNL     1     -10.280   2.604  66.696  1.00  0.00     1.833 C  
HETATM    7  H   UNL     1      -8.055   6.640  71.774  1.00  0.00     0.000 HD 
HETATM    8  C   UNL     1      -8.880   2.014  66.884  1.00  0.00    -0.128 C  
HETATM    9  N   UNL     1      -8.229   6.500  70.778  1.00  0.00    -0.123 NA 
HETATM   10  C   UNL     1      -7.122   6.505  69.803  1.00  0.00    -0.072 C  
HETATM   11  N   UNL     1      -8.034   2.171  65.689  1.00  0.00    -0.077 NA 
HETATM   12  C   UNL     1      -6.469   5.123  69.646  1.00  0.00    -0.038 C  
HETATM   13  H   UNL     1      -8.283   3.009  65.163  1.00  0.00     0.000 HD 
HETATM   14  H   UNL     1      -4.761   3.104  68.054  1.00  0.00     0.000 HD 
HETATM   15  C   UNL     1      -5.556   4.982  68.414  1.00  0.00    -0.016 C  
HETATM   16  C   UNL     1      -6.599   2.157  66.035  1.00  0.00    -0.027 C  
HETATM   17  C   UNL     1      -6.048   3.532  66.497  1.00  0.00    -0.024 C  
HETATM   18  N   UNL     1      -5.639   3.600  67.905  1.00  0.00    -0.020 NA 
ENDBRANCH   1   2
BRANCH   1  19
HETATM   19  C   UNL     1      -8.981   6.829  67.709  1.00  0.00    -0.116 A  
HETATM   20  C   UNL     1     -10.031   7.724  67.821  1.00  0.00    -0.220 A  
HETATM   21  C   UNL     1      -9.825   8.991  67.340  1.00  0.00    -0.244 A  
HETATM   22  C   UNL     1      -7.669   7.250  67.560  1.00  0.00    -0.111 A  
HETATM   23  C   UNL     1      -8.533   9.427  67.054  1.00  0.00    -0.127 A  
HETATM   24  C   UNL     1      -7.444   8.546  67.149  1.00  0.00    -0.085 A  
BRANCH  23  25
HETATM   25  C   UNL     1      -8.255  10.826  66.645  1.00  0.00    -0.140 C  
BRANCH  25  26
HETATM   26  N   UNL     1      -8.641  11.232  65.305  1.00  0.00     0.025 NA 
HETATM   27  C   UNL     1     -10.341  13.668  69.502  1.00  0.00     0.439 C  
HETATM   28  H   UNL     1     -11.049  11.848  68.777  1.00  0.00     0.000 HD 
HETATM   29  N   UNL     1     -11.125  12.842  68.562  1.00  0.00    -0.251 NA 
HETATM   30  C   UNL     1      -8.902  13.146  69.751  1.00  0.00     2.355 C  
HETATM   31  C   UNL     1     -10.738  13.130  67.171  1.00  0.00    -0.255 C  
HETATM   32  C   UNL     1     -10.011  11.772  65.095  1.00  0.00    -0.253 C  
HETATM   33  N   UNL     1      -7.853  14.022  69.225  1.00  0.00    -0.340 NA 
HETATM   34  H   UNL     1      -7.774  14.871  69.786  1.00  0.00     0.000 HD 
HETATM   35  C   UNL     1     -11.060  11.972  66.229  1.00  0.00    -0.363 C  
HETATM   36  C   UNL     1      -6.547  13.355  69.100  1.00  0.00    -0.106 C  
HETATM   37  C   UNL     1      -6.052  13.486  67.648  1.00  0.00    -0.120 C  
HETATM   38  C   UNL     1      -5.320  12.242  67.124  1.00  0.00    -0.063 C  
HETATM   39  N   UNL     1      -5.125  12.283  65.667  1.00  0.00     0.843 NA 
HETATM   40  C   UNL     1      -6.117  11.572  64.823  1.00  0.00     2.048 C  
HETATM   41  H   UNL     1      -4.338  12.781  65.251  1.00  0.00     0.000 HD 
HETATM   42  C   UNL     1      -7.590  12.105  64.730  1.00  0.00     3.825 C  
ENDBRANCH  25  26
ENDBRANCH  23  25
ENDBRANCH   1  19
TORSDOF 4
ENDMDL
MODEL      192
REMARK 921   NORMALIZED FREE ENERGY PREDICTED BY IDOCK:   14.77 KCAL/MOL
REMARK 922        TOTAL FREE ENERGY PREDICTED BY IDOCK:   16.64 KCAL/MOL
REMARK 923 INTER-LIGAND FREE ENERGY PREDICTED BY IDOCK:    7.76 KCAL/MOL
REMARK 924 INTRA-LIGAND FREE ENERGY PREDICTED BY IDOCK:    8.88 KCAL/MOL
REMARK 927      BINDING AFFINITY PREDICTED BY RF-SCORE:    0.00 PKD
ROOT
HETATM    1  C   UNL     1     -12.372  13.015  69.577  1.00  0.00    -0.012 C  
ENDROOT
BRANCH   1   2
HETATM    2  N   UNL     1     -11.538  11.876  69.244  1.00  0.00    -0.290 NA 
HETATM    3  C   UNL     1     -11.727  10.829  70.273  1.00  0.00    -0.352 C  
HETATM    4  C   UNL     1     -13.219  10.446  70.569  1.00  0.00    -0.037 C  
HETATM    5  C   UNL     1     -10.097  12.125  68.944  1.00  0.00     0.006 C  
HETATM    6  C   UNL     1      -9.418  13.528  68.900  1.00  0.00     0.155 C  
HETATM    7  H   UNL     1     -13.996   9.973  72.565  1.00  0.00     0.000 HD 
HETATM    8  C   UNL     1      -9.219  14.200  70.261  1.00  0.00     2.268 C  
HETATM    9  N   UNL     1     -13.796  10.728  71.907  1.00  0.00     0.115 NA 
HETATM   10  C   UNL     1     -14.070  12.135  72.255  1.00  0.00     0.524 C  
HETATM   11  N   UNL     1      -9.567  15.630  70.244  1.00  0.00    -0.009 NA 
HETATM   12  C   UNL     1     -12.904  12.794  73.008  1.00  0.00     1.876 C  
HETATM   13  H   UNL     1     -10.300  15.827  69.563  1.00  0.00     0.000 HD 
HETATM   14  H   UNL     1     -11.371  15.298  73.960  1.00  0.00     0.000 HD 
HETATM   15  C   UNL     1     -12.983  14.330  73.092  1.00  0.00    -0.319 C  
HETATM   16  C   UNL     1      -9.936  16.115  71.589  1.00  0.00     3.561 C  
HETATM   17  C   UNL     1     -11.417  15.849  71.972  1.00  0.00    -0.324 C  
HETATM   18  N   UNL     1     -11.617  14.887  73.061  1.00  0.00    -0.137 NA 
ENDBRANCH   1   2
BRANCH   1  19
HETATM   19  C   UNL     1     -12.247  14.247  68.742  1.00  0.00    -0.226 A  
HETATM   20  C   UNL     1     -11.838  14.167  67.422  1.00  0.00    -0.447 A  
HETATM   21  C   UNL     1     -11.155  15.241  66.913  1.00  0.00    -0.288 A  
HETATM   22  C   UNL     1     -12.389  15.462  69.395  1.00  0.00    -0.161 A  
HETATM   23  C   UNL     1     -11.161  16.457  67.594  1.00  0.00    -0.072 A  
HETATM   24  C   UNL     1     -11.770  16.568  68.855  1.00  0.00     0.079 A  
BRANCH  23  25
HETATM   25  C   UNL     1     -10.535  17.675  67.020  1.00  0.00    -0.305 C  
BRANCH  25  26
HETATM   26  N   UNL     1     -11.125  18.241  65.820  1.00  0.00     0.210 NA 
HETATM   27  C   UNL     1      -6.814  20.116  67.903  1.00  0.00    -0.278 C  
HETATM   28  H   UNL     1      -8.750  20.456  68.593  1.00  0.00     0.000 HD 
HETATM   29  N   UNL     1      -8.139  20.766  67.838  1.00  0.00    -0.000 NA 
HETATM   30  C   UNL     1      -6.875  18.582  68.126  1.00  0.00    -0.229 C  
HETATM   31  C   UNL     1      -8.754  20.560  66.517  1.00  0.00     0.004 C  
HETATM   32  C   UNL     1     -11.017  19.709  65.603  1.00  0.00    -0.129 C  
HETATM   33  N   UNL     1      -6.410  17.797  66.980  1.00  0.00    -0.155 NA 
HETATM   34  H   UNL     1      -5.398  17.866  66.880  1.00  0.00     0.000 HD 
HETATM   35  C   UNL     1     -10.275  20.687  66.561  1.00  0.00    -0.009 C  
HETATM   36  C   UNL     1      -6.837  16.389  67.031  1.00  0.00    -0.210 C  
HETATM   37  C   UNL     1      -7.597  16.046  65.737  1.00  0.00     1.945 C  
HETATM   38  C   UNL     1      -8.787  15.099  65.946  1.00  0.00     0.266 C  
HETATM   39  N   UNL     1      -9.657  15.029  64.762  1.00  0.00    -0.200 NA 
HETATM   40  C   UNL     1     -10.858  15.899  64.742  1.00  0.00    -0.324 C  
HETATM   41  H   UNL     1      -9.443  14.406  63.983  1.00  0.00     0.000 HD 
HETATM   42  C   UNL     1     -10.694  17.457  64.638  1.00  0.00     1.267 C  
ENDBRANCH  25  26
ENDBRANCH  23  25
ENDBRANCH   1  19
TORSDOF 4
ENDMDL
MODEL      193
REMARK 921   NORMALIZED FREE ENERGY PREDICTED BY IDOCK:   16.76 KCAL/MOL
REMARK 922        TOTAL FREE ENERGY PREDICTED BY IDOCK:   19.10 KCAL/MOL
REMARK 923 INTER-LIGAND FREE ENERGY PREDICTED BY IDOCK:    6.81 KCAL/MOL
REMARK 924 INTRA-LIGAND FREE ENERGY PREDICTED BY IDOCK:   12.29 KCAL/MOL
REMARK 927      BINDING AFFINITY PREDICTED BY RF-SCORE:    0.00 PKD
ROOT
HETATM    1  C   UNL     1      -7.382   6.522  68.537  1.00  0.00    -0.087 C  
ENDROOT
BRANCH   1   2
HETATM    2  N   UNL     1      -6.039   6.601  67.996  1.00  0.00    -0.027 NA 
HETATM    3  C   UNL     1      -5.392   5.276  68.128  1.00  0.00    -0.008 C  
HETATM    4  C   UNL     1      -6.222   4.070  67.565  1.00  0.00    -0.036 C  
HETATM    5  C   UNL     1      -5.158   7.711  68.464  1.00  0.00    -0.025 C  
HETATM    6  C   UNL     1      -5.585   8.841  69.451  1.00  0.00    -0.035 C  
HETATM    7  H   UNL     1      -6.305   2.088  68.501  1.00  0.00     0.000 HD 
HETATM    8  C   UNL     1      -5.756   8.404  70.909  1.00  0.00    -0.032 C  
HETATM    9  N   UNL     1      -6.715   3.023  68.494  1.00  0.00    -0.040 NA 
HETATM   10  C   UNL     1      -7.818   3.377  69.407  1.00  0.00    -0.050 C  
HETATM   11  N   UNL     1      -6.963   8.971  71.532  1.00  0.00    -0.237 NA 
HETATM   12  C   UNL     1      -7.317   3.860  70.777  1.00  0.00    -0.041 C  
HETATM   13  H   UNL     1      -7.701   9.124  70.845  1.00  0.00     0.000 HD 
HETATM   14  H   UNL     1      -7.745   5.373  73.434  1.00  0.00     0.000 HD 
HETATM   15  C   UNL     1      -8.384   4.562  71.638  1.00  0.00    -0.103 C  
HETATM   16  C   UNL     1      -7.435   8.138  72.657  1.00  0.00    -0.121 C  
HETATM   17  C   UNL     1      -8.326   6.943  72.226  1.00  0.00    -0.104 C  
HETATM   18  N   UNL     1      -7.739   5.617  72.444  1.00  0.00    -0.101 NA 
ENDBRANCH   1   2
BRANCH   1  19
HETATM   19  C   UNL     1      -8.295   7.686  68.330  1.00  0.00    -0.125 A  
HETATM   20  C   UNL     1      -9.389   7.880  69.154  1.00  0.00    -0.154 A  
HETATM   21  C   UNL     1     -10.482   8.502  68.607  1.00  0.00    -0.200 A  
HETATM   22  C   UNL     1      -8.092   8.444  67.187  1.00  0.00    -0.104 A  
HETATM   23  C   UNL     1     -10.364   9.176  67.393  1.00  0.00    -0.330 A  
HETATM   24  C   UNL     1      -9.164   9.136  66.666  1.00  0.00    -0.207 A  
BRANCH  23  25
HETATM   25  C   UNL     1     -11.489   9.960  66.825  1.00  0.00     1.301 C  
BRANCH  25  26
HETATM   26  N   UNL     1     -12.193  10.875  67.706  1.00  0.00     0.147 NA 
HETATM   27  C   UNL     1      -7.089  11.031  67.107  1.00  0.00    -0.104 C  
HETATM   28  H   UNL     1      -8.139   9.657  68.268  1.00  0.00     0.000 HD 
HETATM   29  N   UNL     1      -7.841  10.631  68.313  1.00  0.00    -0.108 NA 
HETATM   30  C   UNL     1      -7.756  10.597  65.776  1.00  0.00    -0.130 C  
HETATM   31  C   UNL     1      -8.977  11.540  68.541  1.00  0.00    -0.146 C  
HETATM   32  C   UNL     1     -11.518  11.314  68.958  1.00  0.00    -0.302 C  
HETATM   33  N   UNL     1      -8.248  11.714  64.967  1.00  0.00     0.193 NA 
HETATM   34  H   UNL     1      -7.473  12.232  64.553  1.00  0.00     0.000 HD 
HETATM   35  C   UNL     1     -10.079  10.890  69.375  1.00  0.00    -0.116 C  
HETATM   36  C   UNL     1      -9.213  11.303  63.935  1.00  0.00    -0.062 C  
HETATM   37  C   UNL     1     -10.514  12.108  64.111  1.00  0.00    -0.395 C  
HETATM   38  C   UNL     1     -11.790  11.300  63.832  1.00  0.00     0.346 C  
HETATM   39  N   UNL     1     -13.001  11.998  64.289  1.00  0.00    -0.634 NA 
HETATM   40  C   UNL     1     -13.536  11.639  65.625  1.00  0.00     6.438 C  
HETATM   41  H   UNL     1     -13.457  12.704  63.710  1.00  0.00     0.000 HD 
HETATM   42  C   UNL     1     -12.727  12.011  66.918  1.00  0.00     2.553 C  
ENDBRANCH  25  26
ENDBRANCH  23  25
ENDBRANCH   1  19
TORSDOF 4
ENDMDL
MODEL      194
REMARK 921   NORMALIZED FREE ENERGY PREDICTED BY IDOCK:   18.63 KCAL/MOL
REMARK 922        TOTAL FREE ENERGY PREDICTED BY IDOCK:   21.41 KCAL/MOL
REMARK 923 INTER-LIGAND FREE ENERGY PREDICTED BY IDOCK:    9.10 KCAL/MOL
REMARK 924 INTRA-LIGAND FREE ENERGY PREDICTED BY IDOCK:   12.31 KCAL/MOL
REMARK 927      BINDING AFFINITY PREDICTED BY RF-SCORE:    0.00 PKD
ROOT
HETATM    1  C   UNL     1     -12.042  11.107  69.277  1.00  0.00    -0.308 C  
ENDROOT
BRANCH   1   2
HETATM    2  N   UNL     1     -12.598  11.370  70.591  1.00  0.00    -0.298 NA 
HETATM    3  C   UNL     1     -11.678  12.267  71.327  1.00  0.00     1.378 C  
HETATM    4  C   UNL     1     -11.253  13.565  70.556  1.00  0.00     0.707 C  
HETATM    5  C   UNL     1     -13.036  10.205  71.414  1.00  0.00    -0.429 C  
HETATM    6  C   UNL     1     -13.002   8.716  70.953  1.00  0.00     0.165 C  
HETATM    7  H   UNL     1      -9.245  14.444  70.639  1.00  0.00     0.000 HD 
HETATM    8  C   UNL     1     -11.607   8.091  70.868  1.00  0.00    -0.269 C  
HETATM    9  N   UNL     1      -9.833  13.755  70.169  1.00  0.00     1.818 NA 
HETATM   10  C   UNL     1      -9.298  12.914  69.081  1.00  0.00     0.674 C  
HETATM   11  N   UNL     1     -11.421   7.282  69.652  1.00  0.00    -0.496 NA 
HETATM   12  C   UNL     1      -8.619  11.637  69.603  1.00  0.00     1.254 C  
HETATM   13  H   UNL     1     -11.985   7.637  68.879  1.00  0.00     0.000 HD 
HETATM   14  H   UNL     1      -7.579   8.762  69.180  1.00  0.00     0.000 HD 
HETATM   15  C   UNL     1      -8.353  10.568  68.526  1.00  0.00    -0.129 C  
HETATM   16  C   UNL     1      -9.996   7.182  69.279  1.00  0.00    -0.168 C  
HETATM   17  C   UNL     1      -9.473   8.386  68.451  1.00  0.00    -0.139 C  
HETATM   18  N   UNL     1      -8.484   9.229  69.132  1.00  0.00    -0.128 NA 
ENDBRANCH   1   2
BRANCH   1  19
HETATM   19  C   UNL     1     -11.845  12.261  68.350  1.00  0.00    -0.358 A  
HETATM   20  C   UNL     1     -10.842  12.237  67.397  1.00  0.00    -0.277 A  
HETATM   21  C   UNL     1     -10.295  13.442  67.035  1.00  0.00    -0.247 A  
HETATM   22  C   UNL     1     -12.588  13.403  68.606  1.00  0.00     0.611 A  
HETATM   23  C   UNL     1     -10.939  14.630  67.375  1.00  0.00    -0.309 A  
HETATM   24  C   UNL     1     -12.088  14.615  68.182  1.00  0.00    -0.199 A  
BRANCH  23  25
HETATM   25  C   UNL     1     -10.445  15.947  66.902  1.00  0.00    -0.309 C  
BRANCH  25  26
HETATM   26  N   UNL     1     -10.210  16.113  65.479  1.00  0.00    -0.498 NA 
HETATM   27  C   UNL     1     -10.288  20.098  68.727  1.00  0.00    -0.121 C  
HETATM   28  H   UNL     1     -11.957  19.101  67.979  1.00  0.00     0.000 HD 
HETATM   29  N   UNL     1     -11.266  19.783  67.666  1.00  0.00     0.021 NA 
HETATM   30  C   UNL     1      -9.716  18.850  69.448  1.00  0.00     0.015 C  
HETATM   31  C   UNL     1     -10.579  19.341  66.441  1.00  0.00    -0.450 C  
HETATM   32  C   UNL     1     -10.728  17.339  64.813  1.00  0.00     0.685 C  
HETATM   33  N   UNL     1      -8.293  18.618  69.196  1.00  0.00    -0.057 NA 
HETATM   34  H   UNL     1      -7.721  19.311  69.679  1.00  0.00     0.000 HD 
HETATM   35  C   UNL     1     -11.478  18.488  65.549  1.00  0.00     1.844 C  
HETATM   36  C   UNL     1      -7.858  17.253  69.535  1.00  0.00     0.458 C  
HETATM   37  C   UNL     1      -7.200  16.613  68.299  1.00  0.00    -0.169 C  
HETATM   38  C   UNL     1      -7.506  15.118  68.134  1.00  0.00    -0.114 C  
HETATM   39  N   UNL     1      -7.116  14.612  66.809  1.00  0.00    -0.123 NA 
HETATM   40  C   UNL     1      -8.169  14.542  65.766  1.00  0.00     2.547 C  
HETATM   41  H   UNL     1      -6.158  14.322  66.613  1.00  0.00     0.000 HD 
HETATM   42  C   UNL     1      -8.779  15.864  65.180  1.00  0.00     2.520 C  
ENDBRANCH  25  26
ENDBRANCH  23  25
ENDBRANCH   1  19
TORSDOF 4
ENDMDL
MODEL      195
REMARK 921   NORMALIZED FREE ENERGY PREDICTED BY IDOCK:   20.40 KCAL/MOL
REMARK 922        TOTAL FREE ENERGY PREDICTED BY IDOCK:   23.59 KCAL/MOL
REMARK 923 INTER-LIGAND FREE ENERGY PREDICTED BY IDOCK:   10.56 KCAL/MOL
REMARK 924 INTRA-LIGAND FREE ENERGY PREDICTED BY IDOCK:   13.03 KCAL/MOL
REMARK 927      BINDING AFFINITY PREDICTED BY RF-SCORE:    0.00 PKD
ROOT
HETATM    1  C   UNL     1      -7.397  11.531  66.292  1.00  0.00     0.133 C  
ENDROOT
BRANCH   1   2
HETATM    2  N   UNL     1      -6.506  11.631  65.152  1.00  0.00     1.331 NA 
HETATM    3  C   UNL     1      -5.850  12.958  65.172  1.00  0.00     8.636 C  
HETATM    4  C   UNL     1      -5.170  13.344  66.532  1.00  0.00     2.521 C  
HETATM    5  C   UNL     1      -7.049  11.287  63.805  1.00  0.00     1.458 C  
HETATM    6  C   UNL     1      -8.492  10.767  63.524  1.00  0.00    -0.022 C  
HETATM    7  H   UNL     1      -5.179  15.366  67.382  1.00  0.00     0.000 HD 
HETATM    8  C   UNL     1      -9.603  11.810  63.671  1.00  0.00    -0.189 C  
HETATM    9  N   UNL     1      -5.697  14.490  67.315  1.00  0.00    -0.195 NA 
HETATM   10  C   UNL     1      -6.996  14.320  67.994  1.00  0.00    -0.144 C  
HETATM   11  N   UNL     1     -10.780  11.289  64.383  1.00  0.00    -0.348 NA 
HETATM   12  C   UNL     1      -8.176  14.814  67.141  1.00  0.00    -0.239 C  
HETATM   13  H   UNL     1     -10.520  10.569  65.058  1.00  0.00     0.000 HD 
HETATM   14  H   UNL     1     -11.185  14.856  66.453  1.00  0.00     0.000 HD 
HETATM   15  C   UNL     1      -9.560  14.355  67.636  1.00  0.00    -0.214 C  
HETATM   16  C   UNL     1     -11.552  12.373  65.023  1.00  0.00    -0.345 C  
HETATM   17  C   UNL     1     -11.010  12.800  66.413  1.00  0.00    -0.276 C  
HETATM   18  N   UNL     1     -10.447  14.153  66.475  1.00  0.00    -0.277 NA 
ENDBRANCH   1   2
BRANCH   1  19
HETATM   19  C   UNL     1      -7.805  10.169  66.749  1.00  0.00    -0.108 A  
HETATM   20  C   UNL     1      -9.100   9.719  66.557  1.00  0.00    -0.182 A  
HETATM   21  C   UNL     1      -9.595   8.830  67.475  1.00  0.00    -0.192 A  
HETATM   22  C   UNL     1      -6.889   9.466  67.515  1.00  0.00    -0.076 A  
HETATM   23  C   UNL     1      -8.731   8.184  68.357  1.00  0.00    -0.134 A  
HETATM   24  C   UNL     1      -7.366   8.514  68.391  1.00  0.00    -0.094 A  
BRANCH  23  25
HETATM   25  C   UNL     1      -9.209   7.129  69.284  1.00  0.00    -0.140 C  
BRANCH  25  26
HETATM   26  N   UNL     1      -8.267   6.600  70.255  1.00  0.00    -0.124 NA 
HETATM   27  C   UNL     1      -9.126  11.642  69.738  1.00  0.00     1.708 C  
HETATM   28  H   UNL     1      -7.951  10.470  68.479  1.00  0.00     0.000 HD 
HETATM   29  N   UNL     1      -7.894  10.901  69.402  1.00  0.00    -0.093 NA 
HETATM   30  C   UNL     1     -10.433  10.860  69.445  1.00  0.00    -0.173 C  
HETATM   31  C   UNL     1      -7.582   9.913  70.447  1.00  0.00    -0.099 C  
HETATM   32  C   UNL     1      -7.041   7.388  70.555  1.00  0.00    -0.057 C  
HETATM   33  N   UNL     1     -11.184  10.487  70.646  1.00  0.00    -0.411 NA 
HETATM   34  H   UNL     1     -11.623  11.305  71.068  1.00  0.00     0.000 HD 
HETATM   35  C   UNL     1      -6.710   8.773  69.925  1.00  0.00    -0.045 C  
HETATM   36  C   UNL     1     -12.175   9.426  70.405  1.00  0.00     0.114 C  
HETATM   37  C   UNL     1     -11.909   8.259  71.373  1.00  0.00    -0.330 C  
HETATM   38  C   UNL     1     -12.143   6.872  70.757  1.00  0.00    -0.349 C  
HETATM   39  N   UNL     1     -11.604   5.791  71.596  1.00  0.00    -0.115 NA 
HETATM   40  C   UNL     1     -10.253   5.277  71.266  1.00  0.00    -0.224 C  
HETATM   41  H   UNL     1     -12.139   5.410  72.376  1.00  0.00     0.000 HD 
HETATM   42  C   UNL     1      -8.995   6.190  71.480  1.00  0.00    -0.143 C  
ENDBRANCH  25  26
ENDBRANCH  23  25
ENDBRANCH   1  19
TORSDOF 4
ENDMDL
MODEL      196
REMARK 921   NORMALIZED FREE ENERGY PREDICTED BY IDOCK:   22.02 KCAL/MOL
REMARK 922        TOTAL FREE ENERGY PREDICTED BY IDOCK:   25.59 KCAL/MOL
REMARK 923 INTER-LIGAND FREE ENERGY PREDICTED BY IDOCK:   11.76 KCAL/MOL
REMARK 924 INTRA-LIGAND FREE ENERGY PREDICTED BY IDOCK:   13.83 KCAL/MOL
REMARK 927      BINDING AFFINITY PREDICTED BY RF-SCORE:    0.00 PKD
ROOT
HETATM    1  C   UNL     1      -8.107   6.365  68.367  1.00  0.00    -0.113 C  
ENDROOT
BRANCH   1   2
HETATM    2  N   UNL     1      -7.326   5.915  69.503  1.00  0.00    -0.073 NA 
HETATM    3  C   UNL     1      -6.110   5.232  69.007  1.00  0.00    -0.025 C  
HETATM    4  C   UNL     1      -5.274   6.040  67.954  1.00  0.00    -0.004 C  
HETATM    5  C   UNL     1      -8.021   5.134  70.568  1.00  0.00    -0.090 C  
HETATM    6  C   UNL     1      -9.546   4.808  70.592  1.00  0.00    -0.255 C  
HETATM    7  H   UNL     1      -4.270   5.139  66.225  1.00  0.00     0.000 HD 
HETATM    8  C   UNL     1     -10.007   3.766  69.570  1.00  0.00     0.243 C  
HETATM    9  N   UNL     1      -5.150   5.527  66.567  1.00  0.00    -0.005 NA 
HETATM   10  C   UNL     1      -6.340   5.596  65.699  1.00  0.00    -0.038 C  
HETATM   11  N   UNL     1     -11.261   4.147  68.898  1.00  0.00     4.110 NA 
HETATM   12  C   UNL     1      -7.167   4.301  65.729  1.00  0.00    -0.072 C  
HETATM   13  H   UNL     1     -11.353   5.160  68.827  1.00  0.00     0.000 HD 
HETATM   14  H   UNL     1      -9.807   2.767  65.271  1.00  0.00     0.000 HD 
HETATM   15  C   UNL     1      -8.581   4.430  65.129  1.00  0.00    -0.126 C  
HETATM   16  C   UNL     1     -11.386   3.500  67.576  1.00  0.00     7.663 C  
HETATM   17  C   UNL     1     -10.649   4.249  66.434  1.00  0.00     0.444 C  
HETATM   18  N   UNL     1      -9.500   3.539  65.861  1.00  0.00    -0.162 NA 
ENDBRANCH   1   2
BRANCH   1  19
HETATM   19  C   UNL     1      -8.543   7.794  68.334  1.00  0.00    -0.128 A  
HETATM   20  C   UNL     1      -9.679   8.200  69.011  1.00  0.00    -0.163 A  
HETATM   21  C   UNL     1     -10.373   9.261  68.487  1.00  0.00    -0.237 A  
HETATM   22  C   UNL     1      -7.865   8.634  67.465  1.00  0.00    -0.102 A  
HETATM   23  C   UNL     1      -9.784  10.069  67.517  1.00  0.00    -0.189 A  
HETATM   24  C   UNL     1      -8.524   9.746  66.987  1.00  0.00    -0.117 A  
BRANCH  23  25
HETATM   25  C   UNL     1     -10.453  11.292  67.010  1.00  0.00    -0.234 C  
BRANCH  25  26
HETATM   26  N   UNL     1     -10.504  12.450  67.884  1.00  0.00    -0.210 NA 
HETATM   27  C   UNL     1      -6.068  10.224  66.546  1.00  0.00    -0.071 C  
HETATM   28  H   UNL     1      -7.402   9.517  67.980  1.00  0.00     0.000 HD 
HETATM   29  N   UNL     1      -6.696  10.246  67.882  1.00  0.00    -0.066 NA 
HETATM   30  C   UNL     1      -7.079  10.112  65.375  1.00  0.00    -0.143 C  
HETATM   31  C   UNL     1      -7.242  11.581  68.177  1.00  0.00    -0.080 C  
HETATM   32  C   UNL     1      -9.497  12.561  68.974  1.00  0.00     0.420 C  
HETATM   33  N   UNL     1      -7.150  11.310  64.535  1.00  0.00     0.521 NA 
HETATM   34  H   UNL     1      -6.310  11.401  63.963  1.00  0.00     0.000 HD 
HETATM   35  C   UNL     1      -8.355  11.533  69.222  1.00  0.00     0.321 C  
HETATM   36  C   UNL     1      -8.360  11.363  63.701  1.00  0.00     0.679 C  
HETATM   37  C   UNL     1      -9.107  12.680  63.978  1.00  0.00     1.494 C  
HETATM   38  C   UNL     1     -10.636  12.544  63.969  1.00  0.00    -0.421 C  
HETATM   39  N   UNL     1     -11.304  13.733  64.522  1.00  0.00    -0.379 NA 
HETATM   40  C   UNL     1     -11.701  13.694  65.950  1.00  0.00    -0.354 C  
HETATM   41  H   UNL     1     -11.487  14.554  63.944  1.00  0.00     0.000 HD 
HETATM   42  C   UNL     1     -10.599  13.684  67.068  1.00  0.00    -0.274 C  
ENDBRANCH  25  26
ENDBRANCH  23  25
ENDBRANCH   1  19
TORSDOF 4
ENDMDL
MODEL      197
REMARK 921   NORMALIZED FREE ENERGY PREDICTED BY IDOCK:   22.14 KCAL/MOL
REMARK 922        TOTAL FREE ENERGY PREDICTED BY IDOCK:   25.74 KCAL/MOL
REMARK 923 INTER-LIGAND FREE ENERGY PREDICTED BY IDOCK:   25.73 KCAL/MOL
REMARK 924 INTRA-LIGAND FREE ENERGY PREDICTED BY IDOCK:    0.01 KCAL/MOL
REMARK 927      BINDING AFFINITY PREDICTED BY RF-SCORE:    0.00 PKD
ROOT
HETATM    1  C   UNL     1      -9.579  14.079  67.470  1.00  0.00    -0.228 C  
ENDROOT
BRANCH   1   2
HETATM    2  N   UNL     1      -9.775  14.413  66.073  1.00  0.00    -0.306 NA 
HETATM    3  C   UNL     1      -9.598  15.872  65.901  1.00  0.00    -0.343 C  
HETATM    4  C   UNL     1      -8.273  16.459  66.503  1.00  0.00    -0.306 C  
HETATM    5  C   UNL     1     -11.006  13.907  65.396  1.00  0.00    -0.316 C  
HETATM    6  C   UNL     1     -12.081  12.990  66.056  1.00  0.00    -0.493 C  
HETATM    7  H   UNL     1      -8.132  18.406  67.502  1.00  0.00     0.000 HD 
HETATM    8  C   UNL     1     -12.972  13.673  67.097  1.00  0.00     1.486 C  
HETATM    9  N   UNL     1      -8.345  17.416  67.635  1.00  0.00    -0.209 NA 
HETATM   10  C   UNL     1      -8.734  16.891  68.957  1.00  0.00    -0.150 C  
HETATM   11  N   UNL     1     -13.177  12.846  68.298  1.00  0.00     2.308 NA 
HETATM   12  C   UNL     1     -10.243  17.013  69.219  1.00  0.00    -0.246 C  
HETATM   13  H   UNL     1     -12.375  12.242  68.476  1.00  0.00     0.000 HD 
HETATM   14  H   UNL     1     -12.802  16.179  70.732  1.00  0.00     0.000 HD 
HETATM   15  C   UNL     1     -10.755  16.183  70.412  1.00  0.00    -0.163 C  
HETATM   16  C   UNL     1     -13.504  13.673  69.477  1.00  0.00     2.621 C  
HETATM   17  C   UNL     1     -12.262  14.259  70.200  1.00  0.00    -0.345 C  
HETATM   18  N   UNL     1     -12.125  15.717  70.124  1.00  0.00    -0.359 NA 
ENDBRANCH   1   2
BRANCH   1  19
HETATM   19  C   UNL     1      -9.193  12.677  67.813  1.00  0.00    -0.195 A  
HETATM   20  C   UNL     1     -10.157  11.692  67.942  1.00  0.00    -0.198 A  
HETATM   21  C   UNL     1      -9.891  10.670  68.817  1.00  0.00    -0.196 A  
HETATM   22  C   UNL     1      -7.869  12.460  68.158  1.00  0.00    -0.146 A  
HETATM   23  C   UNL     1      -8.596  10.480  69.295  1.00  0.00    -0.136 A  
HETATM   24  C   UNL     1      -7.576  11.391  68.977  1.00  0.00    -0.084 A  
BRANCH  23  25
HETATM   25  C   UNL     1      -8.243   9.319  70.148  1.00  0.00    -0.167 C  
BRANCH  25  26
HETATM   26  N   UNL     1      -7.099   8.512  69.759  1.00  0.00    -0.050 NA 
HETATM   27  C   UNL     1      -7.285  11.019  74.244  1.00  0.00     6.384 C  
HETATM   28  H   UNL     1      -6.875  11.870  72.388  1.00  0.00     0.000 HD 
HETATM   29  N   UNL     1      -6.406  11.301  73.092  1.00  0.00     3.102 NA 
HETATM   30  C   UNL     1      -8.711  10.552  73.850  1.00  0.00    11.872 C  
HETATM   31  C   UNL     1      -5.880  10.050  72.522  1.00  0.00     0.573 C  
HETATM   32  C   UNL     1      -5.743   8.953  70.185  1.00  0.00    -0.030 C  
HETATM   33  N   UNL     1      -8.999   9.160  74.202  1.00  0.00     1.322 NA 
HETATM   34  H   UNL     1      -9.110   9.057  75.211  1.00  0.00     0.000 HD 
HETATM   35  C   UNL     1      -5.463  10.210  71.061  1.00  0.00    -0.083 C  
HETATM   36  C   UNL     1     -10.161   8.609  73.487  1.00  0.00     1.604 C  
HETATM   37  C   UNL     1      -9.736   7.329  72.745  1.00  0.00    -0.203 C  
HETATM   38  C   UNL     1     -10.401   7.153  71.373  1.00  0.00    -0.196 C  
HETATM   39  N   UNL     1      -9.761   6.096  70.575  1.00  0.00    -0.171 NA 
HETATM   40  C   UNL     1      -8.736   6.510  69.587  1.00  0.00    -0.139 C  
HETATM   41  H   UNL     1     -10.014   5.115  70.696  1.00  0.00     0.000 HD 
HETATM   42  C   UNL     1      -7.363   7.090  70.080  1.00  0.00    -0.081 C  
ENDBRANCH  25  26
ENDBRANCH  23  25
ENDBRANCH   1  19
TORSDOF 4
ENDMDL
MODEL      198
REMARK 921   NORMALIZED FREE ENERGY PREDICTED BY IDOCK:   24.40 KCAL/MOL
REMARK 922        TOTAL FREE ENERGY PREDICTED BY IDOCK:   28.52 KCAL/MOL
REMARK 923 INTER-LIGAND FREE ENERGY PREDICTED BY IDOCK:    8.33 KCAL/MOL
REMARK 924 INTRA-LIGAND FREE ENERGY PREDICTED BY IDOCK:   20.20 KCAL/MOL
REMARK 927      BINDING AFFINITY PREDICTED BY RF-SCORE:    0.00 PKD
ROOT
HETATM    1  C   UNL     1     -12.167  12.519  69.595  1.00  0.00    -0.103 C  
ENDROOT
BRANCH   1   2
HETATM    2  N   UNL     1     -12.514  12.364  70.995  1.00  0.00    -0.332 NA 
HETATM    3  C   UNL     1     -12.127  13.593  71.722  1.00  0.00     0.390 C  
HETATM    4  C   UNL     1     -12.650  14.932  71.093  1.00  0.00    -0.335 C  
HETATM    5  C   UNL     1     -12.067  11.124  71.696  1.00  0.00     0.324 C  
HETATM    6  C   UNL     1     -11.299   9.942  71.028  1.00  0.00    -0.460 C  
HETATM    7  H   UNL     1     -11.495  16.796  71.033  1.00  0.00     0.000 HD 
HETATM    8  C   UNL     1      -9.839  10.230  70.671  1.00  0.00     0.649 C  
HETATM    9  N   UNL     1     -11.678  15.915  70.552  1.00  0.00    -0.365 NA 
HETATM   10  C   UNL     1     -10.984  15.576  69.295  1.00  0.00    -0.268 C  
HETATM   11  N   UNL     1      -9.471   9.723  69.339  1.00  0.00    -0.188 NA 
HETATM   12  C   UNL     1      -9.627  14.896  69.535  1.00  0.00    -0.027 C  
HETATM   13  H   UNL     1     -10.271   9.724  68.705  1.00  0.00     0.000 HD 
HETATM   14  H   UNL     1      -7.269  13.150  68.576  1.00  0.00     0.000 HD 
HETATM   15  C   UNL     1      -9.022  14.215  68.293  1.00  0.00    -0.188 C  
HETATM   16  C   UNL     1      -8.331  10.470  68.770  1.00  0.00    -0.136 C  
HETATM   17  C   UNL     1      -8.733  11.790  68.059  1.00  0.00    -0.167 C  
HETATM   18  N   UNL     1      -8.270  13.018  68.715  1.00  0.00     0.029 NA 
ENDBRANCH   1   2
BRANCH   1  19
HETATM   19  C   UNL     1     -11.983  11.285  68.774  1.00  0.00    -0.350 A  
HETATM   20  C   UNL     1     -11.990  10.034  69.368  1.00  0.00     0.156 A  
HETATM   21  C   UNL     1     -11.235   9.056  68.773  1.00  0.00     0.277 A  
HETATM   22  C   UNL     1     -11.638  11.464  67.444  1.00  0.00    -0.266 A  
HETATM   23  C   UNL     1     -10.756   9.236  67.478  1.00  0.00    -0.272 A  
HETATM   24  C   UNL     1     -10.943  10.457  66.809  1.00  0.00    -0.116 A  
BRANCH  23  25
HETATM   25  C   UNL     1     -10.037   8.158  66.755  1.00  0.00    -0.295 C  
BRANCH  25  26
HETATM   26  N   UNL     1     -10.667   6.851  66.683  1.00  0.00    -0.192 NA 
HETATM   27  C   UNL     1      -6.951   8.284  63.432  1.00  0.00    -0.085 C  
HETATM   28  H   UNL     1      -8.949   8.866  63.333  1.00  0.00     0.000 HD 
HETATM   29  N   UNL     1      -8.376   8.049  63.122  1.00  0.00    -0.051 NA 
HETATM   30  C   UNL     1      -6.706   8.931  64.819  1.00  0.00    -0.069 C  
HETATM   31  C   UNL     1      -8.866   6.845  63.814  1.00  0.00     0.952 C  
HETATM   32  C   UNL     1     -10.853   6.227  65.346  1.00  0.00     2.859 C  
HETATM   33  N   UNL     1      -6.030   8.051  65.774  1.00  0.00    -0.038 NA 
HETATM   34  H   UNL     1      -5.049   7.926  65.522  1.00  0.00     0.000 HD 
HETATM   35  C   UNL     1     -10.381   6.864  64.006  1.00  0.00     7.616 C  
HETATM   36  C   UNL     1      -6.158   8.500  67.170  1.00  0.00    -0.055 C  
HETATM   37  C   UNL     1      -6.763   7.362  68.012  1.00  0.00    -0.055 C  
HETATM   38  C   UNL     1      -7.741   7.840  69.095  1.00  0.00    -0.101 C  
HETATM   39  N   UNL     1      -8.515   6.731  69.674  1.00  0.00    -0.132 NA 
HETATM   40  C   UNL     1      -9.867   6.476  69.120  1.00  0.00    -0.144 C  
HETATM   41  H   UNL     1      -8.137   6.158  70.429  1.00  0.00     0.000 HD 
HETATM   42  C   UNL     1     -10.022   5.936  67.655  1.00  0.00    -0.138 C  
ENDBRANCH  25  26
ENDBRANCH  23  25
ENDBRANCH   1  19
TORSDOF 4
ENDMDL
MODEL      199
REMARK 921   NORMALIZED FREE ENERGY PREDICTED BY IDOCK:   26.15 KCAL/MOL
REMARK 922        TOTAL FREE ENERGY PREDICTED BY IDOCK:   30.69 KCAL/MOL
REMARK 923 INTER-LIGAND FREE ENERGY PREDICTED BY IDOCK:   28.56 KCAL/MOL
REMARK 924 INTRA-LIGAND FREE ENERGY PREDICTED BY IDOCK:    2.13 KCAL/MOL
REMARK 927      BINDING AFFINITY PREDICTED BY RF-SCORE:    0.00 PKD
ROOT
HETATM    1  C   UNL     1      -8.208   8.211  64.806  1.00  0.00    -0.133 C  
ENDROOT
BRANCH   1   2
HETATM    2  N   UNL     1      -7.150   7.920  63.857  1.00  0.00    -0.076 NA 
HETATM    3  C   UNL     1      -7.410   6.598  63.244  1.00  0.00    -0.071 C  
HETATM    4  C   UNL     1      -8.850   6.409  62.652  1.00  0.00     0.475 C  
HETATM    5  C   UNL     1      -5.737   8.067  64.314  1.00  0.00    -0.052 C  
HETATM    6  C   UNL     1      -5.296   8.569  65.724  1.00  0.00    -0.031 C  
HETATM    7  H   UNL     1      -9.992   4.540  62.768  1.00  0.00     0.000 HD 
HETATM    8  C   UNL     1      -5.533   7.584  66.871  1.00  0.00    -0.027 C  
HETATM    9  N   UNL     1      -9.764   5.407  63.256  1.00  0.00     0.918 NA 
HETATM   10  C   UNL     1     -10.331   5.706  64.584  1.00  0.00     2.140 C  
HETATM   11  N   UNL     1      -6.088   8.233  68.070  1.00  0.00    -0.046 NA 
HETATM   12  C   UNL     1      -9.495   5.113  65.729  1.00  0.00    -0.153 C  
HETATM   13  H   UNL     1      -6.660   9.041  67.826  1.00  0.00     0.000 HD 
HETATM   14  H   UNL     1      -8.644   5.032  68.695  1.00  0.00     0.000 HD 
HETATM   15  C   UNL     1      -9.832   5.672  67.125  1.00  0.00    -0.149 C  
HETATM   16  C   UNL     1      -6.836   7.275  68.909  1.00  0.00    -0.072 C  
HETATM   17  C   UNL     1      -8.304   7.054  68.457  1.00  0.00    -0.121 C  
HETATM   18  N   UNL     1      -8.603   5.714  67.939  1.00  0.00    -0.102 NA 
ENDBRANCH   1   2
BRANCH   1  19
HETATM   19  C   UNL     1      -8.617   9.636  64.989  1.00  0.00    -0.180 A  
HETATM   20  C   UNL     1      -7.692  10.592  65.372  1.00  0.00    -0.051 A  
HETATM   21  C   UNL     1      -8.157  11.651  66.108  1.00  0.00     0.128 A  
HETATM   22  C   UNL     1      -9.974   9.909  64.928  1.00  0.00    -0.190 A  
HETATM   23  C   UNL     1      -9.526  11.901  66.184  1.00  0.00    -0.243 A  
HETATM   24  C   UNL     1     -10.447  11.014  65.602  1.00  0.00    -0.293 A  
BRANCH  23  25
HETATM   25  C   UNL     1     -10.063  13.102  66.870  1.00  0.00    -0.245 C  
BRANCH  25  26
HETATM   26  N   UNL     1      -9.166  14.225  67.075  1.00  0.00    -0.229 NA 
HETATM   27  C   UNL     1     -11.000  12.995  62.432  1.00  0.00     4.590 C  
HETATM   28  H   UNL     1      -9.448  12.025  63.427  1.00  0.00     0.000 HD 
HETATM   29  N   UNL     1      -9.606  12.887  62.906  1.00  0.00     2.130 NA 
HETATM   30  C   UNL     1     -12.061  12.665  63.514  1.00  0.00    -0.561 C  
HETATM   31  C   UNL     1      -9.231  14.075  63.691  1.00  0.00     6.940 C  
HETATM   32  C   UNL     1      -8.185  14.553  66.006  1.00  0.00     1.602 C  
HETATM   33  N   UNL     1     -12.866  13.816  63.927  1.00  0.00    -0.362 NA 
HETATM   34  H   UNL     1     -13.520  14.083  63.191  1.00  0.00     0.000 HD 
HETATM   35  C   UNL     1      -8.076  13.794  64.650  1.00  0.00     8.776 C  
HETATM   36  C   UNL     1     -13.570  13.605  65.202  1.00  0.00     1.243 C  
HETATM   37  C   UNL     1     -13.192  14.734  66.179  1.00  0.00     1.451 C  
HETATM   38  C   UNL     1     -13.044  14.274  67.636  1.00  0.00     2.544 C  
HETATM   39  N   UNL     1     -12.403  15.294  68.480  1.00  0.00    -0.508 NA 
HETATM   40  C   UNL     1     -10.942  15.176  68.707  1.00  0.00    -0.255 C  
HETATM   41  H   UNL     1     -12.942  16.054  68.894  1.00  0.00     0.000 HD 
HETATM   42  C   UNL     1      -9.945  15.407  67.516  1.00  0.00    -0.226 C  
ENDBRANCH  25  26
ENDBRANCH  23  25
ENDBRANCH   1  19
TORSDOF 4
ENDMDL
MODEL      200
REMARK 921   NORMALIZED FREE ENERGY PREDICTED BY IDOCK:   34.03 KCAL/MOL
REMARK 922        TOTAL FREE ENERGY PREDICTED BY IDOCK:   40.41 KCAL/MOL
REMARK 923 INTER-LIGAND FREE ENERGY PREDICTED BY IDOCK:   16.64 KCAL/MOL
REMARK 924 INTRA-LIGAND FREE ENERGY PREDICTED BY IDOCK:   23.77 KCAL/MOL
REMARK 927      BINDING AFFINITY PREDICTED BY RF-SCORE:    0.00 PKD
ROOT
HETATM    1  C   UNL     1      -6.835  11.510  71.164  1.00  0.00     2.899 C  
ENDROOT
BRANCH   1   2
HETATM    2  N   UNL     1      -5.509  11.738  70.623  1.00  0.00    -0.145 NA 
HETATM    3  C   UNL     1      -5.250  13.195  70.589  1.00  0.00    -0.135 C  
HETATM    4  C   UNL     1      -5.512  13.950  71.939  1.00  0.00    -0.214 C  
HETATM    5  C   UNL     1      -5.151  11.068  69.338  1.00  0.00    -0.041 C  
HETATM    6  C   UNL     1      -6.072  10.086  68.550  1.00  0.00    -0.045 C  
HETATM    7  H   UNL     1      -6.384  15.957  72.078  1.00  0.00     0.000 HD 
HETATM    8  C   UNL     1      -7.265  10.734  67.844  1.00  0.00    -0.087 C  
HETATM    9  N   UNL     1      -6.596  14.961  72.015  1.00  0.00     1.205 NA 
HETATM   10  C   UNL     1      -7.990  14.479  71.995  1.00  0.00     5.527 C  
HETATM   11  N   UNL     1      -8.509   9.964  68.009  1.00  0.00    -0.117 NA 
HETATM   12  C   UNL     1      -8.587  14.459  70.579  1.00  0.00     2.363 C  
HETATM   13  H   UNL     1      -8.519   9.458  68.894  1.00  0.00     0.000 HD 
HETATM   14  H   UNL     1     -10.675  13.457  68.538  1.00  0.00     0.000 HD 
HETATM   15  C   UNL     1      -9.893  13.654  70.446  1.00  0.00     3.233 C  
HETATM   16  C   UNL     1      -9.702  10.822  67.863  1.00  0.00    -0.167 C  
HETATM   17  C   UNL     1     -10.100  11.575  69.160  1.00  0.00     0.031 C  
HETATM   18  N   UNL     1      -9.944  13.033  69.109  1.00  0.00     0.260 NA 
ENDBRANCH   1   2
BRANCH   1  19
HETATM   19  C   UNL     1      -7.264  10.100  71.409  1.00  0.00     1.372 A  
HETATM   20  C   UNL     1      -7.020   9.490  72.627  1.00  0.00     1.106 A  
HETATM   21  C   UNL     1      -6.835   8.132  72.620  1.00  0.00    -0.099 A  
HETATM   22  C   UNL     1      -7.749   9.396  70.319  1.00  0.00    -0.151 A  
HETATM   23  C   UNL     1      -7.192   7.386  71.498  1.00  0.00    -0.071 A  
HETATM   24  C   UNL     1      -7.638   8.023  70.329  1.00  0.00    -0.081 A  
BRANCH  23  25
HETATM   25  C   UNL     1      -7.118   5.904  71.492  1.00  0.00    -0.078 C  
BRANCH  25  26
HETATM   26  N   UNL     1      -6.555   5.247  72.658  1.00  0.00    -0.062 NA 
HETATM   27  C   UNL     1     -10.051   8.996  73.050  1.00  0.00     1.499 C  
HETATM   28  H   UNL     1      -8.023   9.256  72.650  1.00  0.00     0.000 HD 
HETATM   29  N   UNL     1      -8.629   9.047  73.444  1.00  0.00     0.234 NA 
HETATM   30  C   UNL     1     -10.320   8.165  71.768  1.00  0.00    -0.230 C  
HETATM   31  C   UNL     1      -8.232   7.802  74.120  1.00  0.00    -0.234 C  
HETATM   32  C   UNL     1      -6.345   6.050  73.892  1.00  0.00    -0.069 C  
HETATM   33  N   UNL     1     -11.081   6.937  72.005  1.00  0.00    -0.238 NA 
HETATM   34  H   UNL     1     -12.055   7.149  72.221  1.00  0.00     0.000 HD 
HETATM   35  C   UNL     1      -6.727   7.552  74.038  1.00  0.00    -0.090 C  
HETATM   36  C   UNL     1     -10.988   5.973  70.897  1.00  0.00    -0.289 C  
HETATM   37  C   UNL     1     -10.479   4.626  71.441  1.00  0.00    -0.083 C  
HETATM   38  C   UNL     1      -9.524   3.890  70.491  1.00  0.00    -0.181 C  
HETATM   39  N   UNL     1      -8.834   2.771  71.151  1.00  0.00    -0.074 NA 
HETATM   40  C   UNL     1      -7.475   3.026  71.688  1.00  0.00    -0.041 C  
HETATM   41  H   UNL     1      -9.273   1.855  71.237  1.00  0.00     0.000 HD 
HETATM   42  C   UNL     1      -7.286   3.984  72.917  1.00  0.00    -0.072 C  
ENDBRANCH  25  26
ENDBRANCH  23  25
ENDBRANCH   1  19
TORSDOF 4
ENDMDL
MODEL      201
REMARK 921   NORMALIZED FREE ENERGY PREDICTED BY IDOCK:   34.37 KCAL/MOL
REMARK 922        TOTAL FREE ENERGY PREDICTED BY IDOCK:   40.83 KCAL/MOL
REMARK 923 INTER-LIGAND FREE ENERGY PREDICTED BY IDOCK:   28.01 KCAL/MOL
REMARK 924 INTRA-LIGAND FREE ENERGY PREDICTED BY IDOCK:   12.83 KCAL/MOL
REMARK 927      BINDING AFFINITY PREDICTED BY RF-SCORE:    0.00 PKD
ROOT
HETATM    1  C   UNL     1      -9.526   8.897  69.441  1.00  0.00    -0.161 C  
ENDROOT
BRANCH   1   2
HETATM    2  N   UNL     1      -9.802   8.144  70.649  1.00  0.00    -0.181 NA 
HETATM    3  C   UNL     1      -8.541   7.539  71.134  1.00  0.00    -0.121 C  
HETATM    4  C   UNL     1      -7.337   8.535  71.280  1.00  0.00    -0.091 C  
HETATM    5  C   UNL     1     -10.928   7.165  70.623  1.00  0.00    -0.258 C  
HETATM    6  C   UNL     1     -11.881   6.923  69.412  1.00  0.00     0.204 C  
HETATM    7  H   UNL     1      -5.258   8.030  70.801  1.00  0.00     0.000 HD 
HETATM    8  C   UNL     1     -11.255   6.187  68.225  1.00  0.00    -0.086 C  
HETATM    9  N   UNL     1      -6.141   8.368  70.418  1.00  0.00    -0.031 NA 
HETATM   10  C   UNL     1      -6.271   8.709  68.988  1.00  0.00    -0.044 C  
HETATM   11  N   UNL     1     -11.619   6.784  66.930  1.00  0.00    -0.555 NA 
HETATM   12  C   UNL     1      -6.629   7.490  68.122  1.00  0.00    -0.050 C  
HETATM   13  H   UNL     1     -11.781   7.788  67.015  1.00  0.00     0.000 HD 
HETATM   14  H   UNL     1      -7.756   6.254  65.528  1.00  0.00     0.000 HD 
HETATM   15  C   UNL     1      -7.112   7.835  66.701  1.00  0.00    -0.079 C  
HETATM   16  C   UNL     1     -10.613   6.486  65.892  1.00  0.00     1.198 C  
HETATM   17  C   UNL     1      -9.397   7.450  65.895  1.00  0.00     0.101 C  
HETATM   18  N   UNL     1      -8.118   6.842  66.278  1.00  0.00    -0.107 NA 
ENDBRANCH   1   2
BRANCH   1  19
HETATM   19  C   UNL     1      -9.829  10.360  69.437  1.00  0.00    -0.235 A  
HETATM   20  C   UNL     1     -10.106  11.020  68.253  1.00  0.00    -0.191 A  
HETATM   21  C   UNL     1      -9.762  12.345  68.180  1.00  0.00    -0.214 A  
HETATM   22  C   UNL     1      -9.649  11.039  70.632  1.00  0.00     3.072 A  
HETATM   23  C   UNL     1      -9.450  13.049  69.342  1.00  0.00     1.099 A  
HETATM   24  C   UNL     1      -9.375  12.388  70.579  1.00  0.00     6.398 A  
BRANCH  23  25
HETATM   25  C   UNL     1      -9.187  14.509  69.322  1.00  0.00     0.110 C  
BRANCH  25  26
HETATM   26  N   UNL     1      -8.388  15.071  70.397  1.00  0.00     0.805 NA 
HETATM   27  C   UNL     1      -6.792  11.061  67.603  1.00  0.00    -0.081 C  
HETATM   28  H   UNL     1      -8.188  10.992  69.147  1.00  0.00     0.000 HD 
HETATM   29  N   UNL     1      -7.178  11.067  69.028  1.00  0.00    -0.102 NA 
HETATM   30  C   UNL     1      -7.641  12.008  66.716  1.00  0.00     0.009 C  
HETATM   31  C   UNL     1      -6.635  12.254  69.708  1.00  0.00     0.032 C  
HETATM   32  C   UNL     1      -7.546  14.151  71.209  1.00  0.00     3.601 C  
HETATM   33  N   UNL     1      -6.893  13.144  66.175  1.00  0.00     1.866 NA 
HETATM   34  H   UNL     1      -6.247  12.840  65.447  1.00  0.00     0.000 HD 
HETATM   35  C   UNL     1      -7.428  12.618  70.961  1.00  0.00     5.680 C  
HETATM   36  C   UNL     1      -7.758  14.230  65.687  1.00  0.00     5.284 C  
HETATM   37  C   UNL     1      -7.371  15.541  66.395  1.00  0.00     0.970 C  
HETATM   38  C   UNL     1      -8.565  16.445  66.732  1.00  0.00    -0.235 C  
HETATM   39  N   UNL     1      -8.200  17.529  67.656  1.00  0.00    -0.213 NA 
HETATM   40  C   UNL     1      -8.459  17.314  69.101  1.00  0.00     0.029 C  
HETATM   41  H   UNL     1      -7.784  18.397  67.317  1.00  0.00     0.000 HD 
HETATM   42  C   UNL     1      -7.631  16.241  69.892  1.00  0.00     0.584 C  
ENDBRANCH  25  26
ENDBRANCH  23  25
ENDBRANCH   1  19
TORSDOF 4
ENDMDL
MODEL      202
REMARK 921   NORMALIZED FREE ENERGY PREDICTED BY IDOCK:   34.48 KCAL/MOL
REMARK 922        TOTAL FREE ENERGY PREDICTED BY IDOCK:   40.97 KCAL/MOL
REMARK 923 INTER-LIGAND FREE ENERGY PREDICTED BY IDOCK:   37.18 KCAL/MOL
REMARK 924 INTRA-LIGAND FREE ENERGY PREDICTED BY IDOCK:    3.79 KCAL/MOL
REMARK 927      BINDING AFFINITY PREDICTED BY RF-SCORE:    0.00 PKD
ROOT
HETATM    1  C   UNL     1      -9.671  16.990  67.366  1.00  0.00    -0.252 C  
ENDROOT
BRANCH   1   2
HETATM    2  N   UNL     1      -8.728  17.366  68.402  1.00  0.00    -0.264 NA 
HETATM    3  C   UNL     1      -9.482  17.791  69.603  1.00  0.00     0.679 C  
HETATM    4  C   UNL     1     -10.580  16.783  70.092  1.00  0.00     0.075 C  
HETATM    5  C   UNL     1      -7.639  18.323  68.047  1.00  0.00    -0.250 C  
HETATM    6  C   UNL     1      -7.391  18.914  66.625  1.00  0.00    -0.239 C  
HETATM    7  H   UNL     1     -12.529  17.382  70.900  1.00  0.00     0.000 HD 
HETATM    8  C   UNL     1      -8.414  19.955  66.164  1.00  0.00    -0.319 C  
HETATM    9  N   UNL     1     -12.010  17.178  70.045  1.00  0.00     1.892 NA 
HETATM   10  C   UNL     1     -12.657  17.266  68.723  1.00  0.00     4.334 C  
HETATM   11  N   UNL     1      -8.829  19.761  64.765  1.00  0.00     1.626 NA 
HETATM   12  C   UNL     1     -12.609  18.687  68.137  1.00  0.00     6.278 C  
HETATM   13  H   UNL     1      -8.789  18.778  64.497  1.00  0.00     0.000 HD 
HETATM   14  H   UNL     1     -12.760  20.632  65.745  1.00  0.00     0.000 HD 
HETATM   15  C   UNL     1     -12.950  18.773  66.637  1.00  0.00     8.759 C  
HETATM   16  C   UNL     1     -10.165  20.336  64.510  1.00  0.00     2.683 C  
HETATM   17  C   UNL     1     -11.340  19.398  64.896  1.00  0.00     2.085 C  
HETATM   18  N   UNL     1     -12.160  19.856  66.023  1.00  0.00     2.412 NA 
ENDBRANCH   1   2
BRANCH   1  19
HETATM   19  C   UNL     1     -10.032  15.547  67.230  1.00  0.00    -0.238 A  
HETATM   20  C   UNL     1     -11.122  15.027  67.906  1.00  0.00    -0.310 A  
HETATM   21  C   UNL     1     -11.059  13.706  68.268  1.00  0.00    -0.281 A  
HETATM   22  C   UNL     1      -9.136  14.740  66.549  1.00  0.00    -0.291 A  
HETATM   23  C   UNL     1     -10.095  12.873  67.705  1.00  0.00    -0.229 A  
HETATM   24  C   UNL     1      -9.112  13.395  66.849  1.00  0.00    -0.237 A  
BRANCH  23  25
HETATM   25  C   UNL     1     -10.067  11.415  67.980  1.00  0.00    -0.180 C  
BRANCH  25  26
HETATM   26  N   UNL     1     -10.663  10.945  69.218  1.00  0.00    -0.224 NA 
HETATM   27  C   UNL     1      -7.730   7.922  66.271  1.00  0.00    -0.092 C  
HETATM   28  H   UNL     1      -9.720   8.418  65.908  1.00  0.00     0.000 HD 
HETATM   29  N   UNL     1      -9.181   7.803  66.517  1.00  0.00    -0.175 NA 
HETATM   30  C   UNL     1      -7.223   9.385  66.181  1.00  0.00    -0.092 C  
HETATM   31  C   UNL     1      -9.487   8.037  67.938  1.00  0.00    -0.145 C  
HETATM   32  C   UNL     1     -11.103   9.526  69.299  1.00  0.00    -0.082 C  
HETATM   33  N   UNL     1      -6.343   9.777  67.284  1.00  0.00    -0.067 NA 
HETATM   34  H   UNL     1      -5.432   9.327  67.199  1.00  0.00     0.000 HD 
HETATM   35  C   UNL     1     -10.931   8.486  68.153  1.00  0.00     0.126 C  
HETATM   36  C   UNL     1      -6.196  11.235  67.418  1.00  0.00    -0.071 C  
HETATM   37  C   UNL     1      -6.585  11.652  68.848  1.00  0.00    -0.079 C  
HETATM   38  C   UNL     1      -7.333  12.990  68.926  1.00  0.00    -0.017 C  
HETATM   39  N   UNL     1      -7.943  13.211  70.246  1.00  0.00     2.082 NA 
HETATM   40  C   UNL     1      -9.373  12.851  70.410  1.00  0.00     5.477 C  
HETATM   41  H   UNL     1      -7.403  13.598  71.021  1.00  0.00     0.000 HD 
HETATM   42  C   UNL     1      -9.810  11.344  70.362  1.00  0.00     2.811 C  
ENDBRANCH  25  26
ENDBRANCH  23  25
ENDBRANCH   1  19
TORSDOF 4
ENDMDL
MODEL      203
REMARK 921   NORMALIZED FREE ENERGY PREDICTED BY IDOCK:   37.33 KCAL/MOL
REMARK 922        TOTAL FREE ENERGY PREDICTED BY IDOCK:   44.48 KCAL/MOL
REMARK 923 INTER-LIGAND FREE ENERGY PREDICTED BY IDOCK:   34.94 KCAL/MOL
REMARK 924 INTRA-LIGAND FREE ENERGY PREDICTED BY IDOCK:    9.54 KCAL/MOL
REMARK 927      BINDING AFFINITY PREDICTED BY RF-SCORE:    0.00 PKD
ROOT
HETATM    1  C   UNL     1     -10.967   8.483  70.766  1.00  0.00    -0.247 C  
ENDROOT
BRANCH   1   2
HETATM    2  N   UNL     1     -12.321   9.001  70.731  1.00  0.00    -0.108 NA 
HETATM    3  C   UNL     1     -12.429  10.121  71.692  1.00  0.00    -0.409 C  
HETATM    4  C   UNL     1     -11.332  11.233  71.546  1.00  0.00     2.277 C  
HETATM    5  C   UNL     1     -13.447   8.030  70.863  1.00  0.00     0.270 C  
HETATM    6  C   UNL     1     -13.290   6.482  70.976  1.00  0.00     0.592 C  
HETATM    7  H   UNL     1     -10.405  12.277  73.238  1.00  0.00     0.000 HD 
HETATM    8  C   UNL     1     -12.740   5.977  72.312  1.00  0.00     0.318 C  
HETATM    9  N   UNL     1     -10.357  11.448  72.645  1.00  0.00    12.568 NA 
HETATM   10  C   UNL     1      -9.316  10.423  72.850  1.00  0.00    10.571 C  
HETATM   11  N   UNL     1     -11.726   4.924  72.147  1.00  0.00     0.478 NA 
HETATM   12  C   UNL     1      -9.723   9.369  73.893  1.00  0.00     6.202 C  
HETATM   13  H   UNL     1     -11.211   5.036  71.273  1.00  0.00     0.000 HD 
HETATM   14  H   UNL     1      -9.427   6.576  75.173  1.00  0.00     0.000 HD 
HETATM   15  C   UNL     1      -8.846   8.103  73.900  1.00  0.00    -0.137 C  
HETATM   16  C   UNL     1     -10.813   4.862  73.306  1.00  0.00    -0.289 C  
HETATM   17  C   UNL     1      -9.642   5.877  73.243  1.00  0.00    -0.143 C  
HETATM   18  N   UNL     1      -9.680   6.939  74.254  1.00  0.00    -0.285 NA 
ENDBRANCH   1   2
BRANCH   1  19
HETATM   19  C   UNL     1     -10.454   7.769  69.558  1.00  0.00    -0.225 A  
HETATM   20  C   UNL     1     -11.245   7.634  68.430  1.00  0.00     0.407 A  
HETATM   21  C   UNL     1     -11.043   6.521  67.655  1.00  0.00    -0.380 A  
HETATM   22  C   UNL     1      -9.241   7.112  69.688  1.00  0.00    -0.146 A  
HETATM   23  C   UNL     1      -9.895   5.750  67.828  1.00  0.00    -0.144 A  
HETATM   24  C   UNL     1      -8.991   6.036  68.865  1.00  0.00    -0.123 A  
BRANCH  23  25
HETATM   25  C   UNL     1      -9.581   4.609  66.934  1.00  0.00    -0.181 C  
BRANCH  25  26
HETATM   26  N   UNL     1     -10.207   4.579  65.624  1.00  0.00    -0.257 NA 
HETATM   27  C   UNL     1      -7.482   8.617  67.267  1.00  0.00    -0.089 C  
HETATM   28  H   UNL     1      -9.435   8.155  67.826  1.00  0.00     0.000 HD 
HETATM   29  N   UNL     1      -8.937   8.552  67.028  1.00  0.00    -0.134 NA 
HETATM   30  C   UNL     1      -6.879   7.312  67.848  1.00  0.00    -0.070 C  
HETATM   31  C   UNL     1      -9.227   7.819  65.785  1.00  0.00     0.056 C  
HETATM   32  C   UNL     1     -10.740   5.851  65.064  1.00  0.00     2.766 C  
HETATM   33  N   UNL     1      -5.974   6.615  66.931  1.00  0.00    -0.021 NA 
HETATM   34  H   UNL     1      -5.096   7.123  66.833  1.00  0.00     0.000 HD 
HETATM   35  C   UNL     1     -10.638   7.233  65.773  1.00  0.00     2.248 C  
HETATM   36  C   UNL     1      -5.730   5.214  67.309  1.00  0.00    -0.014 C  
HETATM   37  C   UNL     1      -6.091   4.302  66.122  1.00  0.00    -0.031 C  
HETATM   38  C   UNL     1      -6.749   2.976  66.532  1.00  0.00    -0.044 C  
HETATM   39  N   UNL     1      -7.342   2.271  65.386  1.00  0.00    -0.061 NA 
HETATM   40  C   UNL     1      -8.792   2.462  65.140  1.00  0.00    -0.120 C  
HETATM   41  H   UNL     1      -6.778   1.674  64.782  1.00  0.00     0.000 HD 
HETATM   42  C   UNL     1      -9.329   3.860  64.671  1.00  0.00    -0.156 C  
ENDBRANCH  25  26
ENDBRANCH  23  25
ENDBRANCH   1  19
TORSDOF 4
ENDMDL
MODEL      204
REMARK 921   NORMALIZED FREE ENERGY PREDICTED BY IDOCK:   39.19 KCAL/MOL
REMARK 922        TOTAL FREE ENERGY PREDICTED BY IDOCK:   46.78 KCAL/MOL
REMARK 923 INTER-LIGAND FREE ENERGY PREDICTED BY IDOCK:   47.95 KCAL/MOL
REMARK 924 INTRA-LIGAND FREE ENERGY PREDICTED BY IDOCK:   -1.17 KCAL/MOL
REMARK 927      BINDING AFFINITY PREDICTED BY RF-SCORE:    0.00 PKD
ROOT
HETATM    1  C   UNL     1     -10.788   5.587  65.265  1.00  0.00     1.311 C  
ENDROOT
BRANCH   1   2
HETATM    2  N   UNL     1     -12.015   5.814  64.526  1.00  0.00     5.211 NA 
HETATM    3  C   UNL     1     -11.946   5.076  63.245  1.00  0.00     3.821 C  
HETATM    4  C   UNL     1     -11.564   3.560  63.370  1.00  0.00     1.117 C  
HETATM    5  C   UNL     1     -12.475   7.223  64.346  1.00  0.00    19.108 C  
HETATM    6  C   UNL     1     -11.770   8.481  64.940  1.00  0.00    12.956 C  
HETATM    7  H   UNL     1     -10.277   2.494  61.950  1.00  0.00     0.000 HD 
HETATM    8  C   UNL     1     -10.444   8.861  64.277  1.00  0.00     5.180 C  
HETATM    9  N   UNL     1     -10.287   3.076  62.788  1.00  0.00    -0.129 NA 
HETATM   10  C   UNL     1      -9.033   3.465  63.461  1.00  0.00    -0.093 C  
HETATM   11  N   UNL     1      -9.405   9.226  65.255  1.00  0.00    -0.379 NA 
HETATM   12  C   UNL     1      -8.415   4.739  62.865  1.00  0.00    -0.116 C  
HETATM   13  H   UNL     1      -9.532   8.728  66.136  1.00  0.00     0.000 HD 
HETATM   14  H   UNL     1      -6.541   7.184  63.064  1.00  0.00     0.000 HD 
HETATM   15  C   UNL     1      -7.314   5.382  63.730  1.00  0.00    -0.053 C  
HETATM   16  C   UNL     1      -8.049   9.019  64.708  1.00  0.00    -0.144 C  
HETATM   17  C   UNL     1      -7.533   7.562  64.835  1.00  0.00    -0.089 C  
HETATM   18  N   UNL     1      -7.363   6.847  63.565  1.00  0.00    -0.074 NA 
ENDBRANCH   1   2
BRANCH   1  19
HETATM   19  C   UNL     1     -10.893   5.143  66.687  1.00  0.00    -0.102 A  
HETATM   20  C   UNL     1     -11.578   5.906  67.616  1.00  0.00     1.234 A  
HETATM   21  C   UNL     1     -11.150   5.840  68.917  1.00  0.00    -0.136 A  
HETATM   22  C   UNL     1     -10.137   4.041  67.055  1.00  0.00     0.105 A  
HETATM   23  C   UNL     1     -10.287   4.822  69.316  1.00  0.00    -0.022 A  
HETATM   24  C   UNL     1      -9.760   3.921  68.375  1.00  0.00    -0.115 A  
BRANCH  23  25
HETATM   25  C   UNL     1      -9.893   4.645  70.736  1.00  0.00    -0.214 C  
BRANCH  25  26
HETATM   26  N   UNL     1     -10.951   4.513  71.722  1.00  0.00     0.262 NA 
HETATM   27  C   UNL     1      -6.381   2.225  72.281  1.00  0.00    -0.014 C  
HETATM   28  H   UNL     1      -7.928   1.574  71.048  1.00  0.00     0.000 HD 
HETATM   29  N   UNL     1      -7.686   1.579  72.038  1.00  0.00    -0.040 NA 
HETATM   30  C   UNL     1      -6.199   3.576  71.542  1.00  0.00    -0.015 C  
HETATM   31  C   UNL     1      -8.737   2.210  72.853  1.00  0.00    -0.066 C  
HETATM   32  C   UNL     1     -11.081   3.223  72.453  1.00  0.00     0.626 C  
HETATM   33  N   UNL     1      -6.133   4.736  72.433  1.00  0.00    -0.020 NA 
HETATM   34  H   UNL     1      -5.248   4.754  72.940  1.00  0.00     0.000 HD 
HETATM   35  C   UNL     1     -10.130   2.005  72.262  1.00  0.00    -0.230 C  
HETATM   36  C   UNL     1      -6.365   6.014  71.741  1.00  0.00    -0.045 C  
HETATM   37  C   UNL     1      -7.525   6.757  72.428  1.00  0.00    -0.088 C  
HETATM   38  C   UNL     1      -8.444   7.513  71.458  1.00  0.00    -0.115 C  
HETATM   39  N   UNL     1      -9.690   7.956  72.102  1.00  0.00    -0.184 NA 
HETATM   40  C   UNL     1     -10.887   7.095  71.945  1.00  0.00    -0.226 C  
HETATM   41  H   UNL     1      -9.729   8.824  72.638  1.00  0.00     0.000 HD 
HETATM   42  C   UNL     1     -10.930   5.684  72.631  1.00  0.00    -0.270 C  
ENDBRANCH  25  26
ENDBRANCH  23  25
ENDBRANCH   1  19
TORSDOF 4
ENDMDL
MODEL      205
REMARK 921   NORMALIZED FREE ENERGY PREDICTED BY IDOCK:   40.28 KCAL/MOL
REMARK 922        TOTAL FREE ENERGY PREDICTED BY IDOCK:   48.12 KCAL/MOL
REMARK 923 INTER-LIGAND FREE ENERGY PREDICTED BY IDOCK:   32.31 KCAL/MOL
REMARK 924 INTRA-LIGAND FREE ENERGY PREDICTED BY IDOCK:   15.81 KCAL/MOL
REMARK 927      BINDING AFFINITY PREDICTED BY RF-SCORE:    0.00 PKD
ROOT
HETATM    1  C   UNL     1     -10.920   5.071  72.143  1.00  0.00    -0.052 C  
ENDROOT
BRANCH   1   2
HETATM    2  N   UNL     1     -10.674   5.043  73.572  1.00  0.00    -0.255 NA 
HETATM    3  C   UNL     1      -9.303   4.540  73.811  1.00  0.00    -0.117 C  
HETATM    4  C   UNL     1      -8.175   5.265  72.997  1.00  0.00    -0.112 C  
HETATM    5  C   UNL     1     -11.684   4.377  74.445  1.00  0.00     2.237 C  
HETATM    6  C   UNL     1     -13.026   3.752  73.951  1.00  0.00     3.523 C  
HETATM    7  H   UNL     1      -6.432   4.249  72.136  1.00  0.00     0.000 HD 
HETATM    8  C   UNL     1     -12.887   2.445  73.166  1.00  0.00     0.876 C  
HETATM    9  N   UNL     1      -7.406   4.508  71.978  1.00  0.00    -0.065 NA 
HETATM   10  C   UNL     1      -8.097   4.142  70.727  1.00  0.00    -0.063 C  
HETATM   11  N   UNL     1     -13.751   2.405  71.975  1.00  0.00     4.897 NA 
HETATM   12  C   UNL     1      -8.721   2.739  70.786  1.00  0.00    -0.130 C  
HETATM   13  H   UNL     1     -13.903   3.339  71.593  1.00  0.00     0.000 HD 
HETATM   14  H   UNL     1     -10.728   0.627  69.767  1.00  0.00     0.000 HD 
HETATM   15  C   UNL     1      -9.734   2.441  69.665  1.00  0.00     0.151 C  
HETATM   16  C   UNL     1     -13.221   1.483  70.951  1.00  0.00     8.472 C  
HETATM   17  C   UNL     1     -12.137   2.112  70.035  1.00  0.00    13.256 C  
HETATM   18  N   UNL     1     -10.789   1.553  70.189  1.00  0.00     1.990 NA 
ENDBRANCH   1   2
BRANCH   1  19
HETATM   19  C   UNL     1      -9.830   5.569  71.250  1.00  0.00    -0.228 A  
HETATM   20  C   UNL     1      -8.747   6.252  71.773  1.00  0.00    -0.133 A  
HETATM   21  C   UNL     1      -8.150   7.188  70.968  1.00  0.00    -0.104 A  
HETATM   22  C   UNL     1     -10.045   5.466  69.885  1.00  0.00    -0.322 A  
HETATM   23  C   UNL     1      -8.426   7.210  69.602  1.00  0.00    -0.134 A  
HETATM   24  C   UNL     1      -9.394   6.353  69.054  1.00  0.00    -0.127 A  
BRANCH  23  25
HETATM   25  C   UNL     1      -7.715   8.127  68.678  1.00  0.00    -0.112 C  
BRANCH  25  26
HETATM   26  N   UNL     1      -6.303   8.370  68.914  1.00  0.00    -0.044 NA 
HETATM   27  C   UNL     1      -7.981   5.702  64.853  1.00  0.00    -0.117 C  
HETATM   28  H   UNL     1      -7.827   4.986  66.803  1.00  0.00     0.000 HD 
HETATM   29  N   UNL     1      -7.219   5.193  66.010  1.00  0.00    -0.072 NA 
HETATM   30  C   UNL     1      -9.010   6.806  65.211  1.00  0.00     0.278 C  
HETATM   31  C   UNL     1      -6.145   6.130  66.377  1.00  0.00    -0.032 C  
HETATM   32  C   UNL     1      -5.327   7.317  68.523  1.00  0.00    -0.021 C  
HETATM   33  N   UNL     1      -8.681   8.124  64.665  1.00  0.00    -0.397 NA 
HETATM   34  H   UNL     1      -8.825   8.145  63.656  1.00  0.00     0.000 HD 
HETATM   35  C   UNL     1      -5.713   5.975  67.834  1.00  0.00    -0.012 C  
HETATM   36  C   UNL     1      -9.409   9.222  65.321  1.00  0.00    -0.202 C  
HETATM   37  C   UNL     1      -8.396  10.250  65.856  1.00  0.00    -0.145 C  
HETATM   38  C   UNL     1      -8.789  10.870  67.204  1.00  0.00    -0.135 C  
HETATM   39  N   UNL     1      -7.678  11.611  67.821  1.00  0.00    -0.119 NA 
HETATM   40  C   UNL     1      -6.858  10.901  68.833  1.00  0.00    -0.076 C  
HETATM   41  H   UNL     1      -7.479  12.578  67.564  1.00  0.00     0.000 HD 
HETATM   42  C   UNL     1      -5.936   9.709  68.394  1.00  0.00    -0.043 C  
ENDBRANCH  25  26
ENDBRANCH  23  25
ENDBRANCH   1  19
TORSDOF 4
ENDMDL
MODEL      206
REMARK 921   NORMALIZED FREE ENERGY PREDICTED BY IDOCK:   47.47 KCAL/MOL
REMARK 922        TOTAL FREE ENERGY PREDICTED BY IDOCK:   56.99 KCAL/MOL
REMARK 923 INTER-LIGAND FREE ENERGY PREDICTED BY IDOCK:   -2.67 KCAL/MOL
REMARK 924 INTRA-LIGAND FREE ENERGY PREDICTED BY IDOCK:   59.66 KCAL/MOL
REMARK 927      BINDING AFFINITY PREDICTED BY RF-SCORE:    0.00 PKD
ROOT
HETATM    1  C   UNL     1      -9.964   9.363  68.813  1.00  0.00    -0.179 C  
ENDROOT
BRANCH   1   2
HETATM    2  N   UNL     1      -9.403  10.655  68.466  1.00  0.00    -0.162 NA 
HETATM    3  C   UNL     1      -8.408  11.035  69.494  1.00  0.00     0.282 C  
HETATM    4  C   UNL     1      -7.323   9.945  69.806  1.00  0.00    -0.129 C  
HETATM    5  C   UNL     1     -10.346  11.767  68.151  1.00  0.00    -0.200 C  
HETATM    6  C   UNL     1     -11.900  11.642  68.103  1.00  0.00    -0.315 C  
HETATM    7  H   UNL     1      -6.528   9.538  71.809  1.00  0.00     0.000 HD 
HETATM    8  C   UNL     1     -12.585  11.490  69.464  1.00  0.00     0.184 C  
HETATM    9  N   UNL     1      -7.278   9.321  71.151  1.00  0.00    -0.269 NA 
HETATM   10  C   UNL     1      -8.353   8.376  71.508  1.00  0.00    -0.154 C  
HETATM   11  N   UNL     1     -13.641  10.465  69.456  1.00  0.00     0.554 NA 
HETATM   12  C   UNL     1      -9.514   9.056  72.249  1.00  0.00     0.157 C  
HETATM   13  H   UNL     1     -13.438   9.725  68.784  1.00  0.00     0.000 HD 
HETATM   14  H   UNL     1     -12.453   9.121  73.192  1.00  0.00     0.000 HD 
HETATM   15  C   UNL     1     -10.799   8.211  72.340  1.00  0.00    -0.339 C  
HETATM   16  C   UNL     1     -13.876   9.917  70.807  1.00  0.00     0.346 C  
HETATM   17  C   UNL     1     -12.899   8.779  71.206  1.00  0.00    -0.215 C  
HETATM   18  N   UNL     1     -11.971   9.106  72.294  1.00  0.00    -0.280 NA 
ENDBRANCH   1   2
BRANCH   1  19
HETATM   19  C   UNL     1      -9.127   8.147  68.583  1.00  0.00    -0.143 A  
HETATM   20  C   UNL     1      -7.809   8.264  68.177  1.00  0.00    -0.118 A  
HETATM   21  C   UNL     1      -7.301   7.251  67.406  1.00  0.00    -0.092 A  
HETATM   22  C   UNL     1      -9.777   6.924  68.628  1.00  0.00    -0.136 A  
HETATM   23  C   UNL     1      -7.979   6.037  67.315  1.00  0.00    -0.102 A  
HETATM   24  C   UNL     1      -9.237   5.873  67.917  1.00  0.00    -0.108 A  
BRANCH  23  25
HETATM   25  C   UNL     1      -7.406   4.877  66.588  1.00  0.00    -0.082 C  
BRANCH  25  26
HETATM   26  N   UNL     1      -8.253   4.190  65.628  1.00  0.00    -0.108 NA 
HETATM   27  C   UNL     1      -6.613   1.927  69.943  1.00  0.00    -0.029 C  
HETATM   28  H   UNL     1      -5.486   2.219  68.215  1.00  0.00     0.000 HD 
HETATM   29  N   UNL     1      -6.226   1.604  68.555  1.00  0.00    -0.024 NA 
HETATM   30  C   UNL     1      -6.831   3.441  70.201  1.00  0.00    -0.034 C  
HETATM   31  C   UNL     1      -7.402   1.624  67.671  1.00  0.00    -0.053 C  
HETATM   32  C   UNL     1      -8.057   2.729  65.428  1.00  0.00    -0.087 C  
HETATM   33  N   UNL     1      -8.222   3.799  70.488  1.00  0.00    -0.057 NA 
HETATM   34  H   UNL     1      -8.496   3.476  71.416  1.00  0.00     0.000 HD 
HETATM   35  C   UNL     1      -7.024   1.866  66.211  1.00  0.00    -0.043 C  
HETATM   36  C   UNL     1      -8.495   5.237  70.332  1.00  0.00    -0.115 C  
HETATM   37  C   UNL     1      -9.656   5.426  69.339  1.00  0.00    -0.203 C  
HETATM   38  C   UNL     1      -9.497   6.644  68.418  1.00  0.00    -0.125 C  
HETATM   39  N   UNL     1     -10.456   6.627  67.302  1.00  0.00    -0.235 NA 
HETATM   40  C   UNL     1      -9.988   6.079  66.006  1.00  0.00     0.147 C  
HETATM   41  H   UNL     1     -11.407   6.978  67.415  1.00  0.00     0.000 HD 
HETATM   42  C   UNL     1      -9.670   4.547  65.873  1.00  0.00    -0.205 C  
ENDBRANCH  25  26
ENDBRANCH  23  25
ENDBRANCH   1  19
TORSDOF 4
ENDMDL
MODEL      207
REMARK 921   NORMALIZED FREE ENERGY PREDICTED BY IDOCK:   47.70 KCAL/MOL
REMARK 922        TOTAL FREE ENERGY PREDICTED BY IDOCK:   57.27 KCAL/MOL
REMARK 923 INTER-LIGAND FREE ENERGY PREDICTED BY IDOCK:   57.38 KCAL/MOL
REMARK 924 INTRA-LIGAND FREE ENERGY PREDICTED BY IDOCK:   -0.11 KCAL/MOL
REMARK 927      BINDING AFFINITY PREDICTED BY RF-SCORE:    0.00 PKD
ROOT
HETATM    1  C   UNL     1      -6.887  12.393  70.514  1.00  0.00     1.583 C  
ENDROOT
BRANCH   1   2
HETATM    2  N   UNL     1      -6.851  13.794  70.139  1.00  0.00     0.191 NA 
HETATM    3  C   UNL     1      -6.436  14.593  71.313  1.00  0.00     0.483 C  
HETATM    4  C   UNL     1      -5.125  14.102  72.023  1.00  0.00    -0.184 C  
HETATM    5  C   UNL     1      -8.048  14.368  69.456  1.00  0.00     0.274 C  
HETATM    6  C   UNL     1      -9.325  13.567  69.055  1.00  0.00     0.321 C  
HETATM    7  H   UNL     1      -4.820  14.124  74.195  1.00  0.00     0.000 HD 
HETATM    8  C   UNL     1     -10.227  13.150  70.219  1.00  0.00     2.797 C  
HETATM    9  N   UNL     1      -5.195  13.585  73.413  1.00  0.00    -0.409 NA 
HETATM   10  C   UNL     1      -5.823  12.268  73.626  1.00  0.00     2.099 C  
HETATM   11  N   UNL     1     -10.706  11.764  70.098  1.00  0.00     0.147 NA 
HETATM   12  C   UNL     1      -7.318  12.377  73.967  1.00  0.00     9.388 C  
HETATM   13  H   UNL     1     -10.033  11.179  69.602  1.00  0.00     0.000 HD 
HETATM   14  H   UNL     1     -10.144  11.150  74.157  1.00  0.00     0.000 HD 
HETATM   15  C   UNL     1      -8.097  11.052  73.860  1.00  0.00    13.225 C  
HETATM   16  C   UNL     1     -11.051  11.191  71.415  1.00  0.00     2.454 C  
HETATM   17  C   UNL     1      -9.837  10.611  72.188  1.00  0.00     8.318 C  
HETATM   18  N   UNL     1      -9.473  11.334  73.412  1.00  0.00    18.212 NA 
ENDBRANCH   1   2
BRANCH   1  19
HETATM   19  C   UNL     1      -6.716  11.371  69.438  1.00  0.00    -0.122 A  
HETATM   20  C   UNL     1      -7.270  11.566  68.185  1.00  0.00    -0.080 A  
HETATM   21  C   UNL     1      -7.640  10.447  67.484  1.00  0.00    -0.094 A  
HETATM   22  C   UNL     1      -6.138  10.167  69.806  1.00  0.00    -0.050 A  
HETATM   23  C   UNL     1      -7.187   9.192  67.885  1.00  0.00    -0.080 A  
HETATM   24  C   UNL     1      -6.441   9.045  69.066  1.00  0.00    -0.047 A  
BRANCH  23  25
HETATM   25  C   UNL     1      -7.466   7.972  67.089  1.00  0.00    -0.092 C  
BRANCH  25  26
HETATM   26  N   UNL     1      -8.436   7.026  67.612  1.00  0.00    -0.123 NA 
HETATM   27  C   UNL     1      -9.625  10.423  63.940  1.00  0.00    -0.312 C  
HETATM   28  H   UNL     1      -9.452  10.836  65.974  1.00  0.00     0.000 HD 
HETATM   29  N   UNL     1     -10.113  10.397  65.333  1.00  0.00    -0.290 NA 
HETATM   30  C   UNL     1      -8.147   9.982  63.781  1.00  0.00    -0.158 C  
HETATM   31  C   UNL     1     -10.439   9.021  65.744  1.00  0.00     0.932 C  
HETATM   32  C   UNL     1      -9.858   7.453  67.715  1.00  0.00    -0.152 C  
HETATM   33  N   UNL     1      -7.978   8.717  63.062  1.00  0.00    -0.153 NA 
HETATM   34  H   UNL     1      -8.178   8.836  62.069  1.00  0.00     0.000 HD 
HETATM   35  C   UNL     1     -10.392   8.843  67.260  1.00  0.00    -0.350 C  
HETATM   36  C   UNL     1      -6.653   8.109  63.261  1.00  0.00    -0.080 C  
HETATM   37  C   UNL     1      -6.831   6.676  63.795  1.00  0.00    -0.053 C  
HETATM   38  C   UNL     1      -5.779   6.263  64.834  1.00  0.00    -0.022 C  
HETATM   39  N   UNL     1      -6.145   5.021  65.533  1.00  0.00    -0.032 NA 
HETATM   40  C   UNL     1      -6.822   5.148  66.846  1.00  0.00    -0.063 C  
HETATM   41  H   UNL     1      -5.940   4.107  65.129  1.00  0.00     0.000 HD 
HETATM   42  C   UNL     1      -8.280   5.723  66.921  1.00  0.00    -0.101 C  
ENDBRANCH  25  26
ENDBRANCH  23  25
ENDBRANCH   1  19
TORSDOF 4
ENDMDL
MODEL      208
REMARK 921   NORMALIZED FREE ENERGY PREDICTED BY IDOCK:   49.19 KCAL/MOL
REMARK 922        TOTAL FREE ENERGY PREDICTED BY IDOCK:   59.12 KCAL/MOL
REMARK 923 INTER-LIGAND FREE ENERGY PREDICTED BY IDOCK:    2.18 KCAL/MOL
REMARK 924 INTRA-LIGAND FREE ENERGY PREDICTED BY IDOCK:   56.94 KCAL/MOL
REMARK 927      BINDING AFFINITY PREDICTED BY RF-SCORE:    0.00 PKD
ROOT
HETATM    1  C   UNL     1      -9.261  13.072  67.589  1.00  0.00    -0.200 C  
ENDROOT
BRANCH   1   2
HETATM    2  N   UNL     1      -7.947  13.575  67.236  1.00  0.00    -0.148 NA 
HETATM    3  C   UNL     1      -7.997  14.113  65.857  1.00  0.00     2.946 C  
HETATM    4  C   UNL     1      -9.153  15.137  65.582  1.00  0.00     0.288 C  
HETATM    5  C   UNL     1      -6.771  12.682  67.455  1.00  0.00    -0.156 C  
HETATM    6  C   UNL     1      -6.829  11.261  68.095  1.00  0.00    -0.067 C  
HETATM    7  H   UNL     1     -10.286  15.239  63.708  1.00  0.00     0.000 HD 
HETATM    8  C   UNL     1      -7.451  10.174  67.214  1.00  0.00    -0.091 C  
HETATM    9  N   UNL     1     -10.228  14.787  64.621  1.00  0.00    -0.150 NA 
HETATM   10  C   UNL     1     -11.209  13.763  65.028  1.00  0.00    -0.335 C  
HETATM   11  N   UNL     1      -8.373   9.300  67.958  1.00  0.00    -0.119 NA 
HETATM   12  C   UNL     1     -10.816  12.352  64.561  1.00  0.00    -0.358 C  
HETATM   13  H   UNL     1      -8.821   9.799  68.727  1.00  0.00     0.000 HD 
HETATM   14  H   UNL     1     -11.022   9.279  64.772  1.00  0.00     0.000 HD 
HETATM   15  C   UNL     1     -11.601  11.212  65.239  1.00  0.00     0.486 C  
HETATM   16  C   UNL     1      -9.371   8.678  67.065  1.00  0.00    -0.159 C  
HETATM   17  C   UNL     1     -10.601   9.577  66.770  1.00  0.00    -0.137 C  
HETATM   18  N   UNL     1     -10.720  10.038  65.382  1.00  0.00     0.286 NA 
ENDBRANCH   1   2
BRANCH   1  19
HETATM   19  C   UNL     1      -9.356  11.701  68.175  1.00  0.00    -0.188 A  
HETATM   20  C   UNL     1      -9.502  11.526  69.540  1.00  0.00     0.761 A  
HETATM   21  C   UNL     1      -8.974  10.383  70.083  1.00  0.00     0.432 A  
HETATM   22  C   UNL     1      -9.119  10.638  67.319  1.00  0.00    -0.151 A  
HETATM   23  C   UNL     1      -8.601   9.325  69.256  1.00  0.00    -0.139 A  
HETATM   24  C   UNL     1      -8.658   9.456  67.859  1.00  0.00    -0.120 A  
BRANCH  23  25
HETATM   25  C   UNL     1      -8.137   8.029  69.809  1.00  0.00    -0.115 C  
BRANCH  25  26
HETATM   26  N   UNL     1      -7.313   8.056  71.005  1.00  0.00    -0.057 NA 
HETATM   27  C   UNL     1     -12.394   7.296  71.194  1.00  0.00    -0.345 C  
HETATM   28  H   UNL     1     -11.445   9.130  70.921  1.00  0.00     0.000 HD 
HETATM   29  N   UNL     1     -11.642   8.472  71.675  1.00  0.00    -0.279 NA 
HETATM   30  C   UNL     1     -11.823   6.671  69.895  1.00  0.00    -0.175 C  
HETATM   31  C   UNL     1     -10.414   8.054  72.370  1.00  0.00    -0.301 C  
HETATM   32  C   UNL     1      -7.895   8.620  72.253  1.00  0.00    -0.001 C  
HETATM   33  N   UNL     1     -11.252   5.335  70.080  1.00  0.00     0.446 NA 
HETATM   34  H   UNL     1     -11.986   4.645  70.236  1.00  0.00     0.000 HD 
HETATM   35  C   UNL     1      -9.353   9.152  72.381  1.00  0.00     0.681 C  
HETATM   36  C   UNL     1     -10.371   4.923  68.976  1.00  0.00    -0.017 C  
HETATM   37  C   UNL     1      -8.991   4.546  69.545  1.00  0.00    -0.142 C  
HETATM   38  C   UNL     1      -7.813   4.962  68.653  1.00  0.00    -0.077 C  
HETATM   39  N   UNL     1      -6.522   4.858  69.350  1.00  0.00    -0.034 NA 
HETATM   40  C   UNL     1      -5.977   6.090  69.971  1.00  0.00    -0.025 C  
HETATM   41  H   UNL     1      -6.020   3.972  69.405  1.00  0.00     0.000 HD 
HETATM   42  C   UNL     1      -6.698   6.724  71.213  1.00  0.00    -0.057 C  
ENDBRANCH  25  26
ENDBRANCH  23  25
ENDBRANCH   1  19
TORSDOF 4
ENDMDL
MODEL      209
REMARK 921   NORMALIZED FREE ENERGY PREDICTED BY IDOCK:   50.03 KCAL/MOL
REMARK 922        TOTAL FREE ENERGY PREDICTED BY IDOCK:   60.15 KCAL/MOL
REMARK 923 INTER-LIGAND FREE ENERGY PREDICTED BY IDOCK:    1.23 KCAL/MOL
REMARK 924 INTRA-LIGAND FREE ENERGY PREDICTED BY IDOCK:   58.91 KCAL/MOL
REMARK 927      BINDING AFFINITY PREDICTED BY RF-SCORE:    0.00 PKD
ROOT
HETATM    1  C   UNL     1     -10.248   9.094  72.226  1.00  0.00     0.301 C  
ENDROOT
BRANCH   1   2
HETATM    2  N   UNL     1     -11.105   8.248  73.035  1.00  0.00    -0.130 NA 
HETATM    3  C   UNL     1     -11.186   6.911  72.406  1.00  0.00    -0.266 C  
HETATM    4  C   UNL     1      -9.806   6.252  72.059  1.00  0.00    -0.157 C  
HETATM    5  C   UNL     1     -12.446   8.775  73.425  1.00  0.00     1.960 C  
HETATM    6  C   UNL     1     -12.986  10.198  73.082  1.00  0.00     2.687 C  
HETATM    7  H   UNL     1      -9.429   5.062  70.255  1.00  0.00     0.000 HD 
HETATM    8  C   UNL     1     -13.361  10.418  71.614  1.00  0.00    -0.333 C  
HETATM    9  N   UNL     1      -9.448   6.008  70.639  1.00  0.00    -0.166 NA 
HETATM   10  C   UNL     1      -9.120   7.176  69.801  1.00  0.00    -0.141 C  
HETATM   11  N   UNL     1     -12.896  11.716  71.099  1.00  0.00    -0.343 NA 
HETATM   12  C   UNL     1     -10.339   7.712  69.034  1.00  0.00    -0.220 C  
HETATM   13  H   UNL     1     -12.042  12.019  71.567  1.00  0.00     0.000 HD 
HETATM   14  H   UNL     1     -11.798   9.964  67.507  1.00  0.00     0.000 HD 
HETATM   15  C   UNL     1     -10.147   9.114  68.425  1.00  0.00    -0.196 C  
HETATM   16  C   UNL     1     -12.725  11.687  69.632  1.00  0.00     0.348 C  
HETATM   17  C   UNL     1     -11.361  11.113  69.166  1.00  0.00    -0.273 C  
HETATM   18  N   UNL     1     -11.434   9.834  68.451  1.00  0.00     0.100 NA 
ENDBRANCH   1   2
BRANCH   1  19
HETATM   19  C   UNL     1      -9.182   8.442  71.409  1.00  0.00    -0.242 A  
HETATM   20  C   UNL     1      -8.433   9.179  70.508  1.00  0.00    -0.236 A  
HETATM   21  C   UNL     1      -7.965   8.522  69.399  1.00  0.00    -0.107 A  
HETATM   22  C   UNL     1      -9.104   7.060  71.471  1.00  0.00    -0.139 A  
HETATM   23  C   UNL     1      -7.978   7.129  69.357  1.00  0.00    -0.125 A  
HETATM   24  C   UNL     1      -8.567   6.388  70.395  1.00  0.00    -0.142 A  
BRANCH  23  25
HETATM   25  C   UNL     1      -7.374   6.377  68.229  1.00  0.00    -0.086 C  
BRANCH  25  26
HETATM   26  N   UNL     1      -5.928   6.392  68.100  1.00  0.00    -0.016 NA 
HETATM   27  C   UNL     1      -8.677   2.073  67.630  1.00  0.00    -0.106 C  
HETATM   28  H   UNL     1      -8.177   3.011  69.421  1.00  0.00     0.000 HD 
HETATM   29  N   UNL     1      -7.736   2.427  68.711  1.00  0.00    -0.050 NA 
HETATM   30  C   UNL     1      -9.498   3.273  67.091  1.00  0.00    -0.140 C  
HETATM   31  C   UNL     1      -6.525   3.057  68.160  1.00  0.00    -0.036 C  
HETATM   32  C   UNL     1      -5.161   5.212  68.583  1.00  0.00     0.000 C  
HETATM   33  N   UNL     1      -9.172   3.645  65.713  1.00  0.00    -0.152 NA 
HETATM   34  H   UNL     1      -9.526   2.949  65.056  1.00  0.00     0.000 HD 
HETATM   35  C   UNL     1      -5.809   3.931  69.187  1.00  0.00    -0.022 C  
HETATM   36  C   UNL     1      -9.637   4.992  65.349  1.00  0.00    -0.049 C  
HETATM   37  C   UNL     1      -8.442   5.819  64.841  1.00  0.00    -0.103 C  
HETATM   38  C   UNL     1      -8.478   7.294  65.265  1.00  0.00    -0.057 C  
HETATM   39  N   UNL     1      -7.197   7.975  65.021  1.00  0.00    -0.067 NA 
HETATM   40  C   UNL     1      -6.250   8.079  66.158  1.00  0.00    -0.045 C  
HETATM   41  H   UNL     1      -6.968   8.361  64.105  1.00  0.00     0.000 HD 
HETATM   42  C   UNL     1      -5.558   6.787  66.720  1.00  0.00    -0.017 C  
ENDBRANCH  25  26
ENDBRANCH  23  25
ENDBRANCH   1  19
TORSDOF 4
ENDMDL
MODEL      210
REMARK 921   NORMALIZED FREE ENERGY PREDICTED BY IDOCK:   57.84 KCAL/MOL
REMARK 922        TOTAL FREE ENERGY PREDICTED BY IDOCK:   69.78 KCAL/MOL
REMARK 923 INTER-LIGAND FREE ENERGY PREDICTED BY IDOCK:   50.68 KCAL/MOL
REMARK 924 INTRA-LIGAND FREE ENERGY PREDICTED BY IDOCK:   19.10 KCAL/MOL
REMARK 927      BINDING AFFINITY PREDICTED BY RF-SCORE:    0.00 PKD
ROOT
HETATM    1  C   UNL     1      -8.110   6.363  68.367  1.00  0.00    -0.113 C  
ENDROOT
BRANCH   1   2
HETATM    2  N   UNL     1      -7.323   5.933  69.508  1.00  0.00    -0.073 NA 
HETATM    3  C   UNL     1      -6.100   5.258  69.018  1.00  0.00    -0.025 C  
HETATM    4  C   UNL     1      -5.273   6.065  67.956  1.00  0.00    -0.004 C  
HETATM    5  C   UNL     1      -8.010   5.156  70.581  1.00  0.00    -0.088 C  
HETATM    6  C   UNL     1      -9.531   4.813  70.609  1.00  0.00    -0.238 C  
HETATM    7  H   UNL     1      -4.260   5.156  66.236  1.00  0.00     0.000 HD 
HETATM    8  C   UNL     1      -9.981   3.756  69.598  1.00  0.00     0.219 C  
HETATM    9  N   UNL     1      -5.144   5.538  66.575  1.00  0.00    -0.005 NA 
HETATM   10  C   UNL     1      -6.336   5.585  65.706  1.00  0.00    -0.039 C  
HETATM   11  N   UNL     1     -11.239   4.116  68.923  1.00  0.00     4.110 NA 
HETATM   12  C   UNL     1      -7.149   4.281  65.750  1.00  0.00    -0.067 C  
HETATM   13  H   UNL     1     -11.342   5.127  68.841  1.00  0.00     0.000 HD 
HETATM   14  H   UNL     1      -9.771   2.714  65.310  1.00  0.00     0.000 HD 
HETATM   15  C   UNL     1      -8.563   4.388  65.149  1.00  0.00    -0.126 C  
HETATM   16  C   UNL     1     -11.357   3.454  67.608  1.00  0.00     8.226 C  
HETATM   17  C   UNL     1     -10.629   4.199  66.458  1.00  0.00     0.740 C  
HETATM   18  N   UNL     1      -9.473   3.496  65.892  1.00  0.00    -0.162 NA 
ENDBRANCH   1   2
BRANCH   1  19
HETATM   19  C   UNL     1      -8.564   7.785  68.321  1.00  0.00    -0.124 A  
HETATM   20  C   UNL     1      -7.647   8.821  68.368  1.00  0.00    -0.095 A  
HETATM   21  C   UNL     1      -8.061   9.997  68.938  1.00  0.00    -0.111 A  
HETATM   22  C   UNL     1      -9.929   8.009  68.402  1.00  0.00    -0.204 A  
HETATM   23  C   UNL     1      -9.418  10.225  69.159  1.00  0.00    -0.225 A  
HETATM   24  C   UNL     1     -10.363   9.217  68.904  1.00  0.00    -0.232 A  
BRANCH  23  25
HETATM   25  C   UNL     1      -9.918  11.527  69.663  1.00  0.00     0.731 C  
BRANCH  25  26
HETATM   26  N   UNL     1     -10.916  12.225  68.871  1.00  0.00    -0.227 NA 
HETATM   27  C   UNL     1     -11.626   7.420  70.557  1.00  0.00    -0.229 C  
HETATM   28  H   UNL     1     -10.450   7.981  68.932  1.00  0.00     0.000 HD 
HETATM   29  N   UNL     1     -11.437   7.865  69.162  1.00  0.00     0.511 NA 
HETATM   30  C   UNL     1     -10.788   8.216  71.591  1.00  0.00    -0.249 C  
HETATM   31  C   UNL     1     -12.207   9.092  68.899  1.00  0.00     2.501 C  
HETATM   32  C   UNL     1     -11.741  11.437  67.916  1.00  0.00    -0.228 C  
HETATM   33  N   UNL     1     -11.590   9.039  72.499  1.00  0.00    -0.055 NA 
HETATM   34  H   UNL     1     -12.092   8.456  73.169  1.00  0.00     0.000 HD 
HETATM   35  C   UNL     1     -11.637   9.894  67.731  1.00  0.00     0.745 C  
HETATM   36  C   UNL     1     -10.806  10.075  73.189  1.00  0.00     7.028 C  
HETATM   37  C   UNL     1     -11.441  11.452  72.920  1.00  0.00     8.775 C  
HETATM   38  C   UNL     1     -10.420  12.585  72.741  1.00  0.00    16.126 C  
HETATM   39  N   UNL     1     -11.035  13.806  72.199  1.00  0.00     3.158 NA 
HETATM   40  C   UNL     1     -10.946  14.026  70.735  1.00  0.00     1.008 C  
HETATM   41  H   UNL     1     -11.504  14.478  72.807  1.00  0.00     0.000 HD 
HETATM   42  C   UNL     1     -11.735  13.088  69.754  1.00  0.00    -0.276 C  
ENDBRANCH  25  26
ENDBRANCH  23  25
ENDBRANCH   1  19
TORSDOF 4
ENDMDL
MODEL      211
REMARK 921   NORMALIZED FREE ENERGY PREDICTED BY IDOCK:   60.75 KCAL/MOL
REMARK 922        TOTAL FREE ENERGY PREDICTED BY IDOCK:   73.38 KCAL/MOL
REMARK 923 INTER-LIGAND FREE ENERGY PREDICTED BY IDOCK:    1.28 KCAL/MOL
REMARK 924 INTRA-LIGAND FREE ENERGY PREDICTED BY IDOCK:   72.10 KCAL/MOL
REMARK 927      BINDING AFFINITY PREDICTED BY RF-SCORE:    0.00 PKD
ROOT
HETATM    1  C   UNL     1      -9.068   9.705  67.067  1.00  0.00    -0.135 C  
ENDROOT
BRANCH   1   2
HETATM    2  N   UNL     1      -8.337  10.811  66.479  1.00  0.00    -0.140 NA 
HETATM    3  C   UNL     1      -7.250  11.209  67.401  1.00  0.00    -0.107 C  
HETATM    4  C   UNL     1      -6.326  10.038  67.888  1.00  0.00    -0.058 C  
HETATM    5  C   UNL     1      -9.117  11.982  65.982  1.00  0.00    -0.092 C  
HETATM    6  C   UNL     1     -10.673  12.093  65.987  1.00  0.00    -0.308 C  
HETATM    7  H   UNL     1      -5.509   9.877  69.917  1.00  0.00     0.000 HD 
HETATM    8  C   UNL     1     -11.309  12.294  67.365  1.00  0.00    -0.325 C  
HETATM    9  N   UNL     1      -6.313   9.665  69.324  1.00  0.00    -0.043 NA 
HETATM   10  C   UNL     1      -7.499   8.977  69.867  1.00  0.00    -0.065 C  
HETATM   11  N   UNL     1     -12.506  11.461  67.563  1.00  0.00     0.691 NA 
HETATM   12  C   UNL     1      -8.511   9.951  70.493  1.00  0.00     0.165 C  
HETATM   13  H   UNL     1     -12.446  10.590  67.035  1.00  0.00     0.000 HD 
HETATM   14  H   UNL     1     -11.360  10.638  71.460  1.00  0.00     0.000 HD 
HETATM   15  C   UNL     1      -9.902   9.345  70.759  1.00  0.00    -0.279 C  
HETATM   16  C   UNL     1     -12.757  11.206  68.996  1.00  0.00     0.842 C  
HETATM   17  C   UNL     1     -11.943  10.020  69.579  1.00  0.00     0.165 C  
HETATM   18  N   UNL     1     -10.928  10.388  70.571  1.00  0.00    -0.268 NA 
ENDBRANCH   1   2
BRANCH   1  19
HETATM   19  C   UNL     1      -8.537   8.323  66.864  1.00  0.00    -0.122 A  
HETATM   20  C   UNL     1      -7.191   8.113  66.620  1.00  0.00    -0.081 A  
HETATM   21  C   UNL     1      -6.857   7.026  65.855  1.00  0.00    -0.057 A  
HETATM   22  C   UNL     1      -9.471   7.304  66.762  1.00  0.00    -0.218 A  
HETATM   23  C   UNL     1      -7.799   6.027  65.615  1.00  0.00    -0.103 A  
HETATM   24  C   UNL     1      -9.124   6.171  66.057  1.00  0.00    -0.136 A  
BRANCH  23  25
HETATM   25  C   UNL     1      -7.445   4.780  64.892  1.00  0.00    -0.076 C  
BRANCH  25  26
HETATM   26  N   UNL     1      -8.367   4.296  63.880  1.00  0.00    -0.096 NA 
HETATM   27  C   UNL     1      -8.478   2.589  68.729  1.00  0.00    -0.067 C  
HETATM   28  H   UNL     1      -7.115   2.012  67.263  1.00  0.00     0.000 HD 
HETATM   29  N   UNL     1      -8.087   1.838  67.519  1.00  0.00    -0.064 NA 
HETATM   30  C   UNL     1      -8.048   4.079  68.712  1.00  0.00    -0.071 C  
HETATM   31  C   UNL     1      -9.005   2.130  66.407  1.00  0.00    -0.100 C  
HETATM   32  C   UNL     1      -8.803   2.874  63.940  1.00  0.00    -0.093 C  
HETATM   33  N   UNL     1      -9.168   5.020  68.635  1.00  0.00    -0.117 NA 
HETATM   34  H   UNL     1      -9.678   5.049  69.517  1.00  0.00     0.000 HD 
HETATM   35  C   UNL     1      -8.366   1.867  65.045  1.00  0.00    -0.084 C  
HETATM   36  C   UNL     1      -8.763   6.372  68.218  1.00  0.00    -0.116 C  
HETATM   37  C   UNL     1      -9.580   6.784  66.980  1.00  0.00    -0.188 C  
HETATM   38  C   UNL     1      -8.783   7.597  65.950  1.00  0.00    -0.152 C  
HETATM   39  N   UNL     1      -9.492   7.717  64.666  1.00  0.00     0.967 NA 
HETATM   40  C   UNL     1      -9.139   6.754  63.596  1.00  0.00     1.552 C  
HETATM   41  H   UNL     1     -10.201   8.436  64.518  1.00  0.00     0.000 HD 
HETATM   42  C   UNL     1      -9.506   5.236  63.757  1.00  0.00     0.657 C  
ENDBRANCH  25  26
ENDBRANCH  23  25
ENDBRANCH   1  19
TORSDOF 4
ENDMDL
MODEL      212
REMARK 921   NORMALIZED FREE ENERGY PREDICTED BY IDOCK:   60.77 KCAL/MOL
REMARK 922        TOTAL FREE ENERGY PREDICTED BY IDOCK:   73.40 KCAL/MOL
REMARK 923 INTER-LIGAND FREE ENERGY PREDICTED BY IDOCK:   14.51 KCAL/MOL
REMARK 924 INTRA-LIGAND FREE ENERGY PREDICTED BY IDOCK:   58.88 KCAL/MOL
REMARK 927      BINDING AFFINITY PREDICTED BY RF-SCORE:    0.00 PKD
ROOT
HETATM    1  C   UNL     1      -9.135  12.639  67.568  1.00  0.00    -0.192 C  
ENDROOT
BRANCH   1   2
HETATM    2  N   UNL     1      -9.161  11.473  68.430  1.00  0.00    -0.188 NA 
HETATM    3  C   UNL     1     -10.478  10.810  68.297  1.00  0.00    -0.181 C  
HETATM    4  C   UNL     1     -10.926  10.508  66.824  1.00  0.00    -0.080 C  
HETATM    5  C   UNL     1      -8.753  11.645  69.855  1.00  0.00     2.101 C  
HETATM    6  C   UNL     1      -8.239  12.974  70.489  1.00  0.00     5.303 C  
HETATM    7  H   UNL     1     -12.991  10.686  66.106  1.00  0.00     0.000 HD 
HETATM    8  C   UNL     1      -9.305  14.054  70.696  1.00  0.00     3.764 C  
HETATM    9  N   UNL     1     -12.120  11.193  66.268  1.00  0.00     0.810 NA 
HETATM   10  C   UNL     1     -12.005  12.630  65.956  1.00  0.00    -0.417 C  
HETATM   11  N   UNL     1      -8.839  15.393  70.302  1.00  0.00     0.089 NA 
HETATM   12  C   UNL     1     -12.470  13.524  67.117  1.00  0.00    -0.056 C  
HETATM   13  H   UNL     1      -8.154  15.343  69.549  1.00  0.00     0.000 HD 
HETATM   14  H   UNL     1     -12.518  16.236  68.591  1.00  0.00     0.000 HD 
HETATM   15  C   UNL     1     -12.058  15.003  66.992  1.00  0.00     0.136 C  
HETATM   16  C   UNL     1      -9.968  16.277  69.947  1.00  0.00     0.065 C  
HETATM   17  C   UNL     1     -10.461  16.115  68.484  1.00  0.00    -0.269 C  
HETATM   18  N   UNL     1     -11.807  15.551  68.338  1.00  0.00    -0.305 NA 
ENDBRANCH   1   2
BRANCH   1  19
HETATM   19  C   UNL     1      -9.024  13.985  68.206  1.00  0.00    -0.190 A  
HETATM   20  C   UNL     1     -10.157  14.726  68.491  1.00  0.00    -0.230 A  
HETATM   21  C   UNL     1     -10.034  16.092  68.465  1.00  0.00    -0.222 A  
HETATM   22  C   UNL     1      -7.749  14.513  68.333  1.00  0.00    -0.128 A  
HETATM   23  C   UNL     1      -8.769  16.678  68.466  1.00  0.00    -0.242 A  
HETATM   24  C   UNL     1      -7.614  15.884  68.383  1.00  0.00    -0.132 A  
BRANCH  23  25
HETATM   25  C   UNL     1      -8.591  18.148  68.556  1.00  0.00    -0.294 C  
BRANCH  25  26
HETATM   26  N   UNL     1      -8.943  18.799  69.805  1.00  0.00     0.751 NA 
HETATM   27  C   UNL     1      -5.475  20.777  66.566  1.00  0.00    -0.187 C  
HETATM   28  H   UNL     1      -5.150  19.199  67.885  1.00  0.00     0.000 HD 
HETATM   29  N   UNL     1      -5.233  20.215  67.909  1.00  0.00    -0.186 NA 
HETATM   30  C   UNL     1      -6.575  20.037  65.761  1.00  0.00    -0.244 C  
HETATM   31  C   UNL     1      -6.273  20.656  68.852  1.00  0.00    -0.278 C  
HETATM   32  C   UNL     1      -7.883  19.542  70.540  1.00  0.00     1.470 C  
HETATM   33  N   UNL     1      -7.781  20.835  65.530  1.00  0.00    -0.242 NA 
HETATM   34  H   UNL     1      -7.604  21.571  64.847  1.00  0.00     0.000 HD 
HETATM   35  C   UNL     1      -6.418  19.707  70.040  1.00  0.00    -0.288 C  
HETATM   36  C   UNL     1      -8.946  20.026  65.139  1.00  0.00     1.307 C  
HETATM   37  C   UNL     1     -10.106  20.308  66.112  1.00  0.00    -0.440 C  
HETATM   38  C   UNL     1     -10.950  19.071  66.451  1.00  0.00    -0.013 C  
HETATM   39  N   UNL     1     -11.848  19.305  67.592  1.00  0.00     1.150 NA 
HETATM   40  C   UNL     1     -11.382  18.868  68.931  1.00  0.00     2.374 C  
HETATM   41  H   UNL     1     -12.757  19.751  67.468  1.00  0.00     0.000 HD 
HETATM   42  C   UNL     1     -10.175  19.601  69.617  1.00  0.00     0.198 C  
ENDBRANCH  25  26
ENDBRANCH  23  25
ENDBRANCH   1  19
TORSDOF 4
ENDMDL
MODEL      213
REMARK 921   NORMALIZED FREE ENERGY PREDICTED BY IDOCK:   61.17 KCAL/MOL
REMARK 922        TOTAL FREE ENERGY PREDICTED BY IDOCK:   73.89 KCAL/MOL
REMARK 923 INTER-LIGAND FREE ENERGY PREDICTED BY IDOCK:    0.46 KCAL/MOL
REMARK 924 INTRA-LIGAND FREE ENERGY PREDICTED BY IDOCK:   73.43 KCAL/MOL
REMARK 927      BINDING AFFINITY PREDICTED BY RF-SCORE:    0.00 PKD
ROOT
HETATM    1  C   UNL     1      -8.773   4.448  66.463  1.00  0.00    -0.112 C  
ENDROOT
BRANCH   1   2
HETATM    2  N   UNL     1      -9.948   3.815  65.896  1.00  0.00    -0.078 NA 
HETATM    3  C   UNL     1     -10.286   2.623  66.707  1.00  0.00     2.439 C  
HETATM    4  C   UNL     1     -10.395   2.876  68.251  1.00  0.00     2.111 C  
HETATM    5  C   UNL     1      -9.953   3.526  64.432  1.00  0.00    -0.185 C  
HETATM    6  C   UNL     1      -8.813   3.905  63.438  1.00  0.00    -0.105 C  
HETATM    7  H   UNL     1      -9.712   1.461  69.781  1.00  0.00     0.000 HD 
HETATM    8  C   UNL     1      -7.533   3.075  63.566  1.00  0.00    -0.062 C  
HETATM    9  N   UNL     1      -9.427   2.227  69.170  1.00  0.00    -0.114 NA 
HETATM   10  C   UNL     1      -8.038   2.725  69.169  1.00  0.00    -0.054 C  
HETATM   11  N   UNL     1      -6.314   3.898  63.495  1.00  0.00    -0.025 NA 
HETATM   12  C   UNL     1      -7.128   1.933  68.217  1.00  0.00    -0.039 C  
HETATM   13  H   UNL     1      -6.477   4.837  63.859  1.00  0.00     0.000 HD 
HETATM   14  H   UNL     1      -4.563   1.673  66.520  1.00  0.00     0.000 HD 
HETATM   15  C   UNL     1      -5.777   2.608  67.913  1.00  0.00    -0.019 C  
HETATM   16  C   UNL     1      -5.178   3.245  64.177  1.00  0.00    -0.009 C  
HETATM   17  C   UNL     1      -5.142   3.480  65.710  1.00  0.00    -0.008 C  
HETATM   18  N   UNL     1      -5.376   2.287  66.530  1.00  0.00    -0.012 NA 
ENDBRANCH   1   2
BRANCH   1  19
HETATM   19  C   UNL     1      -8.874   5.879  66.876  1.00  0.00    -0.115 A  
HETATM   20  C   UNL     1      -7.774   6.716  66.796  1.00  0.00    -0.106 A  
HETATM   21  C   UNL     1      -7.700   7.740  67.705  1.00  0.00    -0.122 A  
HETATM   22  C   UNL     1     -10.050   6.270  67.495  1.00  0.00    -0.186 A  
HETATM   23  C   UNL     1      -8.825   8.095  68.448  1.00  0.00    -0.133 A  
HETATM   24  C   UNL     1     -10.008   7.345  68.356  1.00  0.00    -0.177 A  
BRANCH  23  25
HETATM   25  C   UNL     1      -8.821   9.270  69.354  1.00  0.00    -0.149 C  
BRANCH  25  26
HETATM   26  N   UNL     1      -9.988   9.487  70.190  1.00  0.00    -0.225 NA 
HETATM   27  C   UNL     1      -9.568  11.525  65.489  1.00  0.00    -0.227 C  
HETATM   28  H   UNL     1      -8.635  12.232  67.212  1.00  0.00     0.000 HD 
HETATM   29  N   UNL     1      -9.560  12.238  66.782  1.00  0.00    -0.212 NA 
HETATM   30  C   UNL     1      -8.856  10.147  65.524  1.00  0.00    -0.169 C  
HETATM   31  C   UNL     1     -10.585  11.688  67.684  1.00  0.00    -0.203 C  
HETATM   32  C   UNL     1     -10.683  10.800  70.109  1.00  0.00     0.013 C  
HETATM   33  N   UNL     1      -9.759   9.008  65.344  1.00  0.00    -0.444 NA 
HETATM   34  H   UNL     1     -10.085   8.953  64.379  1.00  0.00     0.000 HD 
HETATM   35  C   UNL     1     -10.268  11.957  69.153  1.00  0.00     0.089 C  
HETATM   36  C   UNL     1      -9.171   7.729  65.772  1.00  0.00     0.056 C  
HETATM   37  C   UNL     1     -10.097   7.071  66.811  1.00  0.00    -0.270 C  
HETATM   38  C   UNL     1      -9.351   6.344  67.939  1.00  0.00    -0.114 C  
HETATM   39  N   UNL     1     -10.240   5.989  69.056  1.00  0.00    -0.175 NA 
HETATM   40  C   UNL     1     -10.287   6.913  70.215  1.00  0.00    -0.199 C  
HETATM   41  H   UNL     1     -10.804   5.139  69.034  1.00  0.00     0.000 HD 
HETATM   42  C   UNL     1     -10.917   8.341  70.052  1.00  0.00    -0.197 C  
ENDBRANCH  25  26
ENDBRANCH  23  25
ENDBRANCH   1  19
TORSDOF 4
ENDMDL
MODEL      214
REMARK 921   NORMALIZED FREE ENERGY PREDICTED BY IDOCK:   64.34 KCAL/MOL
REMARK 922        TOTAL FREE ENERGY PREDICTED BY IDOCK:   77.81 KCAL/MOL
REMARK 923 INTER-LIGAND FREE ENERGY PREDICTED BY IDOCK:   -2.42 KCAL/MOL
REMARK 924 INTRA-LIGAND FREE ENERGY PREDICTED BY IDOCK:   80.23 KCAL/MOL
REMARK 927      BINDING AFFINITY PREDICTED BY RF-SCORE:    0.00 PKD
ROOT
HETATM    1  C   UNL     1     -10.885   4.418  72.322  1.00  0.00     0.085 C  
ENDROOT
BRANCH   1   2
HETATM    2  N   UNL     1     -10.798   5.055  73.622  1.00  0.00    -0.289 NA 
HETATM    3  C   UNL     1     -10.785   6.523  73.435  1.00  0.00    -0.270 C  
HETATM    4  C   UNL     1     -11.940   7.091  72.537  1.00  0.00    -0.052 C  
HETATM    5  C   UNL     1      -9.733   4.593  74.560  1.00  0.00    -0.151 C  
HETATM    6  C   UNL     1      -8.732   3.430  74.280  1.00  0.00    -0.087 C  
HETATM    7  H   UNL     1     -11.695   8.743  71.116  1.00  0.00     0.000 HD 
HETATM    8  C   UNL     1      -7.645   3.738  73.247  1.00  0.00    -0.073 C  
HETATM    9  N   UNL     1     -11.611   7.734  71.241  1.00  0.00    -0.272 NA 
HETATM   10  C   UNL     1     -11.157   6.866  70.138  1.00  0.00    -0.299 C  
HETATM   11  N   UNL     1      -7.428   2.629  72.304  1.00  0.00    -0.049 NA 
HETATM   12  C   UNL     1      -9.626   6.752  70.069  1.00  0.00    -0.160 C  
HETATM   13  H   UNL     1      -8.283   2.093  72.155  1.00  0.00     0.000 HD 
HETATM   14  H   UNL     1      -7.061   5.297  69.155  1.00  0.00     0.000 HD 
HETATM   15  C   UNL     1      -9.109   5.607  69.177  1.00  0.00    -0.112 C  
HETATM   16  C   UNL     1      -6.861   3.106  71.026  1.00  0.00    -0.032 C  
HETATM   17  C   UNL     1      -7.921   3.635  70.024  1.00  0.00    -0.046 C  
HETATM   18  N   UNL     1      -7.858   5.075  69.750  1.00  0.00    -0.070 NA 
ENDBRANCH   1   2
BRANCH   1  19
HETATM   19  C   UNL     1      -9.802   4.692  71.330  1.00  0.00    -0.261 A  
HETATM   20  C   UNL     1      -8.831   5.643  71.589  1.00  0.00    -0.140 A  
HETATM   21  C   UNL     1      -8.290   6.293  70.510  1.00  0.00    -0.129 A  
HETATM   22  C   UNL     1      -9.921   4.082  70.091  1.00  0.00    -0.084 A  
HETATM   23  C   UNL     1      -8.483   5.792  69.225  1.00  0.00    -0.108 A  
HETATM   24  C   UNL     1      -9.319   4.685  69.008  1.00  0.00    -0.203 A  
BRANCH  23  25
HETATM   25  C   UNL     1      -7.818   6.396  68.044  1.00  0.00    -0.105 C  
BRANCH  25  26
HETATM   26  N   UNL     1      -6.565   7.099  68.255  1.00  0.00    -0.047 NA 
HETATM   27  C   UNL     1      -6.905   2.952  65.236  1.00  0.00    -0.044 C  
HETATM   28  H   UNL     1      -6.848   2.943  67.318  1.00  0.00     0.000 HD 
HETATM   29  N   UNL     1      -6.208   3.065  66.533  1.00  0.00    -0.024 NA 
HETATM   30  C   UNL     1      -8.224   3.763  65.156  1.00  0.00    -0.097 C  
HETATM   31  C   UNL     1      -5.476   4.339  66.619  1.00  0.00    -0.013 C  
HETATM   32  C   UNL     1      -5.305   6.308  68.285  1.00  0.00    -0.008 C  
HETATM   33  N   UNL     1      -8.174   4.888  64.219  1.00  0.00    -0.115 NA 
HETATM   34  H   UNL     1      -8.174   4.557  63.254  1.00  0.00     0.000 HD 
HETATM   35  C   UNL     1      -5.229   4.769  68.064  1.00  0.00    -0.011 C  
HETATM   36  C   UNL     1      -9.246   5.872  64.436  1.00  0.00     0.773 C  
HETATM   37  C   UNL     1      -8.620   7.262  64.647  1.00  0.00     0.256 C  
HETATM   38  C   UNL     1      -9.346   8.122  65.691  1.00  0.00     0.102 C  
HETATM   39  N   UNL     1      -8.564   9.305  66.080  1.00  0.00    -0.130 NA 
HETATM   40  C   UNL     1      -7.739   9.207  67.309  1.00  0.00    -0.095 C  
HETATM   41  H   UNL     1      -8.587  10.161  65.526  1.00  0.00     0.000 HD 
HETATM   42  C   UNL     1      -6.487   8.261  67.338  1.00  0.00    -0.058 C  
ENDBRANCH  25  26
ENDBRANCH  23  25
ENDBRANCH   1  19
TORSDOF 4
ENDMDL
MODEL      215
REMARK 921   NORMALIZED FREE ENERGY PREDICTED BY IDOCK:   64.81 KCAL/MOL
REMARK 922        TOTAL FREE ENERGY PREDICTED BY IDOCK:   78.39 KCAL/MOL
REMARK 923 INTER-LIGAND FREE ENERGY PREDICTED BY IDOCK:   -2.81 KCAL/MOL
REMARK 924 INTRA-LIGAND FREE ENERGY PREDICTED BY IDOCK:   81.20 KCAL/MOL
REMARK 927      BINDING AFFINITY PREDICTED BY RF-SCORE:    0.00 PKD
ROOT
HETATM    1  C   UNL     1     -10.813   3.550  72.363  1.00  0.00     0.264 C  
ENDROOT
BRANCH   1   2
HETATM    2  N   UNL     1     -10.638   4.033  73.719  1.00  0.00    -0.191 NA 
HETATM    3  C   UNL     1     -10.709   5.512  73.713  1.00  0.00    -0.260 C  
HETATM    4  C   UNL     1     -11.965   6.115  72.992  1.00  0.00     0.440 C  
HETATM    5  C   UNL     1      -9.472   3.525  74.500  1.00  0.00    -0.100 C  
HETATM    6  C   UNL     1      -8.448   2.461  73.996  1.00  0.00    -0.063 C  
HETATM    7  H   UNL     1     -11.926   7.934  71.768  1.00  0.00     0.000 HD 
HETATM    8  C   UNL     1      -7.475   2.949  72.920  1.00  0.00    -0.049 C  
HETATM    9  N   UNL     1     -11.785   6.924  71.761  1.00  0.00    -0.285 NA 
HETATM   10  C   UNL     1     -11.394   6.218  70.525  1.00  0.00    -0.361 C  
HETATM   11  N   UNL     1      -7.295   1.973  71.833  1.00  0.00    -0.038 NA 
HETATM   12  C   UNL     1      -9.872   6.199  70.313  1.00  0.00    -0.206 C  
HETATM   13  H   UNL     1      -8.135   1.411  71.694  1.00  0.00     0.000 HD 
HETATM   14  H   UNL     1      -7.337   5.009  69.014  1.00  0.00     0.000 HD 
HETATM   15  C   UNL     1      -9.387   5.199  69.247  1.00  0.00    -0.123 C  
HETATM   16  C   UNL     1      -6.869   2.628  70.580  1.00  0.00    -0.033 C  
HETATM   17  C   UNL     1      -8.038   3.210  69.743  1.00  0.00    -0.044 C  
HETATM   18  N   UNL     1      -8.066   4.674  69.643  1.00  0.00    -0.065 NA 
ENDBRANCH   1   2
BRANCH   1  19
HETATM   19  C   UNL     1      -9.852   4.015  71.319  1.00  0.00    -0.242 A  
HETATM   20  C   UNL     1      -8.991   5.070  71.572  1.00  0.00    -0.157 A  
HETATM   21  C   UNL     1      -8.619   5.842  70.503  1.00  0.00    -0.136 A  
HETATM   22  C   UNL     1      -9.986   3.463  70.055  1.00  0.00     0.275 A  
HETATM   23  C   UNL     1      -8.844   5.390  69.204  1.00  0.00    -0.110 A  
HETATM   24  C   UNL     1      -9.548   4.197  68.974  1.00  0.00    -0.232 A  
BRANCH  23  25
HETATM   25  C   UNL     1      -8.351   6.139  68.021  1.00  0.00    -0.117 C  
BRANCH  25  26
HETATM   26  N   UNL     1      -8.736   5.662  66.705  1.00  0.00    -0.114 NA 
HETATM   27  C   UNL     1     -10.291  10.209  68.532  1.00  0.00    -0.180 C  
HETATM   28  H   UNL     1     -11.078   8.352  69.053  1.00  0.00     0.000 HD 
HETATM   29  N   UNL     1     -11.118   9.012  68.277  1.00  0.00     0.103 NA 
HETATM   30  C   UNL     1      -8.871   9.892  69.068  1.00  0.00    -0.156 C  
HETATM   31  C   UNL     1     -10.736   8.380  67.003  1.00  0.00    -0.134 C  
HETATM   32  C   UNL     1     -10.087   6.014  66.191  1.00  0.00     0.083 C  
HETATM   33  N   UNL     1      -7.795  10.227  68.133  1.00  0.00    -0.102 NA 
HETATM   34  H   UNL     1      -7.677  11.238  68.063  1.00  0.00     0.000 HD 
HETATM   35  C   UNL     1     -11.114   6.901  66.954  1.00  0.00    -0.219 C  
HETATM   36  C   UNL     1      -6.518   9.572  68.458  1.00  0.00    -0.052 C  
HETATM   37  C   UNL     1      -6.034   8.774  67.233  1.00  0.00    -0.047 C  
HETATM   38  C   UNL     1      -5.358   7.442  67.584  1.00  0.00    -0.025 C  
HETATM   39  N   UNL     1      -5.179   6.580  66.405  1.00  0.00    -0.013 NA 
HETATM   40  C   UNL     1      -6.207   5.542  66.152  1.00  0.00    -0.034 C  
HETATM   41  H   UNL     1      -4.378   6.693  65.783  1.00  0.00     0.000 HD 
HETATM   42  C   UNL     1      -7.659   5.964  65.733  1.00  0.00    -0.087 C  
ENDBRANCH  25  26
ENDBRANCH  23  25
ENDBRANCH   1  19
TORSDOF 4
ENDMDL
MODEL      216
REMARK 921   NORMALIZED FREE ENERGY PREDICTED BY IDOCK:   65.55 KCAL/MOL
REMARK 922        TOTAL FREE ENERGY PREDICTED BY IDOCK:   79.30 KCAL/MOL
REMARK 923 INTER-LIGAND FREE ENERGY PREDICTED BY IDOCK:    3.91 KCAL/MOL
REMARK 924 INTRA-LIGAND FREE ENERGY PREDICTED BY IDOCK:   75.39 KCAL/MOL
REMARK 927      BINDING AFFINITY PREDICTED BY RF-SCORE:    0.00 PKD
ROOT
HETATM    1  C   UNL     1      -7.248  10.609  67.949  1.00  0.00    -0.087 C  
ENDROOT
BRANCH   1   2
HETATM    2  N   UNL     1      -6.575  10.836  66.684  1.00  0.00    -0.103 NA 
HETATM    3  C   UNL     1      -6.027  12.210  66.674  1.00  0.00     0.313 C  
HETATM    4  C   UNL     1      -5.154  12.589  67.921  1.00  0.00    -0.086 C  
HETATM    5  C   UNL     1      -7.314  10.510  65.429  1.00  0.00    -0.084 C  
HETATM    6  C   UNL     1      -8.742   9.884  65.362  1.00  0.00    -0.175 C  
HETATM    7  H   UNL     1      -5.168  14.562  68.879  1.00  0.00     0.000 HD 
HETATM    8  C   UNL     1      -9.885  10.824  65.755  1.00  0.00    -0.240 C  
HETATM    9  N   UNL     1      -5.623  13.649  68.848  1.00  0.00    -0.072 NA 
HETATM   10  C   UNL     1      -6.770  13.340  69.723  1.00  0.00     0.131 C  
HETATM   11  N   UNL     1     -10.881  10.173  66.622  1.00  0.00    -0.082 NA 
HETATM   12  C   UNL     1      -8.112  13.773  69.111  1.00  0.00     0.288 C  
HETATM   13  H   UNL     1     -10.455   9.447  67.200  1.00  0.00     0.000 HD 
HETATM   14  H   UNL     1     -11.189  13.595  68.939  1.00  0.00     0.000 HD 
HETATM   15  C   UNL     1      -9.353  13.177  69.802  1.00  0.00     2.247 C  
HETATM   16  C   UNL     1     -11.610  11.159  67.445  1.00  0.00    -0.071 C  
HETATM   17  C   UNL     1     -10.871  11.564  68.748  1.00  0.00    -0.216 C  
HETATM   18  N   UNL     1     -10.408  12.956  68.795  1.00  0.00    -0.179 NA 
ENDBRANCH   1   2
BRANCH   1  19
HETATM   19  C   UNL     1      -7.860   9.268  68.191  1.00  0.00    -0.095 A  
HETATM   20  C   UNL     1      -9.234   9.125  68.277  1.00  0.00    -0.135 A  
HETATM   21  C   UNL     1      -9.708   8.119  69.078  1.00  0.00    -0.163 A  
HETATM   22  C   UNL     1      -6.993   8.231  68.494  1.00  0.00    -0.069 A  
HETATM   23  C   UNL     1      -8.850   7.112  69.516  1.00  0.00    -0.137 A  
HETATM   24  C   UNL     1      -7.475   7.174  69.236  1.00  0.00    -0.093 A  
BRANCH  23  25
HETATM   25  C   UNL     1      -9.346   5.944  70.284  1.00  0.00    -0.158 C  
BRANCH  25  26
HETATM   26  N   UNL     1     -10.480   5.212  69.751  1.00  0.00    -0.265 NA 
HETATM   27  C   UNL     1     -11.034   9.008  73.173  1.00  0.00     2.129 C  
HETATM   28  H   UNL     1     -10.423   7.063  73.598  1.00  0.00     0.000 HD 
HETATM   29  N   UNL     1     -11.282   7.567  73.380  1.00  0.00    -0.248 NA 
HETATM   30  C   UNL     1      -9.826   9.313  72.249  1.00  0.00     0.758 C  
HETATM   31  C   UNL     1     -11.976   6.988  72.219  1.00  0.00    -0.211 C  
HETATM   32  C   UNL     1     -11.648   4.968  70.640  1.00  0.00     2.300 C  
HETATM   33  N   UNL     1     -10.197   9.924  70.970  1.00  0.00    -0.275 NA 
HETATM   34  H   UNL     1     -10.497  10.889  71.103  1.00  0.00     0.000 HD 
HETATM   35  C   UNL     1     -11.758   5.481  72.106  1.00  0.00    -0.056 C  
HETATM   36  C   UNL     1      -9.132   9.840  69.958  1.00  0.00    -0.223 C  
HETATM   37  C   UNL     1      -9.688   9.153  68.697  1.00  0.00    -0.164 C  
HETATM   38  C   UNL     1      -8.685   8.223  68.000  1.00  0.00    -0.135 C  
HETATM   39  N   UNL     1      -9.328   7.367  66.991  1.00  0.00    -0.142 NA 
HETATM   40  C   UNL     1      -9.715   5.995  67.402  1.00  0.00    -0.115 C  
HETATM   41  H   UNL     1      -9.501   7.704  66.044  1.00  0.00     0.000 HD 
HETATM   42  C   UNL     1     -10.871   5.788  68.442  1.00  0.00    -0.174 C  
ENDBRANCH  25  26
ENDBRANCH  23  25
ENDBRANCH   1  19
TORSDOF 4
ENDMDL
MODEL      217
REMARK 921   NORMALIZED FREE ENERGY PREDICTED BY IDOCK:   70.97 KCAL/MOL
REMARK 922        TOTAL FREE ENERGY PREDICTED BY IDOCK:   85.98 KCAL/MOL
REMARK 923 INTER-LIGAND FREE ENERGY PREDICTED BY IDOCK:   -0.02 KCAL/MOL
REMARK 924 INTRA-LIGAND FREE ENERGY PREDICTED BY IDOCK:   86.00 KCAL/MOL
REMARK 927      BINDING AFFINITY PREDICTED BY RF-SCORE:    0.00 PKD
ROOT
HETATM    1  C   UNL     1      -7.274  17.883  66.322  1.00  0.00    -0.289 C  
ENDROOT
BRANCH   1   2
HETATM    2  N   UNL     1      -7.874  19.139  66.729  1.00  0.00    -0.249 NA 
HETATM    3  C   UNL     1      -7.404  19.473  68.092  1.00  0.00    -0.299 C  
HETATM    4  C   UNL     1      -5.848  19.431  68.290  1.00  0.00    -0.216 C  
HETATM    5  C   UNL     1      -9.352  19.290  66.586  1.00  0.00    -0.341 C  
HETATM    6  C   UNL     1     -10.309  18.222  65.973  1.00  0.00    -0.377 C  
HETATM    7  H   UNL     1      -4.857  18.699  70.104  1.00  0.00     0.000 HD 
HETATM    8  C   UNL     1     -10.551  16.986  66.843  1.00  0.00    -0.208 C  
HETATM    9  N   UNL     1      -5.253  18.425  69.204  1.00  0.00    -0.186 NA 
HETATM   10  C   UNL     1      -5.254  17.015  68.770  1.00  0.00    -0.129 C  
HETATM   11  N   UNL     1     -10.509  15.732  66.073  1.00  0.00    -0.323 NA 
HETATM   12  C   UNL     1      -6.478  16.240  69.284  1.00  0.00    -0.188 C  
HETATM   13  H   UNL     1      -9.881  15.807  65.273  1.00  0.00     0.000 HD 
HETATM   14  H   UNL     1      -8.430  13.854  69.126  1.00  0.00     0.000 HD 
HETATM   15  C   UNL     1      -6.714  14.884  68.592  1.00  0.00    -0.094 C  
HETATM   16  C   UNL     1     -10.159  14.581  66.929  1.00  0.00    -0.257 C  
HETATM   17  C   UNL     1      -8.633  14.396  67.144  1.00  0.00    -0.218 C  
HETATM   18  N   UNL     1      -8.164  14.626  68.515  1.00  0.00    -0.146 NA 
ENDBRANCH   1   2
BRANCH   1  19
HETATM   19  C   UNL     1      -8.181  16.770  65.909  1.00  0.00     0.039 A  
HETATM   20  C   UNL     1      -9.530  17.000  65.701  1.00  0.00     0.172 A  
HETATM   21  C   UNL     1     -10.387  15.958  65.948  1.00  0.00    -0.383 A  
HETATM   22  C   UNL     1      -7.646  15.492  65.917  1.00  0.00     2.505 A  
HETATM   23  C   UNL     1      -9.889  14.664  66.089  1.00  0.00    -0.334 A  
HETATM   24  C   UNL     1      -8.504  14.427  66.090  1.00  0.00     0.792 A  
BRANCH  23  25
HETATM   25  C   UNL     1     -10.789  13.494  66.239  1.00  0.00    -0.289 C  
BRANCH  25  26
HETATM   26  N   UNL     1     -12.204  13.688  65.979  1.00  0.00    -0.434 NA 
HETATM   27  C   UNL     1      -9.230  10.807  62.932  1.00  0.00    -0.323 C  
HETATM   28  H   UNL     1      -9.305  12.888  62.949  1.00  0.00     0.000 HD 
HETATM   29  N   UNL     1      -9.860  12.103  62.610  1.00  0.00     0.343 NA 
HETATM   30  C   UNL     1      -8.737  10.693  64.398  1.00  0.00    -0.137 C  
HETATM   31  C   UNL     1     -11.240  12.150  63.118  1.00  0.00    -0.180 C  
HETATM   32  C   UNL     1     -12.664  13.750  64.565  1.00  0.00    -0.080 C  
HETATM   33  N   UNL     1      -9.481   9.720  65.201  1.00  0.00    -0.261 NA 
HETATM   34  H   UNL     1      -9.252   8.767  64.920  1.00  0.00     0.000 HD 
HETATM   35  C   UNL     1     -11.731  13.581  63.330  1.00  0.00    -0.091 C  
HETATM   36  C   UNL     1      -9.294   9.898  66.650  1.00  0.00    -0.157 C  
HETATM   37  C   UNL     1     -10.670  10.066  67.319  1.00  0.00    -0.309 C  
HETATM   38  C   UNL     1     -10.683  11.078  68.474  1.00  0.00    -0.202 C  
HETATM   39  N   UNL     1     -12.049  11.431  68.890  1.00  0.00    -0.469 NA 
HETATM   40  C   UNL     1     -12.640  12.667  68.321  1.00  0.00     1.086 C  
HETATM   41  H   UNL     1     -12.571  10.849  69.545  1.00  0.00     0.000 HD 
HETATM   42  C   UNL     1     -12.993  12.733  66.793  1.00  0.00     2.214 C  
ENDBRANCH  25  26
ENDBRANCH  23  25
ENDBRANCH   1  19
TORSDOF 4
ENDMDL
MODEL      218
REMARK 921   NORMALIZED FREE ENERGY PREDICTED BY IDOCK:   78.22 KCAL/MOL
REMARK 922        TOTAL FREE ENERGY PREDICTED BY IDOCK:   94.93 KCAL/MOL
REMARK 923 INTER-LIGAND FREE ENERGY PREDICTED BY IDOCK:    3.27 KCAL/MOL
REMARK 924 INTRA-LIGAND FREE ENERGY PREDICTED BY IDOCK:   91.67 KCAL/MOL
REMARK 927      BINDING AFFINITY PREDICTED BY RF-SCORE:    0.00 PKD
ROOT
HETATM    1  C   UNL     1      -8.104  10.717  67.410  1.00  0.00    -0.112 C  
ENDROOT
BRANCH   1   2
HETATM    2  N   UNL     1      -7.705  11.480  68.578  1.00  0.00    -0.128 NA 
HETATM    3  C   UNL     1      -8.564  11.091  69.719  1.00  0.00     0.747 C  
HETATM    4  C   UNL     1      -8.662   9.548  69.984  1.00  0.00    -0.221 C  
HETATM    5  C   UNL     1      -7.580  12.961  68.439  1.00  0.00    -0.133 C  
HETATM    6  C   UNL     1      -7.788  13.760  67.116  1.00  0.00    -0.030 C  
HETATM    7  H   UNL     1     -10.494   8.522  70.618  1.00  0.00     0.000 HD 
HETATM    8  C   UNL     1      -9.238  13.869  66.639  1.00  0.00    -0.236 C  
HETATM    9  N   UNL     1      -9.964   8.857  69.812  1.00  0.00    -0.186 NA 
HETATM   10  C   UNL     1     -10.467   8.669  68.438  1.00  0.00    -0.176 C  
HETATM   11  N   UNL     1      -9.377  13.650  65.190  1.00  0.00    -0.101 NA 
HETATM   12  C   UNL     1     -11.409   9.800  67.996  1.00  0.00     0.101 C  
HETATM   13  H   UNL     1      -8.660  13.015  64.839  1.00  0.00     0.000 HD 
HETATM   14  H   UNL     1     -12.826  11.433  65.793  1.00  0.00     0.000 HD 
HETATM   15  C   UNL     1     -11.687   9.846  66.482  1.00  0.00     2.805 C  
HETATM   16  C   UNL     1     -10.733  13.181  64.839  1.00  0.00    -0.346 C  
HETATM   17  C   UNL     1     -10.933  11.650  65.000  1.00  0.00    -0.273 C  
HETATM   18  N   UNL     1     -11.861  11.251  66.064  1.00  0.00     0.104 NA 
ENDBRANCH   1   2
BRANCH   1  19
HETATM   19  C   UNL     1      -7.366   9.454  67.108  1.00  0.00    -0.087 A  
HETATM   20  C   UNL     1      -6.801   9.248  65.862  1.00  0.00    -0.088 A  
HETATM   21  C   UNL     1      -6.713   7.953  65.422  1.00  0.00    -0.048 A  
HETATM   22  C   UNL     1      -7.428   8.450  68.062  1.00  0.00    -0.097 A  
HETATM   23  C   UNL     1      -6.890   6.899  66.316  1.00  0.00    -0.064 A  
HETATM   24  C   UNL     1      -7.267   7.146  67.646  1.00  0.00    -0.091 A  
BRANCH  23  25
HETATM   25  C   UNL     1      -6.688   5.487  65.907  1.00  0.00    -0.056 C  
BRANCH  25  26
HETATM   26  N   UNL     1      -7.313   4.451  66.710  1.00  0.00    -0.079 NA 
HETATM   27  C   UNL     1      -5.726   8.901  68.736  1.00  0.00    -0.041 C  
HETATM   28  H   UNL     1      -4.508   7.288  68.232  1.00  0.00     0.000 HD 
HETATM   29  N   UNL     1      -5.162   7.556  68.967  1.00  0.00    -0.015 NA 
HETATM   30  C   UNL     1      -6.219   9.137  67.285  1.00  0.00    -0.058 C  
HETATM   31  C   UNL     1      -6.237   6.564  69.130  1.00  0.00    -0.034 C  
HETATM   32  C   UNL     1      -6.856   4.269  68.114  1.00  0.00    -0.048 C  
HETATM   33  N   UNL     1      -7.671   9.291  67.170  1.00  0.00    -0.095 NA 
HETATM   34  H   UNL     1      -7.972  10.189  67.549  1.00  0.00     0.000 HD 
HETATM   35  C   UNL     1      -5.771   5.146  68.805  1.00  0.00    -0.016 C  
HETATM   36  C   UNL     1      -8.166   9.111  65.796  1.00  0.00    -0.115 C  
HETATM   37  C   UNL     1      -9.244   8.013  65.788  1.00  0.00    -0.068 C  
HETATM   38  C   UNL     1      -9.208   7.112  64.545  1.00  0.00     1.505 C  
HETATM   39  N   UNL     1     -10.041   5.910  64.705  1.00  0.00     1.307 NA 
HETATM   40  C   UNL     1      -9.369   4.663  65.145  1.00  0.00    -0.150 C  
HETATM   41  H   UNL     1     -11.044   5.932  64.520  1.00  0.00     0.000 HD 
HETATM   42  C   UNL     1      -8.787   4.561  66.600  1.00  0.00    -0.112 C  
ENDBRANCH  25  26
ENDBRANCH  23  25
ENDBRANCH   1  19
TORSDOF 4
ENDMDL
MODEL      219
REMARK 921   NORMALIZED FREE ENERGY PREDICTED BY IDOCK:   81.19 KCAL/MOL
REMARK 922        TOTAL FREE ENERGY PREDICTED BY IDOCK:   98.59 KCAL/MOL
REMARK 923 INTER-LIGAND FREE ENERGY PREDICTED BY IDOCK:   53.98 KCAL/MOL
REMARK 924 INTRA-LIGAND FREE ENERGY PREDICTED BY IDOCK:   44.61 KCAL/MOL
REMARK 927      BINDING AFFINITY PREDICTED BY RF-SCORE:    0.00 PKD
ROOT
HETATM    1  C   UNL     1     -10.020   9.593  70.175  1.00  0.00    -0.261 C  
ENDROOT
BRANCH   1   2
HETATM    2  N   UNL     1     -10.342  11.006  70.230  1.00  0.00     0.615 NA 
HETATM    3  C   UNL     1     -10.537  11.397  71.644  1.00  0.00     6.483 C  
HETATM    4  C   UNL     1      -9.378  10.982  72.616  1.00  0.00    15.638 C  
HETATM    5  C   UNL     1     -11.432  11.512  69.345  1.00  0.00    -0.309 C  
HETATM    6  C   UNL     1     -12.224  10.652  68.312  1.00  0.00     0.763 C  
HETATM    7  H   UNL     1      -9.686  10.285  74.672  1.00  0.00     0.000 HD 
HETATM    8  C   UNL     1     -13.218   9.657  68.917  1.00  0.00     5.387 C  
HETATM    9  N   UNL     1      -9.643   9.997  73.694  1.00  0.00     7.949 NA 
HETATM   10  C   UNL     1      -9.844   8.589  73.305  1.00  0.00     0.403 C  
HETATM   11  N   UNL     1     -13.171   8.339  68.264  1.00  0.00    10.576 NA 
HETATM   12  C   UNL     1     -11.326   8.238  73.102  1.00  0.00     0.267 C  
HETATM   13  H   UNL     1     -12.238   8.134  67.904  1.00  0.00     0.000 HD 
HETATM   14  H   UNL     1     -13.544   6.440  71.928  1.00  0.00     0.000 HD 
HETATM   15  C   UNL     1     -11.575   6.905  72.371  1.00  0.00    -0.239 C  
HETATM   16  C   UNL     1     -13.649   7.270  69.163  1.00  0.00     8.865 C  
HETATM   17  C   UNL     1     -12.566   6.729  70.134  1.00  0.00     0.646 C  
HETATM   18  N   UNL     1     -12.797   7.023  71.552  1.00  0.00    -0.385 NA 
ENDBRANCH   1   2
BRANCH   1  19
HETATM   19  C   UNL     1      -9.367   9.066  68.939  1.00  0.00    -0.143 A  
HETATM   20  C   UNL     1      -9.778   7.868  68.380  1.00  0.00    -0.170 A  
HETATM   21  C   UNL     1      -8.835   7.137  67.706  1.00  0.00    -0.124 A  
HETATM   22  C   UNL     1      -8.239   9.736  68.494  1.00  0.00    -0.106 A  
HETATM   23  C   UNL     1      -7.626   7.726  67.341  1.00  0.00    -0.105 A  
HETATM   24  C   UNL     1      -7.315   9.033  67.751  1.00  0.00    -0.084 A  
BRANCH  23  25
HETATM   25  C   UNL     1      -6.628   7.008  66.510  1.00  0.00    -0.052 C  
BRANCH  25  26
HETATM   26  N   UNL     1      -6.112   7.683  65.332  1.00  0.00    -0.038 NA 
HETATM   27  C   UNL     1      -8.854   3.345  65.023  1.00  0.00    -0.122 C  
HETATM   28  H   UNL     1      -6.844   3.482  65.553  1.00  0.00     0.000 HD 
HETATM   29  N   UNL     1      -7.422   3.528  64.714  1.00  0.00    -0.071 NA 
HETATM   30  C   UNL     1      -9.352   4.191  66.224  1.00  0.00    -0.168 C  
HETATM   31  C   UNL     1      -7.207   4.780  63.970  1.00  0.00    -0.050 C  
HETATM   32  C   UNL     1      -5.680   6.856  64.174  1.00  0.00    -0.032 C  
HETATM   33  N   UNL     1     -10.301   5.244  65.855  1.00  0.00    -0.444 NA 
HETATM   34  H   UNL     1     -11.205   4.845  65.602  1.00  0.00     0.000 HD 
HETATM   35  C   UNL     1      -5.779   5.303  64.117  1.00  0.00    -0.017 C  
HETATM   36  C   UNL     1     -10.455   6.275  66.893  1.00  0.00    -0.272 C  
HETATM   37  C   UNL     1     -10.158   7.656  66.281  1.00  0.00     0.050 C  
HETATM   38  C   UNL     1      -9.415   8.610  67.227  1.00  0.00    -0.156 C  
HETATM   39  N   UNL     1      -8.890   9.792  66.525  1.00  0.00    -0.137 NA 
HETATM   40  C   UNL     1      -7.475   9.756  66.085  1.00  0.00    -0.101 C  
HETATM   41  H   UNL     1      -9.478  10.607  66.348  1.00  0.00     0.000 HD 
HETATM   42  C   UNL     1      -7.037   8.774  64.941  1.00  0.00    -0.077 C  
ENDBRANCH  25  26
ENDBRANCH  23  25
ENDBRANCH   1  19
TORSDOF 4
ENDMDL
MODEL      220
REMARK 921   NORMALIZED FREE ENERGY PREDICTED BY IDOCK:   94.00 KCAL/MOL
REMARK 922        TOTAL FREE ENERGY PREDICTED BY IDOCK:  114.39 KCAL/MOL
REMARK 923 INTER-LIGAND FREE ENERGY PREDICTED BY IDOCK:   20.28 KCAL/MOL
REMARK 924 INTRA-LIGAND FREE ENERGY PREDICTED BY IDOCK:   94.12 KCAL/MOL
REMARK 927      BINDING AFFINITY PREDICTED BY RF-SCORE:    0.00 PKD
ROOT
HETATM    1  C   UNL     1      -8.921  12.363  66.160  1.00  0.00     0.037 C  
ENDROOT
BRANCH   1   2
HETATM    2  N   UNL     1      -8.317  12.877  64.946  1.00  0.00     3.168 NA 
HETATM    3  C   UNL     1      -9.353  12.957  63.893  1.00  0.00     1.520 C  
HETATM    4  C   UNL     1     -10.666  13.711  64.305  1.00  0.00    -0.262 C  
HETATM    5  C   UNL     1      -7.061  12.232  64.460  1.00  0.00     6.083 C  
HETATM    6  C   UNL     1      -6.304  11.079  65.187  1.00  0.00     0.352 C  
HETATM    7  H   UNL     1     -12.680  13.105  63.683  1.00  0.00     0.000 HD 
HETATM    8  C   UNL     1      -6.991   9.711  65.134  1.00  0.00    -0.106 C  
HETATM    9  N   UNL     1     -11.947  12.964  64.379  1.00  0.00    -0.371 NA 
HETATM   10  C   UNL     1     -12.125  12.012  65.491  1.00  0.00     0.010 C  
HETATM   11  N   UNL     1      -6.961   9.011  66.428  1.00  0.00    -0.079 NA 
HETATM   12  C   UNL     1     -11.718  10.579  65.111  1.00  0.00     2.313 C  
HETATM   13  H   UNL     1      -6.961   9.669  67.208  1.00  0.00     0.000 HD 
HETATM   14  H   UNL     1     -10.860   7.717  65.885  1.00  0.00     0.000 HD 
HETATM   15  C   UNL     1     -11.553   9.622  66.307  1.00  0.00     2.980 C  
HETATM   16  C   UNL     1      -8.066   8.038  66.543  1.00  0.00    -0.103 C  
HETATM   17  C   UNL     1      -9.409   8.659  67.010  1.00  0.00    -0.159 C  
HETATM   18  N   UNL     1     -10.481   8.655  66.008  1.00  0.00     0.457 NA 
ENDBRANCH   1   2
BRANCH   1  19
HETATM   19  C   UNL     1      -8.040  12.135  67.345  1.00  0.00    -0.171 A  
HETATM   20  C   UNL     1      -7.078  11.140  67.327  1.00  0.00    -0.109 A  
HETATM   21  C   UNL     1      -6.759  10.557  68.526  1.00  0.00    -0.056 A  
HETATM   22  C   UNL     1      -8.347  12.839  68.498  1.00  0.00    -0.054 A  
HETATM   23  C   UNL     1      -7.152  11.159  69.720  1.00  0.00    -0.008 A  
HETATM   24  C   UNL     1      -7.968  12.303  69.709  1.00  0.00     1.631 A  
BRANCH  23  25
HETATM   25  C   UNL     1      -6.728  10.626  71.038  1.00  0.00     0.860 C  
BRANCH  25  26
HETATM   26  N   UNL     1      -6.118   9.309  71.074  1.00  0.00    -0.062 NA 
HETATM   27  C   UNL     1     -11.174  10.003  71.693  1.00  0.00     0.258 C  
HETATM   28  H   UNL     1      -9.712  10.337  73.138  1.00  0.00     0.000 HD 
HETATM   29  N   UNL     1     -10.198   9.552  72.705  1.00  0.00     1.656 NA 
HETATM   30  C   UNL     1     -10.619  11.068  70.712  1.00  0.00     1.667 C  
HETATM   31  C   UNL     1      -9.257   8.581  72.122  1.00  0.00    -0.266 C  
HETATM   32  C   UNL     1      -6.692   8.286  71.989  1.00  0.00    -0.079 C  
HETATM   33  N   UNL     1     -10.486  10.595  69.333  1.00  0.00    -0.244 NA 
HETATM   34  H   UNL     1     -11.402  10.490  68.896  1.00  0.00     0.000 HD 
HETATM   35  C   UNL     1      -7.940   8.517  72.892  1.00  0.00    -0.079 C  
HETATM   36  C   UNL     1      -9.607  11.440  68.511  1.00  0.00    -0.189 C  
HETATM   37  C   UNL     1      -8.492  10.569  67.905  1.00  0.00    -0.119 C  
HETATM   38  C   UNL     1      -7.125  11.265  67.832  1.00  0.00    -0.078 C  
HETATM   39  N   UNL     1      -6.036  10.324  67.531  1.00  0.00    -0.052 NA 
HETATM   40  C   UNL     1      -5.261   9.785  68.675  1.00  0.00    -0.036 C  
HETATM   41  H   UNL     1      -5.821  10.051  66.572  1.00  0.00     0.000 HD 
HETATM   42  C   UNL     1      -5.946   8.804  69.691  1.00  0.00    -0.032 C  
ENDBRANCH  25  26
ENDBRANCH  23  25
ENDBRANCH   1  19
TORSDOF 4
ENDMDL
MODEL      221
REMARK 921   NORMALIZED FREE ENERGY PREDICTED BY IDOCK:   95.42 KCAL/MOL
REMARK 922        TOTAL FREE ENERGY PREDICTED BY IDOCK:  116.15 KCAL/MOL
REMARK 923 INTER-LIGAND FREE ENERGY PREDICTED BY IDOCK:   21.35 KCAL/MOL
REMARK 924 INTRA-LIGAND FREE ENERGY PREDICTED BY IDOCK:   94.80 KCAL/MOL
REMARK 927      BINDING AFFINITY PREDICTED BY RF-SCORE:    0.00 PKD
ROOT
HETATM    1  C   UNL     1      -7.155  18.063  66.283  1.00  0.00    -0.272 C  
ENDROOT
BRANCH   1   2
HETATM    2  N   UNL     1      -8.124  19.142  66.291  1.00  0.00    -0.300 NA 
HETATM    3  C   UNL     1      -8.129  19.770  67.631  1.00  0.00    -0.296 C  
HETATM    4  C   UNL     1      -6.719  20.193  68.174  1.00  0.00    -0.294 C  
HETATM    5  C   UNL     1      -9.501  18.851  65.795  1.00  0.00     0.328 C  
HETATM    6  C   UNL     1      -9.976  17.486  65.208  1.00  0.00     0.760 C  
HETATM    7  H   UNL     1      -6.104  20.014  70.271  1.00  0.00     0.000 HD 
HETATM    8  C   UNL     1     -10.138  16.357  66.229  1.00  0.00    -0.331 C  
HETATM    9  N   UNL     1      -6.167  19.524  69.379  1.00  0.00    -0.287 NA 
HETATM   10  C   UNL     1      -5.715  18.126  69.242  1.00  0.00    -0.220 C  
HETATM   11  N   UNL     1      -9.594  15.076  65.750  1.00  0.00    -0.419 NA 
HETATM   12  C   UNL     1      -6.809  17.113  69.613  1.00  0.00     0.027 C  
HETATM   13  H   UNL     1      -8.811  15.219  65.112  1.00  0.00     0.000 HD 
HETATM   14  H   UNL     1      -8.018  14.275  69.498  1.00  0.00     0.000 HD 
HETATM   15  C   UNL     1      -6.521  15.667  69.168  1.00  0.00    -0.131 C  
HETATM   16  C   UNL     1      -9.219  14.192  66.872  1.00  0.00    -0.257 C  
HETATM   17  C   UNL     1      -7.809  14.474  67.455  1.00  0.00    -0.199 C  
HETATM   18  N   UNL     1      -7.792  15.004  68.822  1.00  0.00    -0.141 NA 
ENDBRANCH   1   2
BRANCH   1  19
HETATM   19  C   UNL     1      -7.662  16.659  66.354  1.00  0.00    -0.328 A  
HETATM   20  C   UNL     1      -7.117  15.671  65.553  1.00  0.00     5.755 A  
HETATM   21  C   UNL     1      -7.944  14.644  65.178  1.00  0.00     7.054 A  
HETATM   22  C   UNL     1      -8.797  16.443  67.118  1.00  0.00    -0.214 A  
HETATM   23  C   UNL     1      -9.160  14.454  65.832  1.00  0.00     0.195 A  
HETATM   24  C   UNL     1      -9.601  15.369  66.801  1.00  0.00    -0.257 A  
BRANCH  23  25
HETATM   25  C   UNL     1     -10.028  13.287  65.538  1.00  0.00    -0.207 C  
BRANCH  25  26
HETATM   26  N   UNL     1      -9.460  12.192  64.772  1.00  0.00     0.062 NA 
HETATM   27  C   UNL     1      -8.429  12.870  69.763  1.00  0.00     2.291 C  
HETATM   28  H   UNL     1      -7.591  13.945  68.188  1.00  0.00     0.000 HD 
HETATM   29  N   UNL     1      -7.503  13.028  68.624  1.00  0.00    -0.113 NA 
HETATM   30  C   UNL     1      -9.880  13.331  69.465  1.00  0.00     1.063 C  
HETATM   31  C   UNL     1      -7.689  11.940  67.650  1.00  0.00    -0.141 C  
HETATM   32  C   UNL     1      -8.083  11.735  65.103  1.00  0.00     1.254 C  
HETATM   33  N   UNL     1     -10.856  12.240  69.443  1.00  0.00    -0.457 NA 
HETATM   34  H   UNL     1     -11.030  11.890  70.385  1.00  0.00     0.000 HD 
HETATM   35  C   UNL     1      -7.213  12.328  66.251  1.00  0.00     0.970 C  
HETATM   36  C   UNL     1     -12.118  12.604  68.778  1.00  0.00    -0.114 C  
HETATM   37  C   UNL     1     -12.400  11.598  67.647  1.00  0.00     0.891 C  
HETATM   38  C   UNL     1     -13.026  12.227  66.395  1.00  0.00     2.862 C  
HETATM   39  N   UNL     1     -13.008  11.311  65.244  1.00  0.00     2.978 NA 
HETATM   40  C   UNL     1     -11.893  11.449  64.276  1.00  0.00     0.156 C  
HETATM   41  H   UNL     1     -13.736  10.608  65.115  1.00  0.00     0.000 HD 
HETATM   42  C   UNL     1     -10.431  11.074  64.709  1.00  0.00    -0.316 C  
ENDBRANCH  25  26
ENDBRANCH  23  25
ENDBRANCH   1  19
TORSDOF 4
ENDMDL
MODEL      222
REMARK 921   NORMALIZED FREE ENERGY PREDICTED BY IDOCK:  115.39 KCAL/MOL
REMARK 922        TOTAL FREE ENERGY PREDICTED BY IDOCK:  140.80 KCAL/MOL
REMARK 923 INTER-LIGAND FREE ENERGY PREDICTED BY IDOCK:   44.88 KCAL/MOL
REMARK 924 INTRA-LIGAND FREE ENERGY PREDICTED BY IDOCK:   95.92 KCAL/MOL
REMARK 927      BINDING AFFINITY PREDICTED BY RF-SCORE:    0.00 PKD
ROOT
HETATM    1  C   UNL     1      -9.655  14.068  67.365  1.00  0.00    -0.227 C  
ENDROOT
BRANCH   1   2
HETATM    2  N   UNL     1     -10.300  15.136  66.626  1.00  0.00    -0.268 NA 
HETATM    3  C   UNL     1      -9.411  15.554  65.518  1.00  0.00    -0.027 C  
HETATM    4  C   UNL     1      -8.888  14.390  64.607  1.00  0.00     4.584 C  
HETATM    5  C   UNL     1     -10.835  16.298  67.394  1.00  0.00    -0.242 C  
HETATM    6  C   UNL     1     -10.812  16.436  68.948  1.00  0.00    -0.334 C  
HETATM    7  H   UNL     1      -6.866  14.300  63.762  1.00  0.00     0.000 HD 
HETATM    8  C   UNL     1      -9.435  16.705  69.559  1.00  0.00     0.102 C  
HETATM    9  N   UNL     1      -7.438  14.077  64.577  1.00  0.00    12.981 NA 
HETATM   10  C   UNL     1      -6.849  13.432  65.767  1.00  0.00     6.386 C  
HETATM   11  N   UNL     1      -9.183  15.901  70.767  1.00  0.00     1.633 NA 
HETATM   12  C   UNL     1      -6.251  14.448  66.753  1.00  0.00     2.048 C  
HETATM   13  H   UNL     1      -9.676  15.008  70.729  1.00  0.00     0.000 HD 
HETATM   14  H   UNL     1      -5.273  15.223  69.576  1.00  0.00     0.000 HD 
HETATM   15  C   UNL     1      -5.939  13.878  68.149  1.00  0.00    -0.125 C  
HETATM   16  C   UNL     1      -7.738  15.710  71.001  1.00  0.00     2.852 C  
HETATM   17  C   UNL     1      -7.117  14.537  70.197  1.00  0.00     0.132 C  
HETATM   18  N   UNL     1      -6.156  14.929  69.161  1.00  0.00    -0.100 NA 
ENDBRANCH   1   2
BRANCH   1  19
HETATM   19  C   UNL     1      -9.697  12.689  66.792  1.00  0.00    -0.240 A  
HETATM   20  C   UNL     1     -10.449  11.697  67.396  1.00  0.00    -0.239 A  
HETATM   21  C   UNL     1     -10.002  10.407  67.265  1.00  0.00    -0.229 A  
HETATM   22  C   UNL     1      -8.824  12.419  65.750  1.00  0.00     0.399 A  
HETATM   23  C   UNL     1      -9.031  10.099  66.314  1.00  0.00    -0.168 A  
HETATM   24  C   UNL     1      -8.423  11.114  65.559  1.00  0.00    -0.003 A  
BRANCH  23  25
HETATM   25  C   UNL     1      -8.606   8.700  66.060  1.00  0.00    -0.155 C  
BRANCH  25  26
HETATM   26  N   UNL     1      -9.274   7.969  64.997  1.00  0.00     0.460 NA 
HETATM   27  C   UNL     1      -9.222  13.107  65.175  1.00  0.00     0.832 C  
HETATM   28  H   UNL     1     -10.435  11.860  66.320  1.00  0.00     0.000 HD 
HETATM   29  N   UNL     1     -10.381  12.213  65.365  1.00  0.00    -0.261 NA 
HETATM   30  C   UNL     1      -7.896  12.553  65.758  1.00  0.00     2.004 C  
HETATM   31  C   UNL     1     -10.360  11.119  64.380  1.00  0.00    -0.344 C  
HETATM   32  C   UNL     1     -10.522   8.540  64.421  1.00  0.00     6.192 C  
HETATM   33  N   UNL     1      -6.895  12.217  64.743  1.00  0.00     4.056 NA 
HETATM   34  H   UNL     1      -6.503  13.062  64.327  1.00  0.00     0.000 HD 
HETATM   35  C   UNL     1     -11.147   9.899  64.852  1.00  0.00     2.674 C  
HETATM   36  C   UNL     1      -5.829  11.338  65.248  1.00  0.00     0.602 C  
HETATM   37  C   UNL     1      -5.751  10.080  64.364  1.00  0.00    -0.113 C  
HETATM   38  C   UNL     1      -5.445   8.791  65.139  1.00  0.00    -0.039 C  
HETATM   39  N   UNL     1      -5.670   7.586  64.326  1.00  0.00    -0.037 NA 
HETATM   40  C   UNL     1      -6.975   6.896  64.468  1.00  0.00    -0.055 C  
HETATM   41  H   UNL     1      -4.955   7.237  63.687  1.00  0.00     0.000 HD 
HETATM   42  C   UNL     1      -8.287   7.591  63.959  1.00  0.00     0.146 C  
ENDBRANCH  25  26
ENDBRANCH  23  25
ENDBRANCH   1  19
TORSDOF 4
ENDMDL
