MODEL        1
REMARK 921   NORMALIZED FREE ENERGY PREDICTED BY IDOCK:   -7.57 KCAL/MOL
REMARK 922        TOTAL FREE ENERGY PREDICTED BY IDOCK:  -10.10 KCAL/MOL
REMARK 923 INTER-LIGAND FREE ENERGY PREDICTED BY IDOCK:   -9.34 KCAL/MOL
REMARK 924 INTRA-LIGAND FREE ENERGY PREDICTED BY IDOCK:   -0.75 KCAL/MOL
REMARK 927      BINDING AFFINITY PREDICTED BY RF-SCORE:    0.00 PKD
ROOT
HETATM    1  C   UNL     1     -10.645  13.503  66.921  1.00  0.00    -0.270 C  
HETATM    2  C   UNL     1     -10.358  12.854  65.594  1.00  0.00    -0.282 C  
HETATM    3  O   UNL     1     -10.238  13.966  64.686  1.00  0.00    -0.417 OA 
HETATM    4  C   UNL     1     -10.877  15.065  65.205  1.00  0.00    -0.407 C  
HETATM    5  C   UNL     1     -11.483  14.693  66.524  1.00  0.00    -0.354 C  
HETATM    6  O   UNL     1     -11.013  16.127  64.618  1.00  0.00    -0.642 OA 
HETATM    7  C   UNL     1     -11.510  15.716  67.660  1.00  0.00    -0.167 C  
HETATM    8  C   UNL     1     -13.138  14.786  73.260  1.00  0.00    -0.436 C  
HETATM    9  C   UNL     1     -12.010  15.018  68.933  1.00  0.00    -0.287 A  
HETATM   10  O   UNL     1     -13.146  15.880  72.320  1.00  0.00    -0.449 OA 
HETATM   11  C   UNL     1     -12.471  15.828  69.985  1.00  0.00    -0.178 A  
HETATM   12  C   UNL     1     -12.770  15.233  71.186  1.00  0.00    -0.410 A  
HETATM   13  C   UNL     1     -11.889  13.594  69.108  1.00  0.00    -0.394 A  
HETATM   14  C   UNL     1     -12.671  13.876  71.357  1.00  0.00    -0.365 A  
HETATM   15  C   UNL     1     -11.367  12.691  67.984  1.00  0.00    -0.290 C  
HETATM   16  H   UNL     1     -10.881  11.233  69.140  1.00  0.00     0.000 HD 
HETATM   17  O   UNL     1     -12.978  13.496  72.628  1.00  0.00    -0.349 OA 
HETATM   18  C   UNL     1     -12.269  13.031  70.341  1.00  0.00    -0.386 A  
HETATM   19  O   UNL     1     -10.430  11.740  68.475  1.00  0.00    -0.203 OA 
ENDROOT
BRANCH   7  20
HETATM   20  C   UNL     1     -10.170  16.416  67.887  1.00  0.00    -0.268 A  
HETATM   21  C   UNL     1      -8.758  18.424  67.824  1.00  0.00    -0.267 A  
HETATM   22  C   UNL     1      -9.937  17.744  67.496  1.00  0.00    -0.324 A  
HETATM   23  C   UNL     1      -7.962  16.388  68.902  1.00  0.00    -0.236 A  
HETATM   24  C   UNL     1      -9.155  15.741  68.564  1.00  0.00    -0.194 A  
HETATM   25  C   UNL     1      -7.751  17.736  68.527  1.00  0.00    -0.289 A  
BRANCH  23  26
HETATM   26  O   UNL     1      -6.942  15.749  69.572  1.00  0.00    -0.187 OA 
HETATM   27  C   UNL     1      -6.793  14.356  69.308  1.00  0.00    -0.129 C  
ENDBRANCH  23  26
BRANCH  25  28
HETATM   28  O   UNL     1      -6.571  18.280  68.982  1.00  0.00    -0.241 OA 
HETATM   29  C   UNL     1      -5.525  18.483  68.044  1.00  0.00    -0.169 C  
ENDBRANCH  25  28
BRANCH  21  30
HETATM   30  O   UNL     1      -8.578  19.750  67.522  1.00  0.00    -0.307 OA 
HETATM   31  C   UNL     1      -9.729  20.580  67.392  1.00  0.00    -0.446 C  
ENDBRANCH  21  30
ENDBRANCH   7  20
TORSDOF 4
ENDMDL
MODEL        2
REMARK 921   NORMALIZED FREE ENERGY PREDICTED BY IDOCK:   -7.53 KCAL/MOL
REMARK 922        TOTAL FREE ENERGY PREDICTED BY IDOCK:  -10.04 KCAL/MOL
REMARK 923 INTER-LIGAND FREE ENERGY PREDICTED BY IDOCK:   -9.27 KCAL/MOL
REMARK 924 INTRA-LIGAND FREE ENERGY PREDICTED BY IDOCK:   -0.77 KCAL/MOL
REMARK 927      BINDING AFFINITY PREDICTED BY RF-SCORE:    0.00 PKD
ROOT
HETATM    1  C   UNL     1     -10.569  13.605  66.986  1.00  0.00    -0.274 C  
HETATM    2  C   UNL     1     -10.285  12.954  65.660  1.00  0.00    -0.285 C  
HETATM    3  O   UNL     1     -10.148  14.065  64.754  1.00  0.00    -0.375 OA 
HETATM    4  C   UNL     1     -10.775  15.172  65.272  1.00  0.00    -0.404 C  
HETATM    5  C   UNL     1     -11.390  14.806  66.588  1.00  0.00    -0.347 C  
HETATM    6  O   UNL     1     -10.895  16.236  64.686  1.00  0.00    -0.687 OA 
HETATM    7  C   UNL     1     -11.409  15.828  67.725  1.00  0.00    -0.240 C  
HETATM    8  C   UNL     1     -13.068  14.912  73.318  1.00  0.00    -0.469 C  
HETATM    9  C   UNL     1     -11.921  15.134  68.996  1.00  0.00    -0.295 A  
HETATM   10  O   UNL     1     -13.059  16.006  72.379  1.00  0.00    -0.448 OA 
HETATM   11  C   UNL     1     -12.376  15.949  70.047  1.00  0.00    -0.148 A  
HETATM   12  C   UNL     1     -12.687  15.356  71.246  1.00  0.00    -0.436 A  
HETATM   13  C   UNL     1     -11.819  13.709  69.169  1.00  0.00    -0.394 A  
HETATM   14  C   UNL     1     -12.606  13.998  71.416  1.00  0.00    -0.372 A  
HETATM   15  C   UNL     1     -11.305  12.801  68.046  1.00  0.00    -0.292 C  
HETATM   16  H   UNL     1     -10.841  11.335  69.202  1.00  0.00     0.000 HD 
HETATM   17  O   UNL     1     -12.922  13.621  72.686  1.00  0.00    -0.378 OA 
HETATM   18  C   UNL     1     -12.210  13.149  70.400  1.00  0.00    -0.389 A  
HETATM   19  O   UNL     1     -10.381  11.837  68.539  1.00  0.00    -0.207 OA 
ENDROOT
BRANCH   7  20
HETATM   20  C   UNL     1     -10.060  16.510  67.958  1.00  0.00    -0.255 A  
HETATM   21  C   UNL     1      -7.647  16.402  68.401  1.00  0.00    -0.178 A  
HETATM   22  C   UNL     1      -8.907  15.796  68.320  1.00  0.00    -0.180 A  
HETATM   23  C   UNL     1      -8.702  18.521  67.821  1.00  0.00    -0.275 A  
HETATM   24  C   UNL     1      -9.944  17.882  67.741  1.00  0.00    -0.331 A  
HETATM   25  C   UNL     1      -7.542  17.785  68.159  1.00  0.00    -0.250 A  
BRANCH  23  26
HETATM   26  O   UNL     1      -8.556  19.874  67.611  1.00  0.00    -0.316 OA 
HETATM   27  C   UNL     1      -9.630  20.525  66.936  1.00  0.00    -0.356 C  
ENDBRANCH  23  26
BRANCH  25  28
HETATM   28  O   UNL     1      -6.373  18.511  68.131  1.00  0.00    -0.198 OA 
HETATM   29  C   UNL     1      -5.888  19.041  69.356  1.00  0.00    -0.240 C  
ENDBRANCH  25  28
BRANCH  21  30
HETATM   30  O   UNL     1      -6.511  15.680  68.662  1.00  0.00    -0.103 OA 
HETATM   31  C   UNL     1      -6.312  15.179  69.981  1.00  0.00    -0.153 C  
ENDBRANCH  21  30
ENDBRANCH   7  20
TORSDOF 4
ENDMDL
MODEL        3
REMARK 921   NORMALIZED FREE ENERGY PREDICTED BY IDOCK:   -7.23 KCAL/MOL
REMARK 922        TOTAL FREE ENERGY PREDICTED BY IDOCK:   -9.68 KCAL/MOL
REMARK 923 INTER-LIGAND FREE ENERGY PREDICTED BY IDOCK:   -9.22 KCAL/MOL
REMARK 924 INTRA-LIGAND FREE ENERGY PREDICTED BY IDOCK:   -0.46 KCAL/MOL
REMARK 927      BINDING AFFINITY PREDICTED BY RF-SCORE:    0.00 PKD
ROOT
HETATM    1  C   UNL     1     -10.540  11.861  65.371  1.00  0.00    -0.315 C  
HETATM    2  C   UNL     1     -10.627  12.109  63.890  1.00  0.00    -0.415 C  
HETATM    3  O   UNL     1     -11.446  13.290  63.787  1.00  0.00    -0.390 OA 
HETATM    4  C   UNL     1     -12.198  13.440  64.926  1.00  0.00    -0.408 C  
HETATM    5  C   UNL     1     -11.900  12.301  65.853  1.00  0.00    -0.420 C  
HETATM    6  O   UNL     1     -13.045  14.304  65.087  1.00  0.00    -0.704 OA 
HETATM    7  C   UNL     1     -11.868  12.543  67.363  1.00  0.00    -0.381 C  
HETATM    8  C   UNL     1     -10.170   8.740  71.549  1.00  0.00    -0.300 C  
HETATM    9  C   UNL     1     -11.362  11.266  68.050  1.00  0.00    -0.372 A  
HETATM   10  O   UNL     1     -11.093   9.841  71.426  1.00  0.00    -0.359 OA 
HETATM   11  C   UNL     1     -11.606  11.125  69.428  1.00  0.00    -0.388 A  
HETATM   12  C   UNL     1     -11.025  10.071  70.090  1.00  0.00    -0.310 A  
HETATM   13  C   UNL     1     -10.550  10.305  67.351  1.00  0.00    -0.324 A  
HETATM   14  C   UNL     1     -10.262   9.144  69.429  1.00  0.00    -0.210 A  
HETATM   15  C   UNL     1     -10.251  10.449  65.855  1.00  0.00    -0.234 C  
HETATM   16  H   UNL     1      -8.697   9.314  65.875  1.00  0.00     0.000 HD 
HETATM   17  O   UNL     1      -9.752   8.204  70.273  1.00  0.00    -0.174 OA 
HETATM   18  C   UNL     1     -10.031   9.210  68.068  1.00  0.00    -0.213 A  
HETATM   19  O   UNL     1      -8.878  10.197  65.573  1.00  0.00    -0.154 OA 
ENDROOT
BRANCH   7  20
HETATM   20  C   UNL     1     -11.047  13.767  67.770  1.00  0.00    -0.288 A  
HETATM   21  C   UNL     1     -10.709  15.757  69.168  1.00  0.00    -0.246 A  
HETATM   22  C   UNL     1     -11.513  14.713  68.697  1.00  0.00    -0.326 A  
HETATM   23  C   UNL     1      -8.932  14.963  67.700  1.00  0.00    -0.180 A  
HETATM   24  C   UNL     1      -9.760  13.926  67.257  1.00  0.00    -0.245 A  
HETATM   25  C   UNL     1      -9.404  15.893  68.656  1.00  0.00    -0.212 A  
BRANCH  23  26
HETATM   26  O   UNL     1      -7.657  15.145  67.214  1.00  0.00    -0.189 OA 
HETATM   27  C   UNL     1      -6.692  14.170  67.602  1.00  0.00    -0.171 C  
ENDBRANCH  23  26
BRANCH  25  28
HETATM   28  O   UNL     1      -8.471  16.818  69.066  1.00  0.00    -0.231 OA 
HETATM   29  C   UNL     1      -8.571  18.139  68.551  1.00  0.00    -0.294 C  
ENDBRANCH  25  28
BRANCH  21  30
HETATM   30  O   UNL     1     -11.138  16.620  70.144  1.00  0.00    -0.310 OA 
HETATM   31  C   UNL     1     -11.558  16.078  71.393  1.00  0.00    -0.455 C  
ENDBRANCH  21  30
ENDBRANCH   7  20
TORSDOF 4
ENDMDL
MODEL        4
REMARK 921   NORMALIZED FREE ENERGY PREDICTED BY IDOCK:   -7.23 KCAL/MOL
REMARK 922        TOTAL FREE ENERGY PREDICTED BY IDOCK:   -9.67 KCAL/MOL
REMARK 923 INTER-LIGAND FREE ENERGY PREDICTED BY IDOCK:   -8.81 KCAL/MOL
REMARK 924 INTRA-LIGAND FREE ENERGY PREDICTED BY IDOCK:   -0.87 KCAL/MOL
REMARK 927      BINDING AFFINITY PREDICTED BY RF-SCORE:    0.00 PKD
ROOT
HETATM    1  C   UNL     1     -10.891  11.948  67.290  1.00  0.00    -0.294 C  
HETATM    2  C   UNL     1     -10.751  10.907  66.214  1.00  0.00    -0.176 C  
HETATM    3  O   UNL     1     -10.533  11.678  65.016  1.00  0.00    -0.261 OA 
HETATM    4  C   UNL     1     -11.001  12.958  65.191  1.00  0.00    -0.289 C  
HETATM    5  C   UNL     1     -11.588  13.073  66.565  1.00  0.00    -0.407 C  
HETATM    6  O   UNL     1     -11.027  13.810  64.318  1.00  0.00    -0.367 OA 
HETATM    7  C   UNL     1     -11.431  14.377  67.348  1.00  0.00    -0.377 C  
HETATM    8  C   UNL     1     -12.901  15.354  72.983  1.00  0.00    -0.463 C  
HETATM    9  C   UNL     1     -11.956  14.155  68.774  1.00  0.00    -0.367 A  
HETATM   10  O   UNL     1     -12.813  16.115  71.762  1.00  0.00    -0.367 OA 
HETATM   11  C   UNL     1     -12.260  15.293  69.542  1.00  0.00    -0.273 A  
HETATM   12  C   UNL     1     -12.576  15.121  70.868  1.00  0.00    -0.379 A  
HETATM   13  C   UNL     1     -12.010  12.842  69.362  1.00  0.00    -0.327 A  
HETATM   14  C   UNL     1     -12.644  13.873  71.432  1.00  0.00    -0.361 A  
HETATM   15  C   UNL     1     -11.661  11.589  68.551  1.00  0.00    -0.313 C  
HETATM   16  H   UNL     1     -11.311  10.480  70.083  1.00  0.00     0.000 HD 
HETATM   17  O   UNL     1     -12.937  13.926  72.761  1.00  0.00    -0.413 OA 
HETATM   18  C   UNL     1     -12.400  12.721  70.709  1.00  0.00    -0.375 A  
HETATM   19  O   UNL     1     -10.830  10.704  69.295  1.00  0.00    -0.208 OA 
ENDROOT
BRANCH   7  20
HETATM   20  C   UNL     1     -10.003  14.923  67.349  1.00  0.00    -0.223 A  
HETATM   21  C   UNL     1      -7.627  14.721  67.935  1.00  0.00    -0.139 A  
HETATM   22  C   UNL     1      -8.957  14.297  68.045  1.00  0.00    -0.183 A  
HETATM   23  C   UNL     1      -8.386  16.503  66.455  1.00  0.00    -0.322 A  
HETATM   24  C   UNL     1      -9.703  16.047  66.580  1.00  0.00    -0.261 A  
HETATM   25  C   UNL     1      -7.336  15.846  67.139  1.00  0.00    -0.223 A  
BRANCH  23  26
HETATM   26  O   UNL     1      -8.058  17.608  65.702  1.00  0.00    -0.518 OA 
HETATM   27  C   UNL     1      -8.497  18.866  66.210  1.00  0.00    -0.256 C  
ENDBRANCH  23  26
BRANCH  25  28
HETATM   28  O   UNL     1      -6.080  16.342  66.874  1.00  0.00    -0.313 OA 
HETATM   29  C   UNL     1      -5.500  17.227  67.822  1.00  0.00    -0.118 C  
ENDBRANCH  25  28
BRANCH  21  30
HETATM   30  O   UNL     1      -6.598  14.046  68.542  1.00  0.00    -0.084 OA 
HETATM   31  C   UNL     1      -6.397  14.231  69.940  1.00  0.00    -0.150 C  
ENDBRANCH  21  30
ENDBRANCH   7  20
TORSDOF 4
ENDMDL
MODEL        5
REMARK 921   NORMALIZED FREE ENERGY PREDICTED BY IDOCK:   -7.21 KCAL/MOL
REMARK 922        TOTAL FREE ENERGY PREDICTED BY IDOCK:   -9.65 KCAL/MOL
REMARK 923 INTER-LIGAND FREE ENERGY PREDICTED BY IDOCK:   -8.97 KCAL/MOL
REMARK 924 INTRA-LIGAND FREE ENERGY PREDICTED BY IDOCK:   -0.69 KCAL/MOL
REMARK 927      BINDING AFFINITY PREDICTED BY RF-SCORE:    0.00 PKD
ROOT
HETATM    1  C   UNL     1     -10.437  11.542  65.017  1.00  0.00    -0.344 C  
HETATM    2  C   UNL     1     -10.417  11.622  63.515  1.00  0.00    -0.443 C  
HETATM    3  O   UNL     1     -11.042  12.888  63.230  1.00  0.00    -0.280 OA 
HETATM    4  C   UNL     1     -11.815  13.279  64.296  1.00  0.00    -0.417 C  
HETATM    5  C   UNL     1     -11.736  12.228  65.360  1.00  0.00    -0.424 C  
HETATM    6  O   UNL     1     -12.529  14.269  64.305  1.00  0.00    -0.657 OA 
HETATM    7  C   UNL     1     -11.737  12.640  66.833  1.00  0.00    -0.453 C  
HETATM    8  C   UNL     1     -10.827   9.157  71.514  1.00  0.00    -0.366 C  
HETATM    9  C   UNL     1     -11.462  11.395  67.688  1.00  0.00    -0.348 A  
HETATM   10  O   UNL     1     -11.567  10.357  71.211  1.00  0.00    -0.311 OA 
HETATM   11  C   UNL     1     -11.788  11.455  69.054  1.00  0.00    -0.415 A  
HETATM   12  C   UNL     1     -11.404  10.415  69.865  1.00  0.00    -0.302 A  
HETATM   13  C   UNL     1     -10.772  10.250  67.153  1.00  0.00    -0.303 A  
HETATM   14  C   UNL     1     -10.759   9.315  69.361  1.00  0.00    -0.208 A  
HETATM   15  C   UNL     1     -10.385  10.170  65.671  1.00  0.00    -0.140 C  
HETATM   16  H   UNL     1      -9.023   8.835  65.916  1.00  0.00     0.000 HD 
HETATM   17  O   UNL     1     -10.436   8.419  70.334  1.00  0.00    -0.205 OA 
HETATM   18  C   UNL     1     -10.458   9.185  68.018  1.00  0.00    -0.276 A  
HETATM   19  O   UNL     1      -9.055   9.692  65.507  1.00  0.00    -0.174 OA 
ENDROOT
BRANCH   7  20
HETATM   20  C   UNL     1     -10.762  13.773  67.153  1.00  0.00    -0.283 A  
HETATM   21  C   UNL     1     -10.307  16.070  67.893  1.00  0.00    -0.269 A  
HETATM   22  C   UNL     1     -11.192  15.071  67.470  1.00  0.00    -0.333 A  
HETATM   23  C   UNL     1      -8.481  14.479  67.609  1.00  0.00    -0.182 A  
HETATM   24  C   UNL     1      -9.395  13.503  67.198  1.00  0.00    -0.240 A  
HETATM   25  C   UNL     1      -8.930  15.776  67.953  1.00  0.00    -0.180 A  
BRANCH  23  26
HETATM   26  O   UNL     1      -7.126  14.242  67.665  1.00  0.00    -0.161 OA 
HETATM   27  C   UNL     1      -6.722  12.879  67.560  1.00  0.00    -0.154 C  
ENDBRANCH  23  26
BRANCH  25  28
HETATM   28  O   UNL     1      -7.946  16.621  68.413  1.00  0.00    -0.187 OA 
HETATM   29  C   UNL     1      -7.363  17.529  67.489  1.00  0.00    -0.177 C  
ENDBRANCH  25  28
BRANCH  21  30
HETATM   30  O   UNL     1     -10.745  17.306  68.292  1.00  0.00    -0.373 OA 
HETATM   31  C   UNL     1     -10.778  18.358  67.331  1.00  0.00    -0.361 C  
ENDBRANCH  21  30
ENDBRANCH   7  20
TORSDOF 4
ENDMDL
MODEL        6
REMARK 921   NORMALIZED FREE ENERGY PREDICTED BY IDOCK:   -7.19 KCAL/MOL
REMARK 922        TOTAL FREE ENERGY PREDICTED BY IDOCK:   -9.63 KCAL/MOL
REMARK 923 INTER-LIGAND FREE ENERGY PREDICTED BY IDOCK:   -9.20 KCAL/MOL
REMARK 924 INTRA-LIGAND FREE ENERGY PREDICTED BY IDOCK:   -0.43 KCAL/MOL
REMARK 927      BINDING AFFINITY PREDICTED BY RF-SCORE:    0.00 PKD
ROOT
HETATM    1  C   UNL     1     -10.497  11.869  65.197  1.00  0.00    -0.330 C  
HETATM    2  C   UNL     1     -10.621  12.207  63.736  1.00  0.00    -0.439 C  
HETATM    3  O   UNL     1     -11.556  13.303  63.715  1.00  0.00    -0.413 OA 
HETATM    4  C   UNL     1     -12.309  13.299  64.863  1.00  0.00    -0.425 C  
HETATM    5  C   UNL     1     -11.890  12.136  65.710  1.00  0.00    -0.342 C  
HETATM    6  O   UNL     1     -13.237  14.060  65.084  1.00  0.00    -0.768 OA 
HETATM    7  C   UNL     1     -11.869  12.277  67.233  1.00  0.00    -0.330 C  
HETATM    8  C   UNL     1      -9.760   8.390  71.146  1.00  0.00    -0.186 C  
HETATM    9  C   UNL     1     -11.231  11.014  67.830  1.00  0.00    -0.375 A  
HETATM   10  O   UNL     1     -10.790   9.398  71.101  1.00  0.00    -0.303 OA 
HETATM   11  C   UNL     1     -11.448  10.756  69.195  1.00  0.00    -0.368 A  
HETATM   12  C   UNL     1     -10.758   9.724  69.783  1.00  0.00    -0.256 A  
HETATM   13  C   UNL     1     -10.332  10.190  67.065  1.00  0.00    -0.303 A  
HETATM   14  C   UNL     1      -9.911   8.925  69.059  1.00  0.00    -0.180 A  
HETATM   15  C   UNL     1     -10.062  10.464  65.582  1.00  0.00    -0.269 C  
HETATM   16  H   UNL     1      -8.402   9.494  65.522  1.00  0.00     0.000 HD 
HETATM   17  O   UNL     1      -9.302   7.987  69.836  1.00  0.00    -0.156 OA 
HETATM   18  C   UNL     1      -9.700   9.107  67.705  1.00  0.00    -0.188 A  
HETATM   19  O   UNL     1      -8.674  10.372  65.281  1.00  0.00    -0.165 OA 
ENDROOT
BRANCH   7  20
HETATM   20  C   UNL     1     -11.172  13.548  67.720  1.00  0.00    -0.308 A  
HETATM   21  C   UNL     1      -9.424  15.258  67.498  1.00  0.00    -0.202 A  
HETATM   22  C   UNL     1      -9.986  14.027  67.142  1.00  0.00    -0.252 A  
HETATM   23  C   UNL     1     -11.223  15.534  69.119  1.00  0.00    -0.299 A  
HETATM   24  C   UNL     1     -11.762  14.303  68.733  1.00  0.00    -0.378 A  
HETATM   25  C   UNL     1     -10.043  16.020  68.509  1.00  0.00    -0.233 A  
BRANCH  23  26
HETATM   26  O   UNL     1     -11.784  16.303  70.115  1.00  0.00    -0.244 OA 
HETATM   27  C   UNL     1     -11.758  15.748  71.428  1.00  0.00    -0.445 C  
ENDBRANCH  23  26
BRANCH  25  28
HETATM   28  O   UNL     1      -9.657  17.275  68.922  1.00  0.00    -0.270 OA 
HETATM   29  C   UNL     1     -10.071  18.389  68.144  1.00  0.00    -0.382 C  
ENDBRANCH  25  28
BRANCH  21  30
HETATM   30  O   UNL     1      -8.319  15.763  66.862  1.00  0.00    -0.202 OA 
HETATM   31  C   UNL     1      -7.032  15.461  67.393  1.00  0.00    -0.189 C  
ENDBRANCH  21  30
ENDBRANCH   7  20
TORSDOF 4
ENDMDL
MODEL        7
REMARK 921   NORMALIZED FREE ENERGY PREDICTED BY IDOCK:   -7.17 KCAL/MOL
REMARK 922        TOTAL FREE ENERGY PREDICTED BY IDOCK:   -9.60 KCAL/MOL
REMARK 923 INTER-LIGAND FREE ENERGY PREDICTED BY IDOCK:   -8.92 KCAL/MOL
REMARK 924 INTRA-LIGAND FREE ENERGY PREDICTED BY IDOCK:   -0.68 KCAL/MOL
REMARK 927      BINDING AFFINITY PREDICTED BY RF-SCORE:    0.00 PKD
ROOT
HETATM    1  C   UNL     1     -10.910  12.322  67.271  1.00  0.00    -0.283 C  
HETATM    2  C   UNL     1     -10.645  11.378  66.131  1.00  0.00    -0.265 C  
HETATM    3  O   UNL     1     -10.663  12.228  64.968  1.00  0.00    -0.279 OA 
HETATM    4  C   UNL     1     -11.358  13.381  65.242  1.00  0.00    -0.296 C  
HETATM    5  C   UNL     1     -11.859  13.318  66.653  1.00  0.00    -0.447 C  
HETATM    6  O   UNL     1     -11.608  14.249  64.421  1.00  0.00    -0.382 OA 
HETATM    7  C   UNL     1     -11.905  14.592  67.497  1.00  0.00    -0.375 C  
HETATM    8  C   UNL     1     -13.144  15.013  73.256  1.00  0.00    -0.490 C  
HETATM    9  C   UNL     1     -12.277  14.210  68.937  1.00  0.00    -0.257 A  
HETATM   10  O   UNL     1     -13.290  15.829  72.076  1.00  0.00    -0.459 OA 
HETATM   11  C   UNL     1     -12.742  15.230  69.785  1.00  0.00    -0.055 A  
HETATM   12  C   UNL     1     -12.927  14.941  71.115  1.00  0.00    -0.367 A  
HETATM   13  C   UNL     1     -12.035  12.887  69.452  1.00  0.00    -0.327 A  
HETATM   14  C   UNL     1     -12.713  13.681  71.611  1.00  0.00    -0.305 A  
HETATM   15  C   UNL     1     -11.506  11.764  68.553  1.00  0.00    -0.296 C  
HETATM   16  H   UNL     1     -10.844  10.679  69.997  1.00  0.00     0.000 HD 
HETATM   17  O   UNL     1     -12.918  13.617  72.955  1.00  0.00    -0.346 OA 
HETATM   18  C   UNL     1     -12.301  12.632  70.811  1.00  0.00    -0.372 A  
HETATM   19  O   UNL     1     -10.471  11.028  69.196  1.00  0.00    -0.217 OA 
ENDROOT
BRANCH   7  20
HETATM   20  C   UNL     1     -10.613  15.409  67.444  1.00  0.00    -0.289 A  
HETATM   21  C   UNL     1      -9.336  17.360  66.674  1.00  0.00    -0.265 A  
HETATM   22  C   UNL     1     -10.468  16.537  66.622  1.00  0.00    -0.266 A  
HETATM   23  C   UNL     1      -8.409  15.864  68.361  1.00  0.00    -0.174 A  
HETATM   24  C   UNL     1      -9.557  15.069  68.288  1.00  0.00    -0.210 A  
HETATM   25  C   UNL     1      -8.286  17.015  67.547  1.00  0.00    -0.180 A  
BRANCH  23  26
HETATM   26  O   UNL     1      -7.350  15.555  69.185  1.00  0.00    -0.147 OA 
HETATM   27  C   UNL     1      -6.627  14.370  68.862  1.00  0.00    -0.094 C  
ENDBRANCH  23  26
BRANCH  25  28
HETATM   28  O   UNL     1      -7.145  17.754  67.765  1.00  0.00    -0.189 OA 
HETATM   29  C   UNL     1      -7.157  18.702  68.823  1.00  0.00    -0.303 C  
ENDBRANCH  25  28
BRANCH  21  30
HETATM   30  O   UNL     1      -9.243  18.513  65.937  1.00  0.00    -0.486 OA 
HETATM   31  C   UNL     1     -10.219  19.531  66.142  1.00  0.00    -0.496 C  
ENDBRANCH  21  30
ENDBRANCH   7  20
TORSDOF 4
ENDMDL
MODEL        8
REMARK 921   NORMALIZED FREE ENERGY PREDICTED BY IDOCK:   -6.99 KCAL/MOL
REMARK 922        TOTAL FREE ENERGY PREDICTED BY IDOCK:   -9.38 KCAL/MOL
REMARK 923 INTER-LIGAND FREE ENERGY PREDICTED BY IDOCK:   -8.88 KCAL/MOL
REMARK 924 INTRA-LIGAND FREE ENERGY PREDICTED BY IDOCK:   -0.50 KCAL/MOL
REMARK 927      BINDING AFFINITY PREDICTED BY RF-SCORE:    0.00 PKD
ROOT
HETATM    1  C   UNL     1     -10.365  11.365  64.982  1.00  0.00    -0.342 C  
HETATM    2  C   UNL     1     -10.340  11.389  63.478  1.00  0.00    -0.423 C  
HETATM    3  O   UNL     1     -10.928  12.661  63.144  1.00  0.00    -0.289 OA 
HETATM    4  C   UNL     1     -11.691  13.114  64.193  1.00  0.00    -0.418 C  
HETATM    5  C   UNL     1     -11.643  12.102  65.296  1.00  0.00    -0.376 C  
HETATM    6  O   UNL     1     -12.375  14.124  64.164  1.00  0.00    -0.628 OA 
HETATM    7  C   UNL     1     -11.634  12.568  66.752  1.00  0.00    -0.446 C  
HETATM    8  C   UNL     1     -10.833   9.237  71.562  1.00  0.00    -0.372 C  
HETATM    9  C   UNL     1     -11.397  11.348  67.653  1.00  0.00    -0.359 A  
HETATM   10  O   UNL     1     -11.537  10.446  71.213  1.00  0.00    -0.311 OA 
HETATM   11  C   UNL     1     -11.723  11.469  69.016  1.00  0.00    -0.400 A  
HETATM   12  C   UNL     1     -11.370  10.449  69.865  1.00  0.00    -0.302 A  
HETATM   13  C   UNL     1     -10.740  10.165  67.163  1.00  0.00    -0.286 A  
HETATM   14  C   UNL     1     -10.758   9.313  69.404  1.00  0.00    -0.208 A  
HETATM   15  C   UNL     1     -10.354  10.018  65.687  1.00  0.00    -0.101 C  
HETATM   16  H   UNL     1      -9.032   8.653  65.984  1.00  0.00     0.000 HD 
HETATM   17  O   UNL     1     -10.462   8.445  70.411  1.00  0.00    -0.205 OA 
HETATM   18  C   UNL     1     -10.459   9.124  68.068  1.00  0.00    -0.276 A  
HETATM   19  O   UNL     1      -9.039   9.495  65.543  1.00  0.00    -0.180 OA 
ENDROOT
BRANCH   7  20
HETATM   20  C   UNL     1     -10.626  13.683  67.032  1.00  0.00    -0.274 A  
HETATM   21  C   UNL     1      -8.315  14.477  67.273  1.00  0.00    -0.212 A  
HETATM   22  C   UNL     1      -9.248  13.441  67.152  1.00  0.00    -0.240 A  
HETATM   23  C   UNL     1     -10.167  16.061  67.235  1.00  0.00    -0.277 A  
HETATM   24  C   UNL     1     -11.072  15.002  67.106  1.00  0.00    -0.332 A  
HETATM   25  C   UNL     1      -8.779  15.806  67.327  1.00  0.00    -0.191 A  
BRANCH  23  26
HETATM   26  O   UNL     1     -10.576  17.374  67.310  1.00  0.00    -0.339 OA 
HETATM   27  C   UNL     1     -10.516  18.121  66.097  1.00  0.00    -0.364 C  
ENDBRANCH  23  26
BRANCH  25  28
HETATM   28  O   UNL     1      -7.989  16.933  67.374  1.00  0.00    -0.164 OA 
HETATM   29  C   UNL     1      -7.525  17.369  68.644  1.00  0.00    -0.263 C  
ENDBRANCH  25  28
BRANCH  21  30
HETATM   30  O   UNL     1      -6.964  14.238  67.294  1.00  0.00    -0.199 OA 
HETATM   31  C   UNL     1      -6.453  13.318  68.255  1.00  0.00    -0.099 C  
ENDBRANCH  21  30
ENDBRANCH   7  20
TORSDOF 4
ENDMDL
MODEL        9
REMARK 921   NORMALIZED FREE ENERGY PREDICTED BY IDOCK:   -6.77 KCAL/MOL
REMARK 922        TOTAL FREE ENERGY PREDICTED BY IDOCK:   -9.10 KCAL/MOL
REMARK 923 INTER-LIGAND FREE ENERGY PREDICTED BY IDOCK:   -8.72 KCAL/MOL
REMARK 924 INTRA-LIGAND FREE ENERGY PREDICTED BY IDOCK:   -0.38 KCAL/MOL
REMARK 927      BINDING AFFINITY PREDICTED BY RF-SCORE:    0.00 PKD
ROOT
HETATM    1  C   UNL     1     -11.203  14.893  65.546  1.00  0.00    -0.348 C  
HETATM    2  C   UNL     1     -12.281  14.778  64.504  1.00  0.00    -0.428 C  
HETATM    3  O   UNL     1     -12.811  13.453  64.702  1.00  0.00    -0.668 OA 
HETATM    4  C   UNL     1     -11.889  12.672  65.354  1.00  0.00    -0.427 C  
HETATM    5  C   UNL     1     -10.657  13.488  65.603  1.00  0.00    -0.284 C  
HETATM    6  O   UNL     1     -12.028  11.482  65.582  1.00  0.00    -0.150 OA 
HETATM    7  C   UNL     1      -9.863  13.287  66.894  1.00  0.00    -0.247 C  
HETATM    8  C   UNL     1      -5.325  16.529  68.835  1.00  0.00    -0.122 C  
HETATM    9  C   UNL     1      -8.774  14.367  66.970  1.00  0.00    -0.244 A  
HETATM   10  O   UNL     1      -5.774  15.163  68.937  1.00  0.00    -0.092 OA 
HETATM   11  C   UNL     1      -7.704  14.155  67.857  1.00  0.00    -0.161 A  
HETATM   12  C   UNL     1      -6.808  15.176  68.058  1.00  0.00    -0.141 A  
HETATM   13  C   UNL     1      -8.901  15.617  66.267  1.00  0.00    -0.364 A  
HETATM   14  C   UNL     1      -6.914  16.364  67.381  1.00  0.00    -0.165 A  
HETATM   15  C   UNL     1     -10.071  15.881  65.312  1.00  0.00    -0.171 C  
HETATM   16  H   UNL     1      -9.912  17.797  65.364  1.00  0.00     0.000 HD 
HETATM   17  O   UNL     1      -5.950  17.252  67.751  1.00  0.00    -0.127 OA 
HETATM   18  C   UNL     1      -7.919  16.606  66.464  1.00  0.00    -0.342 A  
HETATM   19  O   UNL     1     -10.619  17.180  65.509  1.00  0.00    -0.563 OA 
ENDROOT
BRANCH   7  20
HETATM   20  C   UNL     1     -10.733  13.271  68.151  1.00  0.00    -0.264 A  
HETATM   21  C   UNL     1     -12.084  14.430  69.843  1.00  0.00    -0.344 A  
HETATM   22  C   UNL     1     -11.180  14.447  68.775  1.00  0.00    -0.282 A  
HETATM   23  C   UNL     1     -12.057  11.995  69.740  1.00  0.00    -0.248 A  
HETATM   24  C   UNL     1     -11.160  12.048  68.669  1.00  0.00    -0.298 A  
HETATM   25  C   UNL     1     -12.522  13.188  70.342  1.00  0.00    -0.210 A  
BRANCH  23  26
HETATM   26  O   UNL     1     -12.498  10.803  70.272  1.00  0.00    -0.321 OA 
HETATM   27  C   UNL     1     -11.504   9.979  70.877  1.00  0.00    -0.371 C  
ENDBRANCH  23  26
BRANCH  25  28
HETATM   28  O   UNL     1     -13.458  13.004  71.335  1.00  0.00    -0.199 OA 
HETATM   29  C   UNL     1     -13.180  13.541  72.620  1.00  0.00    -0.379 C  
ENDBRANCH  25  28
BRANCH  21  30
HETATM   30  O   UNL     1     -12.589  15.584  70.384  1.00  0.00    -0.419 OA 
HETATM   31  C   UNL     1     -11.795  16.294  71.331  1.00  0.00    -0.339 C  
ENDBRANCH  21  30
ENDBRANCH   7  20
TORSDOF 4
ENDMDL
MODEL       10
REMARK 921   NORMALIZED FREE ENERGY PREDICTED BY IDOCK:   -6.75 KCAL/MOL
REMARK 922        TOTAL FREE ENERGY PREDICTED BY IDOCK:   -9.09 KCAL/MOL
REMARK 923 INTER-LIGAND FREE ENERGY PREDICTED BY IDOCK:   -8.72 KCAL/MOL
REMARK 924 INTRA-LIGAND FREE ENERGY PREDICTED BY IDOCK:   -0.37 KCAL/MOL
REMARK 927      BINDING AFFINITY PREDICTED BY RF-SCORE:    0.00 PKD
ROOT
HETATM    1  C   UNL     1     -11.668  13.664  64.473  1.00  0.00    -0.429 C  
HETATM    2  C   UNL     1     -12.263  12.786  63.407  1.00  0.00    -0.504 C  
HETATM    3  O   UNL     1     -11.701  11.487  63.678  1.00  0.00    -0.376 OA 
HETATM    4  C   UNL     1     -10.548  11.620  64.412  1.00  0.00    -0.323 C  
HETATM    5  C   UNL     1     -10.289  13.077  64.644  1.00  0.00    -0.374 C  
HETATM    6  O   UNL     1      -9.812  10.695  64.717  1.00  0.00    -0.258 OA 
HETATM    7  C   UNL     1      -9.686  13.537  65.972  1.00  0.00    -0.233 C  
HETATM    8  C   UNL     1      -8.976  19.096  67.834  1.00  0.00    -0.303 C  
HETATM    9  C   UNL     1      -9.703  15.072  66.009  1.00  0.00    -0.359 A  
HETATM   10  O   UNL     1      -8.321  17.824  68.014  1.00  0.00    -0.236 OA 
HETATM   11  C   UNL     1      -8.869  15.712  66.944  1.00  0.00    -0.279 A  
HETATM   12  C   UNL     1      -8.988  17.071  67.102  1.00  0.00    -0.222 A  
HETATM   13  C   UNL     1     -10.632  15.835  65.218  1.00  0.00    -0.446 A  
HETATM   14  C   UNL     1      -9.861  17.807  66.343  1.00  0.00    -0.324 A  
HETATM   15  C   UNL     1     -11.568  15.158  64.210  1.00  0.00    -0.184 C  
HETATM   16  H   UNL     1     -12.827  16.610  64.135  1.00  0.00     0.000 HD 
HETATM   17  O   UNL     1      -9.849  19.126  66.682  1.00  0.00    -0.313 OA 
HETATM   18  C   UNL     1     -10.668  17.233  65.379  1.00  0.00    -0.074 A  
HETATM   19  O   UNL     1     -12.890  15.676  64.299  1.00  0.00    -0.304 OA 
ENDROOT
BRANCH   7  20
HETATM   20  C   UNL     1     -10.371  12.933  67.198  1.00  0.00    -0.239 A  
HETATM   21  C   UNL     1     -10.592  11.152  68.875  1.00  0.00    -0.207 A  
HETATM   22  C   UNL     1     -10.064  11.649  67.677  1.00  0.00    -0.204 A  
HETATM   23  C   UNL     1     -11.842  13.232  69.109  1.00  0.00    -0.329 A  
HETATM   24  C   UNL     1     -11.289  13.701  67.913  1.00  0.00    -0.325 A  
HETATM   25  C   UNL     1     -11.502  11.948  69.597  1.00  0.00    -0.266 A  
BRANCH  23  26
HETATM   26  O   UNL     1     -12.749  13.967  69.839  1.00  0.00    -0.241 OA 
HETATM   27  C   UNL     1     -12.329  15.272  70.231  1.00  0.00    -0.366 C  
ENDBRANCH  23  26
BRANCH  25  28
HETATM   28  O   UNL     1     -12.053  11.633  70.819  1.00  0.00    -0.364 OA 
HETATM   29  C   UNL     1     -13.046  10.618  70.861  1.00  0.00    -0.256 C  
ENDBRANCH  25  28
BRANCH  21  30
HETATM   30  O   UNL     1     -10.214   9.936  69.385  1.00  0.00    -0.189 OA 
HETATM   31  C   UNL     1      -8.823   9.648  69.492  1.00  0.00    -0.190 C  
ENDBRANCH  21  30
ENDBRANCH   7  20
TORSDOF 4
ENDMDL
MODEL       11
REMARK 921   NORMALIZED FREE ENERGY PREDICTED BY IDOCK:   -6.75 KCAL/MOL
REMARK 922        TOTAL FREE ENERGY PREDICTED BY IDOCK:   -9.08 KCAL/MOL
REMARK 923 INTER-LIGAND FREE ENERGY PREDICTED BY IDOCK:   -8.79 KCAL/MOL
REMARK 924 INTRA-LIGAND FREE ENERGY PREDICTED BY IDOCK:   -0.29 KCAL/MOL
REMARK 927      BINDING AFFINITY PREDICTED BY RF-SCORE:    0.00 PKD
ROOT
HETATM    1  C   UNL     1     -11.316  14.914  65.614  1.00  0.00    -0.325 C  
HETATM    2  C   UNL     1     -12.358  14.751  64.541  1.00  0.00    -0.366 C  
HETATM    3  O   UNL     1     -12.845  13.409  64.735  1.00  0.00    -0.680 OA 
HETATM    4  C   UNL     1     -11.915  12.668  65.422  1.00  0.00    -0.446 C  
HETATM    5  C   UNL     1     -10.721  13.530  65.700  1.00  0.00    -0.284 C  
HETATM    6  O   UNL     1     -12.019  11.475  65.657  1.00  0.00    -0.150 OA 
HETATM    7  C   UNL     1      -9.961  13.368  67.017  1.00  0.00    -0.246 C  
HETATM    8  C   UNL     1      -5.604  16.788  69.064  1.00  0.00    -0.137 C  
HETATM    9  C   UNL     1      -8.914  14.487  67.116  1.00  0.00    -0.244 A  
HETATM   10  O   UNL     1      -6.005  15.407  69.164  1.00  0.00    -0.102 OA 
HETATM   11  C   UNL     1      -7.865  14.321  68.036  1.00  0.00    -0.143 A  
HETATM   12  C   UNL     1      -7.013  15.376  68.254  1.00  0.00    -0.116 A  
HETATM   13  C   UNL     1      -9.065  15.726  66.397  1.00  0.00    -0.357 A  
HETATM   14  C   UNL     1      -7.140  16.554  67.564  1.00  0.00    -0.143 A  
HETATM   15  C   UNL     1     -10.214  15.940  65.406  1.00  0.00    -0.323 C  
HETATM   16  H   UNL     1     -10.125  17.861  65.445  1.00  0.00     0.000 HD 
HETATM   17  O   UNL     1      -6.221  17.479  67.954  1.00  0.00    -0.153 OA 
HETATM   18  C   UNL     1      -8.126  16.752  66.615  1.00  0.00    -0.300 A  
HETATM   19  O   UNL     1     -10.814  17.220  65.575  1.00  0.00    -0.405 OA 
ENDROOT
BRANCH   7  20
HETATM   20  C   UNL     1     -10.867  13.330  68.247  1.00  0.00    -0.276 A  
HETATM   21  C   UNL     1     -11.923  12.111  70.099  1.00  0.00    -0.314 A  
HETATM   22  C   UNL     1     -11.206  12.132  68.897  1.00  0.00    -0.320 A  
HETATM   23  C   UNL     1     -12.054  14.542  69.987  1.00  0.00    -0.339 A  
HETATM   24  C   UNL     1     -11.328  14.528  68.792  1.00  0.00    -0.298 A  
HETATM   25  C   UNL     1     -12.364  13.331  70.648  1.00  0.00    -0.339 A  
BRANCH  23  26
HETATM   26  O   UNL     1     -12.521  15.709  70.550  1.00  0.00    -0.415 OA 
HETATM   27  C   UNL     1     -11.663  16.334  71.502  1.00  0.00    -0.403 C  
ENDBRANCH  23  26
BRANCH  25  28
HETATM   28  O   UNL     1     -13.016  13.483  71.851  1.00  0.00    -0.350 OA 
HETATM   29  C   UNL     1     -14.389  13.844  71.824  1.00  0.00    -0.180 C  
ENDBRANCH  25  28
BRANCH  21  30
HETATM   30  O   UNL     1     -12.167  10.944  70.778  1.00  0.00    -0.323 OA 
HETATM   31  C   UNL     1     -11.113   9.992  70.892  1.00  0.00    -0.314 C  
ENDBRANCH  21  30
ENDBRANCH   7  20
TORSDOF 4
ENDMDL
MODEL       12
REMARK 921   NORMALIZED FREE ENERGY PREDICTED BY IDOCK:   -6.70 KCAL/MOL
REMARK 922        TOTAL FREE ENERGY PREDICTED BY IDOCK:   -9.02 KCAL/MOL
REMARK 923 INTER-LIGAND FREE ENERGY PREDICTED BY IDOCK:   -8.85 KCAL/MOL
REMARK 924 INTRA-LIGAND FREE ENERGY PREDICTED BY IDOCK:   -0.17 KCAL/MOL
REMARK 927      BINDING AFFINITY PREDICTED BY RF-SCORE:    0.00 PKD
ROOT
HETATM    1  C   UNL     1     -11.322  14.741  70.897  1.00  0.00    -0.206 C  
HETATM    2  C   UNL     1     -11.438  15.544  72.163  1.00  0.00    -0.421 C  
HETATM    3  O   UNL     1     -12.436  14.840  72.927  1.00  0.00    -0.354 OA 
HETATM    4  C   UNL     1     -13.210  14.072  72.092  1.00  0.00    -0.435 C  
HETATM    5  C   UNL     1     -12.738  14.267  70.683  1.00  0.00    -0.409 C  
HETATM    6  O   UNL     1     -14.187  13.433  72.447  1.00  0.00    -0.637 OA 
HETATM    7  C   UNL     1     -12.755  13.089  69.709  1.00  0.00     0.370 C  
HETATM    8  C   UNL     1     -10.491  12.934  64.257  1.00  0.00    -0.407 C  
HETATM    9  C   UNL     1     -12.054  13.518  68.412  1.00  0.00    -0.293 A  
HETATM   10  O   UNL     1     -11.580  12.315  64.973  1.00  0.00    -0.332 OA 
HETATM   11  C   UNL     1     -12.281  12.745  67.260  1.00  0.00    -0.042 A  
HETATM   12  C   UNL     1     -11.542  13.017  66.134  1.00  0.00    -0.366 A  
HETATM   13  C   UNL     1     -11.092  14.590  68.394  1.00  0.00    -0.271 A  
HETATM   14  C   UNL     1     -10.634  14.044  66.104  1.00  0.00    -0.290 A  
HETATM   15  C   UNL     1     -10.811  15.432  69.643  1.00  0.00    -0.283 C  
HETATM   16  H   UNL     1      -9.094  16.064  69.047  1.00  0.00     0.000 HD 
HETATM   17  O   UNL     1      -9.985  14.119  64.910  1.00  0.00    -0.322 OA 
HETATM   18  C   UNL     1     -10.408  14.863  67.194  1.00  0.00    -0.260 A  
HETATM   19  O   UNL     1      -9.414  15.632  69.831  1.00  0.00    -0.241 OA 
ENDROOT
BRANCH   7  20
HETATM   20  C   UNL     1     -12.146  11.810  70.285  1.00  0.00    -0.426 A  
HETATM   21  C   UNL     1     -12.304   9.796  71.682  1.00  0.00    -0.408 A  
HETATM   22  C   UNL     1     -12.799  11.035  71.256  1.00  0.00    -0.528 A  
HETATM   23  C   UNL     1     -10.399  10.123  70.197  1.00  0.00    -0.224 A  
HETATM   24  C   UNL     1     -10.927  11.351  69.787  1.00  0.00    -0.118 A  
HETATM   25  C   UNL     1     -11.081   9.337  71.155  1.00  0.00    -0.341 A  
BRANCH  23  26
HETATM   26  O   UNL     1      -9.198   9.643  69.722  1.00  0.00    -0.188 OA 
HETATM   27  C   UNL     1      -8.377  10.579  69.028  1.00  0.00    -0.154 C  
ENDBRANCH  23  26
BRANCH  25  28
HETATM   28  O   UNL     1     -10.499   8.118  71.418  1.00  0.00    -0.203 OA 
HETATM   29  C   UNL     1      -9.812   7.959  72.651  1.00  0.00    -0.252 C  
ENDBRANCH  25  28
BRANCH  21  30
HETATM   30  O   UNL     1     -12.996   9.001  72.559  1.00  0.00    -0.418 OA 
HETATM   31  C   UNL     1     -14.126   8.281  72.077  1.00  0.00    -0.395 C  
ENDBRANCH  21  30
ENDBRANCH   7  20
TORSDOF 4
ENDMDL
MODEL       13
REMARK 921   NORMALIZED FREE ENERGY PREDICTED BY IDOCK:   -6.52 KCAL/MOL
REMARK 922        TOTAL FREE ENERGY PREDICTED BY IDOCK:   -8.80 KCAL/MOL
REMARK 923 INTER-LIGAND FREE ENERGY PREDICTED BY IDOCK:   -8.42 KCAL/MOL
REMARK 924 INTRA-LIGAND FREE ENERGY PREDICTED BY IDOCK:   -0.38 KCAL/MOL
REMARK 927      BINDING AFFINITY PREDICTED BY RF-SCORE:    0.00 PKD
ROOT
HETATM    1  C   UNL     1     -10.704  14.647  69.492  1.00  0.00    -0.202 C  
HETATM    2  C   UNL     1     -10.743  15.668  70.595  1.00  0.00    -0.213 C  
HETATM    3  O   UNL     1     -11.623  15.084  71.574  1.00  0.00    -0.347 OA 
HETATM    4  C   UNL     1     -12.430  14.146  70.978  1.00  0.00    -0.367 C  
HETATM    5  C   UNL     1     -12.107  14.091  69.516  1.00  0.00    -0.397 C  
HETATM    6  O   UNL     1     -13.331  13.549  71.545  1.00  0.00    -0.342 OA 
HETATM    7  C   UNL     1     -12.151  12.751  68.781  1.00  0.00    -0.165 C  
HETATM    8  C   UNL     1     -10.414  11.660  63.243  1.00  0.00    -0.383 C  
HETATM    9  C   UNL     1     -11.602  12.955  67.362  1.00  0.00    -0.414 A  
HETATM   10  O   UNL     1     -11.393  11.147  64.169  1.00  0.00    -0.191 OA 
HETATM   11  C   UNL     1     -11.896  11.972  66.400  1.00  0.00    -0.232 A  
HETATM   12  C   UNL     1     -11.283  12.055  65.173  1.00  0.00    -0.315 A  
HETATM   13  C   UNL     1     -10.707  14.038  67.048  1.00  0.00    -0.284 A  
HETATM   14  C   UNL     1     -10.440  13.090  64.862  1.00  0.00    -0.339 A  
HETATM   15  C   UNL     1     -10.354  15.109  68.087  1.00  0.00    -0.239 C  
HETATM   16  H   UNL     1      -8.740  15.680  67.210  1.00  0.00     0.000 HD 
HETATM   17  O   UNL     1      -9.913  12.964  63.613  1.00  0.00    -0.282 OA 
HETATM   18  C   UNL     1     -10.156  14.106  65.755  1.00  0.00    -0.352 A  
HETATM   19  O   UNL     1      -8.959  15.391  68.088  1.00  0.00    -0.172 OA 
ENDROOT
BRANCH   7  20
HETATM   20  C   UNL     1     -11.421  11.625  69.514  1.00  0.00    -0.371 A  
HETATM   21  C   UNL     1     -11.380   9.817  71.175  1.00  0.00    -0.389 A  
HETATM   22  C   UNL     1     -11.992  10.933  70.594  1.00  0.00    -0.467 A  
HETATM   23  C   UNL     1      -9.523  10.112  69.624  1.00  0.00    -0.200 A  
HETATM   24  C   UNL     1     -10.167  11.218  69.061  1.00  0.00    -0.169 A  
HETATM   25  C   UNL     1     -10.122   9.405  70.693  1.00  0.00    -0.291 A  
BRANCH  23  26
HETATM   26  O   UNL     1      -8.285   9.685  69.197  1.00  0.00    -0.107 OA 
HETATM   27  C   UNL     1      -7.191  10.559  69.466  1.00  0.00    -0.137 C  
ENDBRANCH  23  26
BRANCH  25  28
HETATM   28  O   UNL     1      -9.426   8.293  71.108  1.00  0.00    -0.151 OA 
HETATM   29  C   UNL     1      -9.833   7.026  70.609  1.00  0.00    -0.182 C  
ENDBRANCH  25  28
BRANCH  21  30
HETATM   30  O   UNL     1     -11.988   9.089  72.165  1.00  0.00    -0.357 OA 
HETATM   31  C   UNL     1     -13.158   8.343  71.839  1.00  0.00    -0.358 C  
ENDBRANCH  21  30
ENDBRANCH   7  20
TORSDOF 4
ENDMDL
MODEL       14
REMARK 921   NORMALIZED FREE ENERGY PREDICTED BY IDOCK:   -6.45 KCAL/MOL
REMARK 922        TOTAL FREE ENERGY PREDICTED BY IDOCK:   -8.71 KCAL/MOL
REMARK 923 INTER-LIGAND FREE ENERGY PREDICTED BY IDOCK:   -8.30 KCAL/MOL
REMARK 924 INTRA-LIGAND FREE ENERGY PREDICTED BY IDOCK:   -0.40 KCAL/MOL
REMARK 927      BINDING AFFINITY PREDICTED BY RF-SCORE:    0.00 PKD
ROOT
HETATM    1  C   UNL     1      -9.174  14.419  68.323  1.00  0.00    -0.201 C  
HETATM    2  C   UNL     1      -8.155  15.171  69.135  1.00  0.00    -0.214 C  
HETATM    3  O   UNL     1      -8.929  15.763  70.196  1.00  0.00     0.227 OA 
HETATM    4  C   UNL     1     -10.249  15.845  69.824  1.00  0.00    -0.268 C  
HETATM    5  C   UNL     1     -10.392  15.303  68.434  1.00  0.00    -0.227 C  
HETATM    6  O   UNL     1     -11.122  16.379  70.487  1.00  0.00    -0.340 OA 
HETATM    7  C   UNL     1     -11.646  14.515  68.055  1.00  0.00    -0.364 C  
HETATM    8  C   UNL     1     -12.626  11.570  63.031  1.00  0.00     0.398 C  
HETATM    9  C   UNL     1     -11.447  13.927  66.650  1.00  0.00    -0.370 A  
HETATM   10  O   UNL     1     -13.407  12.273  64.019  1.00  0.00    -0.677 OA 
HETATM   11  C   UNL     1     -12.589  13.496  65.954  1.00  0.00    -0.454 A  
HETATM   12  C   UNL     1     -12.418  12.824  64.768  1.00  0.00    -0.472 A  
HETATM   13  C   UNL     1     -10.132  13.696  66.110  1.00  0.00    -0.311 A  
HETATM   14  C   UNL     1     -11.171  12.612  64.240  1.00  0.00    -0.362 A  
HETATM   15  C   UNL     1      -8.870  14.135  66.861  1.00  0.00    -0.203 C  
HETATM   16  H   UNL     1      -7.685  12.941  65.929  1.00  0.00     0.000 HD 
HETATM   17  O   UNL     1     -11.220  11.897  63.081  1.00  0.00    -0.301 OA 
HETATM   18  C   UNL     1     -10.019  13.056  64.861  1.00  0.00    -0.151 A  
HETATM   19  O   UNL     1      -7.875  13.119  66.843  1.00  0.00    -0.015 OA 
ENDROOT
BRANCH   7  20
HETATM   20  C   UNL     1     -12.023  13.437  69.071  1.00  0.00    -0.357 A  
HETATM   21  C   UNL     1     -11.842  11.146  69.938  1.00  0.00    -0.363 A  
HETATM   22  C   UNL     1     -11.611  12.101  68.941  1.00  0.00    -0.377 A  
HETATM   23  C   UNL     1     -13.003  12.864  71.220  1.00  0.00    -0.228 A  
HETATM   24  C   UNL     1     -12.747  13.794  70.208  1.00  0.00    -0.208 A  
HETATM   25  C   UNL     1     -12.557  11.528  71.090  1.00  0.00    -0.359 A  
BRANCH  23  26
HETATM   26  O   UNL     1     -13.713  13.188  72.355  1.00  0.00    -0.581 OA 
HETATM   27  C   UNL     1     -13.555  14.520  72.837  1.00  0.00    -0.334 C  
ENDBRANCH  23  26
BRANCH  25  28
HETATM   28  O   UNL     1     -12.804  10.731  72.185  1.00  0.00    -0.356 OA 
HETATM   29  C   UNL     1     -13.718   9.653  72.033  1.00  0.00    -0.316 C  
ENDBRANCH  25  28
BRANCH  21  30
HETATM   30  O   UNL     1     -11.354   9.868  69.846  1.00  0.00    -0.244 OA 
HETATM   31  C   UNL     1     -10.066   9.592  70.391  1.00  0.00    -0.276 C  
ENDBRANCH  21  30
ENDBRANCH   7  20
TORSDOF 4
ENDMDL
MODEL       15
REMARK 921   NORMALIZED FREE ENERGY PREDICTED BY IDOCK:   -6.44 KCAL/MOL
REMARK 922        TOTAL FREE ENERGY PREDICTED BY IDOCK:   -8.70 KCAL/MOL
REMARK 923 INTER-LIGAND FREE ENERGY PREDICTED BY IDOCK:   -7.96 KCAL/MOL
REMARK 924 INTRA-LIGAND FREE ENERGY PREDICTED BY IDOCK:   -0.74 KCAL/MOL
REMARK 927      BINDING AFFINITY PREDICTED BY RF-SCORE:    0.00 PKD
ROOT
HETATM    1  C   UNL     1      -8.379  16.026  67.971  1.00  0.00    -0.162 C  
HETATM    2  C   UNL     1      -7.057  16.628  67.581  1.00  0.00    -0.136 C  
HETATM    3  O   UNL     1      -6.328  15.520  67.017  1.00  0.00    -0.287 OA 
HETATM    4  C   UNL     1      -6.855  14.334  67.469  1.00  0.00    -0.135 C  
HETATM    5  C   UNL     1      -7.987  14.635  68.403  1.00  0.00    -0.137 C  
HETATM    6  O   UNL     1      -6.388  13.234  67.226  1.00  0.00    -0.284 OA 
HETATM    7  C   UNL     1      -9.217  13.726  68.419  1.00  0.00    -0.182 C  
HETATM    8  C   UNL     1     -14.275  14.617  71.332  1.00  0.00    -0.383 C  
HETATM    9  C   UNL     1     -10.283  14.364  69.320  1.00  0.00    -0.077 A  
HETATM   10  O   UNL     1     -13.490  13.492  70.888  1.00  0.00    -0.017 OA 
HETATM   11  C   UNL     1     -11.327  13.542  69.781  1.00  0.00    -0.161 A  
HETATM   12  C   UNL     1     -12.372  14.128  70.452  1.00  0.00    -0.359 A  
HETATM   13  C   UNL     1     -10.302  15.781  69.579  1.00  0.00    -0.272 A  
HETATM   14  C   UNL     1     -12.391  15.473  70.716  1.00  0.00    -0.414 A  
HETATM   15  C   UNL     1      -9.188  16.701  69.068  1.00  0.00    -0.223 C  
HETATM   16  H   UNL     1     -10.225  18.317  69.189  1.00  0.00     0.000 HD 
HETATM   17  O   UNL     1     -13.530  15.854  71.358  1.00  0.00    -0.481 OA 
HETATM   18  C   UNL     1     -11.368  16.317  70.326  1.00  0.00    -0.299 A  
HETATM   19  O   UNL     1      -9.719  17.895  68.504  1.00  0.00    -0.318 OA 
ENDROOT
BRANCH   7  20
HETATM   20  C   UNL     1      -9.765  13.413  67.026  1.00  0.00    -0.239 A  
HETATM   21  C   UNL     1     -10.205  11.835  65.197  1.00  0.00    -0.268 A  
HETATM   22  C   UNL     1      -9.588  12.163  66.410  1.00  0.00    -0.243 A  
HETATM   23  C   UNL     1     -11.149  14.081  65.144  1.00  0.00    -0.341 A  
HETATM   24  C   UNL     1     -10.526  14.373  66.362  1.00  0.00    -0.295 A  
HETATM   25  C   UNL     1     -10.987  12.809  64.547  1.00  0.00    -0.341 A  
BRANCH  23  26
HETATM   26  O   UNL     1     -11.908  15.008  64.465  1.00  0.00    -0.429 OA 
HETATM   27  C   UNL     1     -11.413  16.344  64.461  1.00  0.00    -0.073 C  
ENDBRANCH  23  26
BRANCH  25  28
HETATM   28  O   UNL     1     -11.711  12.620  63.391  1.00  0.00    -0.497 OA 
HETATM   29  C   UNL     1     -12.902  11.851  63.469  1.00  0.00    -0.305 C  
ENDBRANCH  25  28
BRANCH  21  30
HETATM   30  O   UNL     1     -10.105  10.581  64.649  1.00  0.00    -0.328 OA 
HETATM   31  C   UNL     1      -9.715   9.501  65.492  1.00  0.00    -0.273 C  
ENDBRANCH  21  30
ENDBRANCH   7  20
TORSDOF 4
ENDMDL
MODEL       16
REMARK 921   NORMALIZED FREE ENERGY PREDICTED BY IDOCK:   -6.44 KCAL/MOL
REMARK 922        TOTAL FREE ENERGY PREDICTED BY IDOCK:   -8.69 KCAL/MOL
REMARK 923 INTER-LIGAND FREE ENERGY PREDICTED BY IDOCK:   -7.93 KCAL/MOL
REMARK 924 INTRA-LIGAND FREE ENERGY PREDICTED BY IDOCK:   -0.76 KCAL/MOL
REMARK 927      BINDING AFFINITY PREDICTED BY RF-SCORE:    0.00 PKD
ROOT
HETATM    1  C   UNL     1      -8.723  16.054  68.010  1.00  0.00    -0.171 C  
HETATM    2  C   UNL     1      -7.459  16.697  67.507  1.00  0.00    -0.153 C  
HETATM    3  O   UNL     1      -6.741  15.608  66.894  1.00  0.00    -0.253 OA 
HETATM    4  C   UNL     1      -7.186  14.411  67.398  1.00  0.00    -0.122 C  
HETATM    5  C   UNL     1      -8.248  14.682  68.420  1.00  0.00    -0.154 C  
HETATM    6  O   UNL     1      -6.702  13.324  67.126  1.00  0.00    -0.162 OA 
HETATM    7  C   UNL     1      -9.439  13.732  68.544  1.00  0.00    -0.162 C  
HETATM    8  C   UNL     1     -14.271  14.480  71.856  1.00  0.00    -0.538 C  
HETATM    9  C   UNL     1     -10.451  14.343  69.524  1.00  0.00    -0.028 A  
HETATM   10  O   UNL     1     -13.485  13.378  71.358  1.00  0.00    -0.253 OA 
HETATM   11  C   UNL     1     -11.423  13.491  70.077  1.00  0.00    -0.141 A  
HETATM   12  C   UNL     1     -12.430  14.048  70.827  1.00  0.00    -0.372 A  
HETATM   13  C   UNL     1     -10.497  15.761  69.773  1.00  0.00    -0.318 A  
HETATM   14  C   UNL     1     -12.474  15.394  71.080  1.00  0.00    -0.411 A  
HETATM   15  C   UNL     1      -9.463  16.714  69.163  1.00  0.00    -0.188 C  
HETATM   16  H   UNL     1     -10.542  18.294  69.356  1.00  0.00     0.000 HD 
HETATM   17  O   UNL     1     -13.569  15.743  71.810  1.00  0.00    -0.459 OA 
HETATM   18  C   UNL     1     -11.517  16.268  70.600  1.00  0.00    -0.297 A  
HETATM   19  O   UNL     1     -10.080  17.882  68.635  1.00  0.00    -0.362 OA 
ENDROOT
BRANCH   7  20
HETATM   20  C   UNL     1     -10.089  13.384  67.204  1.00  0.00    -0.240 A  
HETATM   21  C   UNL     1     -11.334  14.033  65.190  1.00  0.00    -0.328 A  
HETATM   22  C   UNL     1     -10.855  14.308  66.476  1.00  0.00    -0.304 A  
HETATM   23  C   UNL     1     -10.335  11.816  65.364  1.00  0.00    -0.268 A  
HETATM   24  C   UNL     1      -9.864  12.128  66.644  1.00  0.00    -0.224 A  
HETATM   25  C   UNL     1     -11.082  12.766  64.628  1.00  0.00    -0.318 A  
BRANCH  23  26
HETATM   26  O   UNL     1     -10.128  10.585  64.783  1.00  0.00    -0.318 OA 
HETATM   27  C   UNL     1      -9.374   9.648  65.548  1.00  0.00    -0.248 C  
ENDBRANCH  23  26
BRANCH  25  28
HETATM   28  O   UNL     1     -11.423  12.367  63.356  1.00  0.00    -0.457 OA 
HETATM   29  C   UNL     1     -12.752  11.918  63.131  1.00  0.00    -0.127 C  
ENDBRANCH  25  28
BRANCH  21  30
HETATM   30  O   UNL     1     -12.000  14.974  64.447  1.00  0.00    -0.442 OA 
HETATM   31  C   UNL     1     -11.513  16.313  64.453  1.00  0.00    -0.111 C  
ENDBRANCH  21  30
ENDBRANCH   7  20
TORSDOF 4
ENDMDL
MODEL       17
REMARK 921   NORMALIZED FREE ENERGY PREDICTED BY IDOCK:   -6.40 KCAL/MOL
REMARK 922        TOTAL FREE ENERGY PREDICTED BY IDOCK:   -8.65 KCAL/MOL
REMARK 923 INTER-LIGAND FREE ENERGY PREDICTED BY IDOCK:   -8.55 KCAL/MOL
REMARK 924 INTRA-LIGAND FREE ENERGY PREDICTED BY IDOCK:   -0.10 KCAL/MOL
REMARK 927      BINDING AFFINITY PREDICTED BY RF-SCORE:    0.00 PKD
ROOT
HETATM    1  C   UNL     1     -11.355  14.638  71.075  1.00  0.00    -0.129 C  
HETATM    2  C   UNL     1     -11.435  15.330  72.408  1.00  0.00    -0.363 C  
HETATM    3  O   UNL     1     -12.449  14.593  73.118  1.00  0.00    -0.362 OA 
HETATM    4  C   UNL     1     -13.254  13.927  72.227  1.00  0.00    -0.473 C  
HETATM    5  C   UNL     1     -12.788  14.230  70.836  1.00  0.00    -0.416 C  
HETATM    6  O   UNL     1     -14.248  13.290  72.536  1.00  0.00    -0.697 OA 
HETATM    7  C   UNL     1     -12.851  13.144  69.762  1.00  0.00     0.548 C  
HETATM    8  C   UNL     1     -10.637  13.398  64.293  1.00  0.00    -0.341 C  
HETATM    9  C   UNL     1     -12.147  13.664  68.500  1.00  0.00    -0.321 A  
HETATM   10  O   UNL     1     -11.739  12.754  64.963  1.00  0.00    -0.321 OA 
HETATM   11  C   UNL     1     -12.408  13.003  67.287  1.00  0.00     0.017 A  
HETATM   12  C   UNL     1     -11.669  13.349  66.182  1.00  0.00    -0.368 A  
HETATM   13  C   UNL     1     -11.151  14.701  68.566  1.00  0.00    -0.273 A  
HETATM   14  C   UNL     1     -10.729  14.345  66.232  1.00  0.00    -0.307 A  
HETATM   15  C   UNL     1     -10.831  15.421  69.881  1.00  0.00    -0.293 C  
HETATM   16  H   UNL     1      -9.100  16.048  69.324  1.00  0.00     0.000 HD 
HETATM   17  O   UNL     1     -10.087  14.505  65.042  1.00  0.00    -0.393 OA 
HETATM   18  C   UNL     1     -10.467  15.057  67.388  1.00  0.00    -0.257 A  
HETATM   19  O   UNL     1      -9.428  15.559  70.070  1.00  0.00    -0.195 OA 
ENDROOT
BRANCH   7  20
HETATM   20  C   UNL     1     -12.279  11.800  70.216  1.00  0.00    -0.381 A  
HETATM   21  C   UNL     1     -10.453  10.160  70.295  1.00  0.00    -0.224 A  
HETATM   22  C   UNL     1     -11.034  11.323  69.776  1.00  0.00    -0.170 A  
HETATM   23  C   UNL     1     -12.433   9.872  71.687  1.00  0.00    -0.415 A  
HETATM   24  C   UNL     1     -12.980  11.043  71.153  1.00  0.00    -0.421 A  
HETATM   25  C   UNL     1     -11.165   9.416  71.256  1.00  0.00    -0.367 A  
BRANCH  23  26
HETATM   26  O   UNL     1     -13.100   9.103  72.615  1.00  0.00    -0.415 OA 
HETATM   27  C   UNL     1     -14.342   8.545  72.191  1.00  0.00    -0.436 C  
ENDBRANCH  23  26
BRANCH  25  28
HETATM   28  O   UNL     1     -10.704   8.296  71.910  1.00  0.00    -0.243 OA 
HETATM   29  C   UNL     1      -9.669   8.463  72.869  1.00  0.00    -0.183 C  
ENDBRANCH  25  28
BRANCH  21  30
HETATM   30  O   UNL     1      -9.195   9.752  69.929  1.00  0.00    -0.212 OA 
HETATM   31  C   UNL     1      -9.067   8.837  68.845  1.00  0.00    -0.141 C  
ENDBRANCH  21  30
ENDBRANCH   7  20
TORSDOF 4
ENDMDL
MODEL       18
REMARK 921   NORMALIZED FREE ENERGY PREDICTED BY IDOCK:   -6.24 KCAL/MOL
REMARK 922        TOTAL FREE ENERGY PREDICTED BY IDOCK:   -8.45 KCAL/MOL
REMARK 923 INTER-LIGAND FREE ENERGY PREDICTED BY IDOCK:   -8.74 KCAL/MOL
REMARK 924 INTRA-LIGAND FREE ENERGY PREDICTED BY IDOCK:    0.29 KCAL/MOL
REMARK 927      BINDING AFFINITY PREDICTED BY RF-SCORE:    0.00 PKD
ROOT
HETATM    1  C   UNL     1     -11.603  13.613  64.406  1.00  0.00    -0.421 C  
HETATM    2  C   UNL     1     -12.119  12.759  63.280  1.00  0.00    -0.439 C  
HETATM    3  O   UNL     1     -11.517  11.472  63.520  1.00  0.00    -0.404 OA 
HETATM    4  C   UNL     1     -10.400  11.617  64.307  1.00  0.00    -0.322 C  
HETATM    5  C   UNL     1     -10.210  13.072  64.610  1.00  0.00    -0.324 C  
HETATM    6  O   UNL     1      -9.641  10.709  64.603  1.00  0.00    -0.229 OA 
HETATM    7  C   UNL     1      -9.679  13.497  65.979  1.00  0.00    -0.233 C  
HETATM    8  C   UNL     1      -9.268  18.994  68.098  1.00  0.00    -0.323 C  
HETATM    9  C   UNL     1      -9.759  15.027  66.080  1.00  0.00    -0.359 A  
HETATM   10  O   UNL     1      -8.570  17.742  68.253  1.00  0.00    -0.261 OA 
HETATM   11  C   UNL     1      -8.990  15.658  67.074  1.00  0.00    -0.244 A  
HETATM   12  C   UNL     1      -9.170  17.004  67.284  1.00  0.00    -0.221 A  
HETATM   13  C   UNL     1     -10.686  15.788  65.283  1.00  0.00    -0.446 A  
HETATM   14  C   UNL     1     -10.040  17.738  66.520  1.00  0.00    -0.358 A  
HETATM   15  C   UNL     1     -11.552  15.119  64.209  1.00  0.00    -0.184 C  
HETATM   16  H   UNL     1     -12.865  16.523  64.142  1.00  0.00     0.000 HD 
HETATM   17  O   UNL     1     -10.095  19.040  66.913  1.00  0.00    -0.327 OA 
HETATM   18  C   UNL     1     -10.784  17.175  65.500  1.00  0.00    -0.124 A  
HETATM   19  O   UNL     1     -12.897  15.582  64.265  1.00  0.00    -0.336 OA 
ENDROOT
BRANCH   7  20
HETATM   20  C   UNL     1     -10.388  12.815  67.150  1.00  0.00    -0.237 A  
HETATM   21  C   UNL     1     -11.867  12.900  69.108  1.00  0.00    -0.303 A  
HETATM   22  C   UNL     1     -11.108  13.534  68.117  1.00  0.00    -0.283 A  
HETATM   23  C   UNL     1     -11.120  10.758  68.216  1.00  0.00    -0.271 A  
HETATM   24  C   UNL     1     -10.380  11.423  67.234  1.00  0.00    -0.230 A  
HETATM   25  C   UNL     1     -11.866  11.493  69.168  1.00  0.00    -0.340 A  
BRANCH  23  26
HETATM   26  O   UNL     1     -11.134   9.385  68.323  1.00  0.00    -0.097 OA 
HETATM   27  C   UNL     1     -10.118   8.688  67.606  1.00  0.00    -0.213 C  
ENDBRANCH  23  26
BRANCH  25  28
HETATM   28  O   UNL     1     -12.610  10.723  70.033  1.00  0.00    -0.308 OA 
HETATM   29  C   UNL     1     -12.018  10.347  71.268  1.00  0.00    -0.330 C  
ENDBRANCH  25  28
BRANCH  21  30
HETATM   30  O   UNL     1     -12.644  13.607  69.990  1.00  0.00    -0.243 OA 
HETATM   31  C   UNL     1     -12.002  14.499  70.897  1.00  0.00    -0.325 C  
ENDBRANCH  21  30
ENDBRANCH   7  20
TORSDOF 4
ENDMDL
MODEL       19
REMARK 921   NORMALIZED FREE ENERGY PREDICTED BY IDOCK:   -6.21 KCAL/MOL
REMARK 922        TOTAL FREE ENERGY PREDICTED BY IDOCK:   -8.42 KCAL/MOL
REMARK 923 INTER-LIGAND FREE ENERGY PREDICTED BY IDOCK:   -7.97 KCAL/MOL
REMARK 924 INTRA-LIGAND FREE ENERGY PREDICTED BY IDOCK:   -0.45 KCAL/MOL
REMARK 927      BINDING AFFINITY PREDICTED BY RF-SCORE:    0.00 PKD
ROOT
HETATM    1  C   UNL     1      -8.066   8.826  67.566  1.00  0.00    -0.106 C  
HETATM    2  C   UNL     1      -6.810   8.083  67.930  1.00  0.00    -0.073 C  
HETATM    3  O   UNL     1      -6.660   8.331  69.341  1.00  0.00    -0.040 OA 
HETATM    4  C   UNL     1      -7.355   9.462  69.694  1.00  0.00    -0.077 C  
HETATM    5  C   UNL     1      -8.001  10.033  68.469  1.00  0.00    -0.102 C  
HETATM    6  O   UNL     1      -7.341   9.962  70.807  1.00  0.00    -0.312 OA 
HETATM    7  C   UNL     1      -9.380  10.684  68.573  1.00  0.00    -0.170 C  
HETATM    8  C   UNL     1     -12.785  12.564  64.129  1.00  0.00    -0.322 C  
HETATM    9  C   UNL     1      -9.874  11.010  67.156  1.00  0.00    -0.211 A  
HETATM   10  O   UNL     1     -12.552  12.912  65.509  1.00  0.00    -0.559 OA 
HETATM   11  C   UNL     1     -10.923  11.937  67.027  1.00  0.00    -0.326 A  
HETATM   12  C   UNL     1     -11.485  12.120  65.787  1.00  0.00    -0.361 A  
HETATM   13  C   UNL     1      -9.383  10.299  66.005  1.00  0.00    -0.224 A  
HETATM   14  C   UNL     1     -11.014  11.458  64.683  1.00  0.00    -0.255 A  
HETATM   15  C   UNL     1      -8.256   9.267  66.123  1.00  0.00    -0.111 C  
HETATM   16  H   UNL     1      -8.666   8.367  64.474  1.00  0.00     0.000 HD 
HETATM   17  O   UNL     1     -11.730  11.754  63.563  1.00  0.00    -0.450 OA 
HETATM   18  C   UNL     1      -9.955  10.573  64.748  1.00  0.00    -0.412 A  
HETATM   19  O   UNL     1      -8.547   8.091  65.375  1.00  0.00    -0.158 OA 
ENDROOT
BRANCH   7  20
HETATM   20  C   UNL     1     -10.397   9.844  69.348  1.00  0.00    -0.238 A  
HETATM   21  C   UNL     1     -11.362   7.672  69.965  1.00  0.00    -0.067 A  
HETATM   22  C   UNL     1     -10.529   8.459  69.161  1.00  0.00    -0.218 A  
HETATM   23  C   UNL     1     -12.030   9.700  71.141  1.00  0.00    -0.367 A  
HETATM   24  C   UNL     1     -11.181  10.455  70.326  1.00  0.00    -0.395 A  
HETATM   25  C   UNL     1     -12.134   8.300  70.962  1.00  0.00    -0.208 A  
BRANCH  23  26
HETATM   26  O   UNL     1     -12.816  10.274  72.117  1.00  0.00    -0.388 OA 
HETATM   27  C   UNL     1     -13.165  11.641  71.918  1.00  0.00    -0.369 C  
ENDBRANCH  23  26
BRANCH  25  28
HETATM   28  O   UNL     1     -12.943   7.663  71.874  1.00  0.00    -0.312 OA 
HETATM   29  C   UNL     1     -14.291   7.407  71.505  1.00  0.00    -0.440 C  
ENDBRANCH  25  28
BRANCH  21  30
HETATM   30  O   UNL     1     -11.414   6.308  69.838  1.00  0.00    -0.422 OA 
HETATM   31  C   UNL     1     -10.350   5.534  70.386  1.00  0.00    -0.276 C  
ENDBRANCH  21  30
ENDBRANCH   7  20
TORSDOF 4
ENDMDL
MODEL       20
REMARK 921   NORMALIZED FREE ENERGY PREDICTED BY IDOCK:   -6.16 KCAL/MOL
REMARK 922        TOTAL FREE ENERGY PREDICTED BY IDOCK:   -8.35 KCAL/MOL
REMARK 923 INTER-LIGAND FREE ENERGY PREDICTED BY IDOCK:   -7.64 KCAL/MOL
REMARK 924 INTRA-LIGAND FREE ENERGY PREDICTED BY IDOCK:   -0.72 KCAL/MOL
REMARK 927      BINDING AFFINITY PREDICTED BY RF-SCORE:    0.00 PKD
ROOT
HETATM    1  C   UNL     1     -11.715  13.719  66.404  1.00  0.00    -0.404 C  
HETATM    2  C   UNL     1     -12.971  13.911  65.599  1.00  0.00    -0.315 C  
HETATM    3  O   UNL     1     -12.980  12.783  64.702  1.00  0.00    -0.742 OA 
HETATM    4  C   UNL     1     -11.708  12.281  64.568  1.00  0.00    -0.353 C  
HETATM    5  C   UNL     1     -10.773  13.110  65.395  1.00  0.00    -0.308 C  
HETATM    6  O   UNL     1     -11.398  11.380  63.807  1.00  0.00    -0.382 OA 
HETATM    7  C   UNL     1      -9.600  12.440  66.111  1.00  0.00    -0.238 C  
HETATM    8  C   UNL     1      -5.914  14.915  70.005  1.00  0.00    -0.143 C  
HETATM    9  C   UNL     1      -8.928  13.478  67.022  1.00  0.00    -0.237 A  
HETATM   10  O   UNL     1      -5.866  13.866  69.017  1.00  0.00    -0.082 OA 
HETATM   11  C   UNL     1      -7.627  13.203  67.477  1.00  0.00    -0.166 A  
HETATM   12  C   UNL     1      -7.073  14.037  68.417  1.00  0.00    -0.102 A  
HETATM   13  C   UNL     1      -9.643  14.629  67.509  1.00  0.00    -0.206 A  
HETATM   14  C   UNL     1      -7.741  15.143  68.875  1.00  0.00    -0.159 A  
HETATM   15  C   UNL     1     -11.071  14.938  67.046  1.00  0.00    -0.338 C  
HETATM   16  H   UNL     1     -11.501  16.070  68.540  1.00  0.00     0.000 HD 
HETATM   17  O   UNL     1      -7.032  15.813  69.826  1.00  0.00    -0.178 OA 
HETATM   18  C   UNL     1      -9.002  15.484  68.425  1.00  0.00    -0.189 A  
HETATM   19  O   UNL     1     -11.903  15.309  68.139  1.00  0.00    -0.330 OA 
ENDROOT
BRANCH   7  20
HETATM   20  C   UNL     1      -9.993  11.180  66.883  1.00  0.00    -0.230 A  
HETATM   21  C   UNL     1     -10.050   8.736  67.116  1.00  0.00    -0.252 A  
HETATM   22  C   UNL     1      -9.817   9.889  66.358  1.00  0.00    -0.288 A  
HETATM   23  C   UNL     1     -10.734  10.169  68.965  1.00  0.00    -0.221 A  
HETATM   24  C   UNL     1     -10.483  11.301  68.182  1.00  0.00    -0.215 A  
HETATM   25  C   UNL     1     -10.526   8.874  68.434  1.00  0.00    -0.187 A  
BRANCH  23  26
HETATM   26  O   UNL     1     -11.217  10.257  70.252  1.00  0.00    -0.280 OA 
HETATM   27  C   UNL     1     -12.142  11.311  70.505  1.00  0.00    -0.387 C  
ENDBRANCH  23  26
BRANCH  25  28
HETATM   28  O   UNL     1     -10.736   7.847  69.326  1.00  0.00    -0.211 OA 
HETATM   29  C   UNL     1      -9.612   7.330  70.025  1.00  0.00    -0.167 C  
ENDBRANCH  25  28
BRANCH  21  30
HETATM   30  O   UNL     1      -9.785   7.482  66.628  1.00  0.00    -0.200 OA 
HETATM   31  C   UNL     1      -8.429   7.048  66.571  1.00  0.00    -0.125 C  
ENDBRANCH  21  30
ENDBRANCH   7  20
TORSDOF 4
ENDMDL
MODEL       21
REMARK 921   NORMALIZED FREE ENERGY PREDICTED BY IDOCK:   -6.11 KCAL/MOL
REMARK 922        TOTAL FREE ENERGY PREDICTED BY IDOCK:   -8.30 KCAL/MOL
REMARK 923 INTER-LIGAND FREE ENERGY PREDICTED BY IDOCK:   -7.63 KCAL/MOL
REMARK 924 INTRA-LIGAND FREE ENERGY PREDICTED BY IDOCK:   -0.66 KCAL/MOL
REMARK 927      BINDING AFFINITY PREDICTED BY RF-SCORE:    0.00 PKD
ROOT
HETATM    1  C   UNL     1     -10.413  11.539  65.092  1.00  0.00    -0.340 C  
HETATM    2  C   UNL     1     -10.618  12.044  63.690  1.00  0.00    -0.454 C  
HETATM    3  O   UNL     1     -11.296  13.302  63.874  1.00  0.00    -0.381 OA 
HETATM    4  C   UNL     1     -11.906  13.330  65.104  1.00  0.00    -0.348 C  
HETATM    5  C   UNL     1     -11.655  12.026  65.797  1.00  0.00    -0.353 C  
HETATM    6  O   UNL     1     -12.623  14.235  65.499  1.00  0.00    -0.458 OA 
HETATM    7  C   UNL     1     -11.442  12.001  67.311  1.00  0.00    -0.403 C  
HETATM    8  C   UNL     1      -9.799   7.386  70.608  1.00  0.00    -0.179 C  
HETATM    9  C   UNL     1     -11.027  10.581  67.721  1.00  0.00    -0.372 A  
HETATM   10  O   UNL     1     -10.592   8.579  70.772  1.00  0.00    -0.197 OA 
HETATM   11  C   UNL     1     -11.146  10.232  69.078  1.00  0.00    -0.277 A  
HETATM   12  C   UNL     1     -10.632   9.027  69.491  1.00  0.00    -0.225 A  
HETATM   13  C   UNL     1     -10.410   9.676  66.787  1.00  0.00    -0.292 A  
HETATM   14  C   UNL     1     -10.055   8.153  68.605  1.00  0.00    -0.196 A  
HETATM   15  C   UNL     1     -10.247  10.043  65.307  1.00  0.00    -0.126 C  
HETATM   16  H   UNL     1      -8.847   8.770  64.963  1.00  0.00     0.000 HD 
HETATM   17  O   UNL     1      -9.579   7.037  69.223  1.00  0.00    -0.154 OA 
HETATM   18  C   UNL     1      -9.956   8.428  67.254  1.00  0.00    -0.291 A  
HETATM   19  O   UNL     1      -8.950   9.705  64.828  1.00  0.00    -0.198 OA 
ENDROOT
BRANCH   7  20
HETATM   20  C   UNL     1     -10.444  13.048  67.806  1.00  0.00    -0.232 A  
HETATM   21  C   UNL     1      -9.941  15.162  68.950  1.00  0.00    -0.227 A  
HETATM   22  C   UNL     1     -10.850  14.266  68.376  1.00  0.00    -0.263 A  
HETATM   23  C   UNL     1      -8.143  13.644  68.311  1.00  0.00    -0.155 A  
HETATM   24  C   UNL     1      -9.080  12.768  67.754  1.00  0.00    -0.197 A  
HETATM   25  C   UNL     1      -8.567  14.855  68.909  1.00  0.00    -0.177 A  
BRANCH  23  26
HETATM   26  O   UNL     1      -6.789  13.394  68.278  1.00  0.00    -0.084 OA 
HETATM   27  C   UNL     1      -6.344  12.253  69.006  1.00  0.00    -0.088 C  
ENDBRANCH  23  26
BRANCH  25  28
HETATM   28  O   UNL     1      -7.559  15.594  69.487  1.00  0.00    -0.217 OA 
HETATM   29  C   UNL     1      -7.025  16.684  68.749  1.00  0.00    -0.185 C  
ENDBRANCH  25  28
BRANCH  21  30
HETATM   30  O   UNL     1     -10.353  16.303  69.590  1.00  0.00    -0.275 OA 
HETATM   31  C   UNL     1     -10.427  17.513  68.840  1.00  0.00    -0.286 C  
ENDBRANCH  21  30
ENDBRANCH   7  20
TORSDOF 4
ENDMDL
MODEL       22
REMARK 921   NORMALIZED FREE ENERGY PREDICTED BY IDOCK:   -6.11 KCAL/MOL
REMARK 922        TOTAL FREE ENERGY PREDICTED BY IDOCK:   -8.29 KCAL/MOL
REMARK 923 INTER-LIGAND FREE ENERGY PREDICTED BY IDOCK:   -7.85 KCAL/MOL
REMARK 924 INTRA-LIGAND FREE ENERGY PREDICTED BY IDOCK:   -0.44 KCAL/MOL
REMARK 927      BINDING AFFINITY PREDICTED BY RF-SCORE:    0.00 PKD
ROOT
HETATM    1  C   UNL     1      -9.240  14.908  68.185  1.00  0.00    -0.186 C  
HETATM    2  C   UNL     1      -8.260  15.787  68.912  1.00  0.00    -0.210 C  
HETATM    3  O   UNL     1      -9.015  16.292  70.031  1.00  0.00     0.484 OA 
HETATM    4  C   UNL     1     -10.360  16.210  69.763  1.00  0.00    -0.244 C  
HETATM    5  C   UNL     1     -10.544  15.638  68.390  1.00  0.00    -0.252 C  
HETATM    6  O   UNL     1     -11.238  16.642  70.493  1.00  0.00    -0.250 OA 
HETATM    7  C   UNL     1     -11.719  14.700  68.113  1.00  0.00    -0.360 C  
HETATM    8  C   UNL     1     -12.723  11.602  63.187  1.00  0.00     0.090 C  
HETATM    9  C   UNL     1     -11.560  14.125  66.698  1.00  0.00    -0.399 A  
HETATM   10  O   UNL     1     -13.504  12.216  64.232  1.00  0.00    -0.708 OA 
HETATM   11  C   UNL     1     -12.693  13.551  66.094  1.00  0.00    -0.232 A  
HETATM   12  C   UNL     1     -12.533  12.891  64.900  1.00  0.00    -0.478 A  
HETATM   13  C   UNL     1     -10.273  14.048  66.056  1.00  0.00    -0.313 A  
HETATM   14  C   UNL     1     -11.315  12.825  64.275  1.00  0.00    -0.367 A  
HETATM   15  C   UNL     1      -9.020  14.646  66.704  1.00  0.00    -0.238 C  
HETATM   16  H   UNL     1      -7.774  13.594  65.683  1.00  0.00     0.000 HD 
HETATM   17  O   UNL     1     -11.367  12.098  63.126  1.00  0.00    -0.343 OA 
HETATM   18  C   UNL     1     -10.181  13.413  64.803  1.00  0.00    -0.339 A  
HETATM   19  O   UNL     1      -7.912  13.758  66.609  1.00  0.00     0.269 OA 
ENDROOT
BRANCH   7  20
HETATM   20  C   UNL     1     -11.882  13.596  69.158  1.00  0.00    -0.394 A  
HETATM   21  C   UNL     1     -12.878  12.728  71.227  1.00  0.00    -0.262 A  
HETATM   22  C   UNL     1     -12.618  13.778  70.339  1.00  0.00    -0.325 A  
HETATM   23  C   UNL     1     -11.571  11.267  69.779  1.00  0.00    -0.333 A  
HETATM   24  C   UNL     1     -11.337  12.336  68.908  1.00  0.00    -0.337 A  
HETATM   25  C   UNL     1     -12.339  11.456  70.952  1.00  0.00    -0.381 A  
BRANCH  23  26
HETATM   26  O   UNL     1     -11.048  10.012  69.559  1.00  0.00    -0.233 OA 
HETATM   27  C   UNL     1      -9.717   9.795  70.022  1.00  0.00    -0.250 C  
ENDBRANCH  23  26
BRANCH  25  28
HETATM   28  O   UNL     1     -12.559  10.312  71.685  1.00  0.00    -0.391 OA 
HETATM   29  C   UNL     1     -13.800   9.641  71.516  1.00  0.00    -0.146 C  
ENDBRANCH  25  28
BRANCH  21  30
HETATM   30  O   UNL     1     -13.678  12.891  72.329  1.00  0.00    -0.541 OA 
HETATM   31  C   UNL     1     -14.105  14.207  72.670  1.00  0.00    -0.184 C  
ENDBRANCH  21  30
ENDBRANCH   7  20
TORSDOF 4
ENDMDL
MODEL       23
REMARK 921   NORMALIZED FREE ENERGY PREDICTED BY IDOCK:   -6.04 KCAL/MOL
REMARK 922        TOTAL FREE ENERGY PREDICTED BY IDOCK:   -8.20 KCAL/MOL
REMARK 923 INTER-LIGAND FREE ENERGY PREDICTED BY IDOCK:   -7.65 KCAL/MOL
REMARK 924 INTRA-LIGAND FREE ENERGY PREDICTED BY IDOCK:   -0.55 KCAL/MOL
REMARK 927      BINDING AFFINITY PREDICTED BY RF-SCORE:    0.00 PKD
ROOT
HETATM    1  C   UNL     1     -12.050   7.568  71.034  1.00  0.00    -0.305 C  
HETATM    2  C   UNL     1     -13.451   7.224  71.462  1.00  0.00    -0.363 C  
HETATM    3  O   UNL     1     -14.087   8.507  71.622  1.00  0.00    -0.400 OA 
HETATM    4  C   UNL     1     -13.136   9.480  71.810  1.00  0.00    -0.418 C  
HETATM    5  C   UNL     1     -11.782   8.840  71.799  1.00  0.00    -0.416 C  
HETATM    6  O   UNL     1     -13.384  10.649  72.056  1.00  0.00    -0.440 OA 
HETATM    7  C   UNL     1     -10.598   9.584  71.178  1.00  0.00    -0.388 C  
HETATM    8  C   UNL     1      -5.168   7.474  70.212  1.00  0.00    -0.023 C  
HETATM    9  C   UNL     1      -9.393   8.633  71.136  1.00  0.00    -0.274 A  
HETATM   10  O   UNL     1      -5.776   8.749  70.501  1.00  0.00    -0.027 OA 
HETATM   11  C   UNL     1      -8.119   9.201  70.964  1.00  0.00    -0.179 A  
HETATM   12  C   UNL     1      -7.050   8.361  70.764  1.00  0.00    -0.050 A  
HETATM   13  C   UNL     1      -9.561   7.203  71.135  1.00  0.00    -0.164 A  
HETATM   14  C   UNL     1      -7.199   6.999  70.775  1.00  0.00    -0.071 A  
HETATM   15  C   UNL     1     -10.943   6.560  71.297  1.00  0.00    -0.262 C  
HETATM   16  H   UNL     1     -10.441   4.867  70.535  1.00  0.00     0.000 HD 
HETATM   17  O   UNL     1      -6.027   6.353  70.522  1.00  0.00    -0.022 OA 
HETATM   18  C   UNL     1      -8.421   6.390  70.987  1.00  0.00    -0.127 A  
HETATM   19  O   UNL     1     -11.133   5.497  70.371  1.00  0.00    -0.217 OA 
ENDROOT
BRANCH   7  20
HETATM   20  C   UNL     1     -10.901  10.176  69.801  1.00  0.00    -0.320 A  
HETATM   21  C   UNL     1     -11.607  12.049  68.378  1.00  0.00    -0.311 A  
HETATM   22  C   UNL     1     -11.456  11.455  69.637  1.00  0.00    -0.380 A  
HETATM   23  C   UNL     1     -10.701  10.015  67.385  1.00  0.00    -0.274 A  
HETATM   24  C   UNL     1     -10.556   9.456  68.659  1.00  0.00    -0.230 A  
HETATM   25  C   UNL     1     -11.235  11.316  67.233  1.00  0.00    -0.296 A  
BRANCH  23  26
HETATM   26  O   UNL     1     -10.367   9.329  66.238  1.00  0.00    -0.240 OA 
HETATM   27  C   UNL     1      -8.985   9.027  66.066  1.00  0.00    -0.185 C  
ENDBRANCH  23  26
BRANCH  25  28
HETATM   28  O   UNL     1     -11.256  11.781  65.938  1.00  0.00    -0.324 OA 
HETATM   29  C   UNL     1     -10.180  12.603  65.508  1.00  0.00    -0.281 C  
ENDBRANCH  25  28
BRANCH  21  30
HETATM   30  O   UNL     1     -12.061  13.334  68.231  1.00  0.00    -0.333 OA 
HETATM   31  C   UNL     1     -12.148  14.160  69.389  1.00  0.00    -0.328 C  
ENDBRANCH  21  30
ENDBRANCH   7  20
TORSDOF 4
ENDMDL
MODEL       24
REMARK 921   NORMALIZED FREE ENERGY PREDICTED BY IDOCK:   -6.03 KCAL/MOL
REMARK 922        TOTAL FREE ENERGY PREDICTED BY IDOCK:   -8.19 KCAL/MOL
REMARK 923 INTER-LIGAND FREE ENERGY PREDICTED BY IDOCK:   -7.74 KCAL/MOL
REMARK 924 INTRA-LIGAND FREE ENERGY PREDICTED BY IDOCK:   -0.46 KCAL/MOL
REMARK 927      BINDING AFFINITY PREDICTED BY RF-SCORE:    0.00 PKD
ROOT
HETATM    1  C   UNL     1     -10.696  10.064  68.866  1.00  0.00    -0.243 C  
HETATM    2  C   UNL     1     -10.410   8.687  68.334  1.00  0.00    -0.201 C  
HETATM    3  O   UNL     1     -10.094   8.913  66.947  1.00  0.00    -0.224 OA 
HETATM    4  C   UNL     1     -10.620  10.113  66.536  1.00  0.00    -0.109 C  
HETATM    5  C   UNL     1     -11.350  10.738  67.686  1.00  0.00    -0.328 C  
HETATM    6  O   UNL     1     -10.583  10.528  65.389  1.00  0.00    -0.202 OA 
HETATM    7  C   UNL     1     -11.320  12.256  67.867  1.00  0.00    -0.356 C  
HETATM    8  C   UNL     1     -13.401  15.346  72.448  1.00  0.00    -0.458 C  
HETATM    9  C   UNL     1     -11.983  12.601  69.208  1.00  0.00    -0.301 A  
HETATM   10  O   UNL     1     -13.212  15.544  71.033  1.00  0.00    -0.498 OA 
HETATM   11  C   UNL     1     -12.403  13.927  69.408  1.00  0.00    -0.240 A  
HETATM   12  C   UNL     1     -12.850  14.291  70.655  1.00  0.00    -0.314 A  
HETATM   13  C   UNL     1     -12.054  11.644  70.281  1.00  0.00    -0.443 A  
HETATM   14  C   UNL     1     -12.934  13.383  71.678  1.00  0.00    -0.355 A  
HETATM   15  C   UNL     1     -11.581  10.198  70.096  1.00  0.00    -0.277 C  
HETATM   16  H   UNL     1     -11.356   9.843  71.973  1.00  0.00     0.000 HD 
HETATM   17  O   UNL     1     -13.366  13.954  72.836  1.00  0.00    -0.604 OA 
HETATM   18  C   UNL     1     -12.579  12.057  71.521  1.00  0.00    -0.279 A  
HETATM   19  O   UNL     1     -10.803   9.759  71.205  1.00  0.00    -0.334 OA 
ENDROOT
BRANCH   7  20
HETATM   20  C   UNL     1      -9.918  12.858  67.756  1.00  0.00    -0.230 A  
HETATM   21  C   UNL     1      -8.399  14.641  67.017  1.00  0.00    -0.185 A  
HETATM   22  C   UNL     1      -9.652  14.016  67.008  1.00  0.00    -0.253 A  
HETATM   23  C   UNL     1      -7.605  12.876  68.500  1.00  0.00    -0.120 A  
HETATM   24  C   UNL     1      -8.871  12.283  68.474  1.00  0.00    -0.068 A  
HETATM   25  C   UNL     1      -7.356  14.059  67.764  1.00  0.00    -0.167 A  
BRANCH  23  26
HETATM   26  O   UNL     1      -6.551  12.333  69.201  1.00  0.00    -0.095 OA 
HETATM   27  C   UNL     1      -6.628  10.934  69.467  1.00  0.00    -0.109 C  
ENDBRANCH  23  26
BRANCH  25  28
HETATM   28  O   UNL     1      -6.095  14.585  67.931  1.00  0.00    -0.141 OA 
HETATM   29  C   UNL     1      -5.893  15.508  68.991  1.00  0.00    -0.104 C  
ENDBRANCH  25  28
BRANCH  21  30
HETATM   30  O   UNL     1      -8.173  15.823  66.360  1.00  0.00    -0.272 OA 
HETATM   31  C   UNL     1      -8.669  17.027  66.939  1.00  0.00    -0.227 C  
ENDBRANCH  21  30
ENDBRANCH   7  20
TORSDOF 4
ENDMDL
MODEL       25
REMARK 921   NORMALIZED FREE ENERGY PREDICTED BY IDOCK:   -6.01 KCAL/MOL
REMARK 922        TOTAL FREE ENERGY PREDICTED BY IDOCK:   -8.16 KCAL/MOL
REMARK 923 INTER-LIGAND FREE ENERGY PREDICTED BY IDOCK:   -7.56 KCAL/MOL
REMARK 924 INTRA-LIGAND FREE ENERGY PREDICTED BY IDOCK:   -0.61 KCAL/MOL
REMARK 927      BINDING AFFINITY PREDICTED BY RF-SCORE:    0.00 PKD
ROOT
HETATM    1  C   UNL     1     -11.443  13.079  68.956  1.00  0.00    -0.353 C  
HETATM    2  C   UNL     1     -12.190  13.812  70.037  1.00  0.00    -0.342 C  
HETATM    3  O   UNL     1     -12.361  12.821  71.069  1.00  0.00    -0.356 OA 
HETATM    4  C   UNL     1     -12.250  11.562  70.533  1.00  0.00    -0.377 C  
HETATM    5  C   UNL     1     -12.010  11.685  69.059  1.00  0.00    -0.368 C  
HETATM    6  O   UNL     1     -12.433  10.527  71.154  1.00  0.00    -0.339 OA 
HETATM    7  C   UNL     1     -11.084  10.690  68.357  1.00  0.00    -0.328 C  
HETATM    8  C   UNL     1      -9.184  10.917  62.770  1.00  0.00    -0.339 C  
HETATM    9  C   UNL     1     -10.875  11.158  66.909  1.00  0.00    -0.333 A  
HETATM   10  O   UNL     1      -9.475   9.902  63.752  1.00  0.00    -0.268 OA 
HETATM   11  C   UNL     1     -10.383  10.220  65.985  1.00  0.00    -0.248 A  
HETATM   12  C   UNL     1     -10.039  10.658  64.729  1.00  0.00    -0.344 A  
HETATM   13  C   UNL     1     -11.044  12.536  66.530  1.00  0.00    -0.330 A  
HETATM   14  C   UNL     1     -10.209  11.966  64.355  1.00  0.00    -0.297 A  
HETATM   15  C   UNL     1     -11.557  13.582  67.526  1.00  0.00    -0.350 C  
HETATM   16  H   UNL     1     -10.867  15.097  66.563  1.00  0.00     0.000 HD 
HETATM   17  O   UNL     1      -9.774  12.198  63.086  1.00  0.00    -0.379 OA 
HETATM   18  C   UNL     1     -10.733  12.917  65.211  1.00  0.00    -0.318 A  
HETATM   19  O   UNL     1     -10.796  14.783  67.457  1.00  0.00    -0.274 OA 
ENDROOT
BRANCH   7  20
HETATM   20  C   UNL     1      -9.754  10.476  69.080  1.00  0.00    -0.226 A  
HETATM   21  C   UNL     1      -8.322   9.187  70.603  1.00  0.00    -0.205 A  
HETATM   22  C   UNL     1      -9.573   9.469  70.041  1.00  0.00    -0.272 A  
HETATM   23  C   UNL     1      -7.392  11.012  69.280  1.00  0.00    -0.113 A  
HETATM   24  C   UNL     1      -8.655  11.260  68.733  1.00  0.00    -0.109 A  
HETATM   25  C   UNL     1      -7.217   9.975  70.227  1.00  0.00    -0.147 A  
BRANCH  23  26
HETATM   26  O   UNL     1      -6.288  11.768  68.956  1.00  0.00    -0.065 OA 
HETATM   27  C   UNL     1      -5.890  11.744  67.588  1.00  0.00    -0.068 C  
ENDBRANCH  23  26
BRANCH  25  28
HETATM   28  O   UNL     1      -5.916   9.782  70.633  1.00  0.00    -0.060 OA 
HETATM   29  C   UNL     1      -5.133   8.827  69.930  1.00  0.00    -0.029 C  
ENDBRANCH  25  28
BRANCH  21  30
HETATM   30  O   UNL     1      -8.134   8.140  71.469  1.00  0.00    -0.101 OA 
HETATM   31  C   UNL     1      -8.723   8.217  72.764  1.00  0.00    -0.219 C  
ENDBRANCH  21  30
ENDBRANCH   7  20
TORSDOF 4
ENDMDL
MODEL       26
REMARK 921   NORMALIZED FREE ENERGY PREDICTED BY IDOCK:   -5.98 KCAL/MOL
REMARK 922        TOTAL FREE ENERGY PREDICTED BY IDOCK:   -8.13 KCAL/MOL
REMARK 923 INTER-LIGAND FREE ENERGY PREDICTED BY IDOCK:   -7.68 KCAL/MOL
REMARK 924 INTRA-LIGAND FREE ENERGY PREDICTED BY IDOCK:   -0.45 KCAL/MOL
REMARK 927      BINDING AFFINITY PREDICTED BY RF-SCORE:    0.00 PKD
ROOT
HETATM    1  C   UNL     1     -11.495  12.676  69.030  1.00  0.00    -0.354 C  
HETATM    2  C   UNL     1     -12.284  13.310  70.142  1.00  0.00    -0.306 C  
HETATM    3  O   UNL     1     -12.412  12.257  71.117  1.00  0.00    -0.343 OA 
HETATM    4  C   UNL     1     -12.236  11.036  70.513  1.00  0.00    -0.381 C  
HETATM    5  C   UNL     1     -11.994  11.253  69.050  1.00  0.00    -0.393 C  
HETATM    6  O   UNL     1     -12.372   9.961  71.074  1.00  0.00    -0.317 OA 
HETATM    7  C   UNL     1     -11.016  10.345  68.303  1.00  0.00    -0.321 C  
HETATM    8  C   UNL     1      -9.094  10.974  62.754  1.00  0.00    -0.337 C  
HETATM    9  C   UNL     1     -10.821  10.901  66.885  1.00  0.00    -0.307 A  
HETATM   10  O   UNL     1      -9.342   9.893  63.676  1.00  0.00    -0.272 OA 
HETATM   11  C   UNL     1     -10.278  10.041  65.914  1.00  0.00    -0.275 A  
HETATM   12  C   UNL     1      -9.948  10.565  64.688  1.00  0.00    -0.347 A  
HETATM   13  C   UNL     1     -11.055  12.289  66.581  1.00  0.00    -0.344 A  
HETATM   14  C   UNL     1     -10.180  11.882  64.386  1.00  0.00    -0.297 A  
HETATM   15  C   UNL     1     -11.625  13.252  67.629  1.00  0.00    -0.346 C  
HETATM   16  H   UNL     1     -11.005  14.850  66.756  1.00  0.00     0.000 HD 
HETATM   17  O   UNL     1      -9.749  12.205  63.135  1.00  0.00    -0.379 OA 
HETATM   18  C   UNL     1     -10.755  12.757  65.288  1.00  0.00    -0.319 A  
HETATM   19  O   UNL     1     -10.924  14.491  67.632  1.00  0.00    -0.274 OA 
ENDROOT
BRANCH   7  20
HETATM   20  C   UNL     1      -9.682  10.155  69.025  1.00  0.00    -0.212 A  
HETATM   21  C   UNL     1      -7.391  10.883  69.530  1.00  0.00    -0.093 A  
HETATM   22  C   UNL     1      -8.566  10.970  68.774  1.00  0.00    -0.144 A  
HETATM   23  C   UNL     1      -8.414   9.062  70.787  1.00  0.00    -0.200 A  
HETATM   24  C   UNL     1      -9.576   9.183  70.018  1.00  0.00    -0.218 A  
HETATM   25  C   UNL     1      -7.307   9.909  70.544  1.00  0.00    -0.068 A  
BRANCH  23  26
HETATM   26  O   UNL     1      -8.281   8.113  71.775  1.00  0.00    -0.108 OA 
HETATM   27  C   UNL     1      -9.094   8.292  72.932  1.00  0.00    -0.262 C  
ENDBRANCH  23  26
BRANCH  25  28
HETATM   28  O   UNL     1      -6.255   9.743  71.415  1.00  0.00    -0.250 OA 
HETATM   29  C   UNL     1      -5.130   8.999  70.967  1.00  0.00    -0.028 C  
ENDBRANCH  25  28
BRANCH  21  30
HETATM   30  O   UNL     1      -6.342  11.746  69.342  1.00  0.00    -0.092 OA 
HETATM   31  C   UNL     1      -6.605  13.016  68.750  1.00  0.00    -0.096 C  
ENDBRANCH  21  30
ENDBRANCH   7  20
TORSDOF 4
ENDMDL
MODEL       27
REMARK 921   NORMALIZED FREE ENERGY PREDICTED BY IDOCK:   -5.96 KCAL/MOL
REMARK 922        TOTAL FREE ENERGY PREDICTED BY IDOCK:   -8.11 KCAL/MOL
REMARK 923 INTER-LIGAND FREE ENERGY PREDICTED BY IDOCK:   -7.99 KCAL/MOL
REMARK 924 INTRA-LIGAND FREE ENERGY PREDICTED BY IDOCK:   -0.11 KCAL/MOL
REMARK 927      BINDING AFFINITY PREDICTED BY RF-SCORE:    0.00 PKD
ROOT
HETATM    1  C   UNL     1     -11.599  14.870  69.633  1.00  0.00    -0.337 C  
HETATM    2  C   UNL     1     -11.266  16.336  69.608  1.00  0.00    -0.311 C  
HETATM    3  O   UNL     1     -10.144  16.419  68.708  1.00  0.00    -0.223 OA 
HETATM    4  C   UNL     1      -9.525  15.196  68.617  1.00  0.00    -0.206 C  
HETATM    5  C   UNL     1     -10.240  14.227  69.509  1.00  0.00     0.152 C  
HETATM    6  O   UNL     1      -8.497  14.986  67.994  1.00  0.00    -0.143 OA 
HETATM    7  C   UNL     1     -10.388  12.768  69.076  1.00  0.00     0.040 C  
HETATM    8  C   UNL     1     -13.580   8.567  71.730  1.00  0.00    -0.388 C  
HETATM    9  C   UNL     1     -11.310  12.055  70.076  1.00  0.00    -0.054 A  
HETATM   10  O   UNL     1     -12.378   8.645  70.936  1.00  0.00    -0.202 OA 
HETATM   11  C   UNL     1     -11.286  10.649  70.099  1.00  0.00    -0.402 A  
HETATM   12  C   UNL     1     -12.215   9.992  70.869  1.00  0.00    -0.346 A  
HETATM   13  C   UNL     1     -12.267  12.781  70.870  1.00  0.00    -0.284 A  
HETATM   14  C   UNL     1     -13.120  10.675  71.639  1.00  0.00    -0.450 A  
HETATM   15  C   UNL     1     -12.329  14.312  70.845  1.00  0.00    -0.359 C  
HETATM   16  H   UNL     1     -14.127  14.428  71.517  1.00  0.00     0.000 HD 
HETATM   17  O   UNL     1     -13.970   9.839  72.294  1.00  0.00    -0.270 OA 
HETATM   18  C   UNL     1     -13.154  12.056  71.688  1.00  0.00    -0.422 A  
HETATM   19  O   UNL     1     -13.671  14.777  70.760  1.00  0.00    -0.258 OA 
ENDROOT
BRANCH   7  20
HETATM   20  C   UNL     1     -10.878  12.603  67.637  1.00  0.00    -0.248 A  
HETATM   21  C   UNL     1     -12.084  13.442  65.670  1.00  0.00    -0.434 A  
HETATM   22  C   UNL     1     -11.745  13.522  67.026  1.00  0.00    -0.424 A  
HETATM   23  C   UNL     1     -10.725  11.424  65.517  1.00  0.00    -0.253 A  
HETATM   24  C   UNL     1     -10.401  11.539  66.873  1.00  0.00    -0.258 A  
HETATM   25  C   UNL     1     -11.578  12.373  64.905  1.00  0.00    -0.343 A  
BRANCH  23  26
HETATM   26  O   UNL     1     -10.268  10.386  64.736  1.00  0.00    -0.345 OA 
HETATM   27  C   UNL     1      -9.546   9.361  65.414  1.00  0.00    -0.226 C  
ENDBRANCH  23  26
BRANCH  25  28
HETATM   28  O   UNL     1     -11.760  12.194  63.553  1.00  0.00    -0.452 OA 
HETATM   29  C   UNL     1     -13.035  11.757  63.104  1.00  0.00     0.208 C  
ENDBRANCH  25  28
BRANCH  21  30
HETATM   30  O   UNL     1     -12.855  14.397  65.057  1.00  0.00    -0.631 OA 
HETATM   31  C   UNL     1     -12.207  15.378  64.252  1.00  0.00    -0.126 C  
ENDBRANCH  21  30
ENDBRANCH   7  20
TORSDOF 4
ENDMDL
MODEL       28
REMARK 921   NORMALIZED FREE ENERGY PREDICTED BY IDOCK:   -5.95 KCAL/MOL
REMARK 922        TOTAL FREE ENERGY PREDICTED BY IDOCK:   -8.09 KCAL/MOL
REMARK 923 INTER-LIGAND FREE ENERGY PREDICTED BY IDOCK:   -7.36 KCAL/MOL
REMARK 924 INTRA-LIGAND FREE ENERGY PREDICTED BY IDOCK:   -0.73 KCAL/MOL
REMARK 927      BINDING AFFINITY PREDICTED BY RF-SCORE:    0.00 PKD
ROOT
HETATM    1  C   UNL     1     -11.329  13.952  69.593  1.00  0.00    -0.259 C  
HETATM    2  C   UNL     1     -12.219  13.030  70.381  1.00  0.00    -0.310 C  
HETATM    3  O   UNL     1     -12.240  11.820  69.598  1.00  0.00    -0.262 OA 
HETATM    4  C   UNL     1     -11.898  12.098  68.297  1.00  0.00    -0.301 C  
HETATM    5  C   UNL     1     -11.646  13.570  68.169  1.00  0.00    -0.368 C  
HETATM    6  O   UNL     1     -11.913  11.283  67.390  1.00  0.00    -0.581 OA 
HETATM    7  C   UNL     1     -10.544  14.070  67.234  1.00  0.00    -0.273 C  
HETATM    8  C   UNL     1      -8.574  19.611  66.689  1.00  0.00    -0.343 C  
HETATM    9  C   UNL     1     -10.384  15.584  67.437  1.00  0.00    -0.266 A  
HETATM   10  O   UNL     1      -8.708  18.444  65.852  1.00  0.00    -0.497 OA 
HETATM   11  C   UNL     1      -9.713  16.310  66.437  1.00  0.00    -0.310 A  
HETATM   12  C   UNL     1      -9.419  17.631  66.674  1.00  0.00    -0.279 A  
HETATM   13  C   UNL     1     -10.781  16.227  68.663  1.00  0.00    -0.309 A  
HETATM   14  C   UNL     1      -9.806  18.254  67.832  1.00  0.00    -0.317 A  
HETATM   15  C   UNL     1     -11.493  15.452  69.777  1.00  0.00    -0.324 C  
HETATM   16  H   UNL     1     -11.055  16.703  71.171  1.00  0.00     0.000 HD 
HETATM   17  O   UNL     1      -9.386  19.548  67.883  1.00  0.00    -0.314 OA 
HETATM   18  C   UNL     1     -10.509  17.598  68.825  1.00  0.00    -0.287 A  
HETATM   19  O   UNL     1     -10.953  15.766  71.056  1.00  0.00    -0.316 OA 
ENDROOT
BRANCH   7  20
HETATM   20  C   UNL     1      -9.216  13.333  67.403  1.00  0.00    -0.216 A  
HETATM   21  C   UNL     1      -7.178  12.845  68.685  1.00  0.00    -0.098 A  
HETATM   22  C   UNL     1      -8.327  13.611  68.454  1.00  0.00    -0.147 A  
HETATM   23  C   UNL     1      -7.751  11.517  66.722  1.00  0.00    -0.136 A  
HETATM   24  C   UNL     1      -8.895  12.298  66.526  1.00  0.00    -0.128 A  
HETATM   25  C   UNL     1      -6.878  11.790  67.801  1.00  0.00    -0.090 A  
BRANCH  23  26
HETATM   26  O   UNL     1      -7.408  10.488  65.874  1.00  0.00    -0.137 OA 
HETATM   27  C   UNL     1      -8.404   9.490  65.662  1.00  0.00    -0.126 C  
ENDBRANCH  23  26
BRANCH  25  28
HETATM   28  O   UNL     1      -5.830  10.906  67.931  1.00  0.00    -0.046 OA 
HETATM   29  C   UNL     1      -5.987   9.813  68.825  1.00  0.00    -0.038 C  
ENDBRANCH  25  28
BRANCH  21  30
HETATM   30  O   UNL     1      -6.366  13.064  69.768  1.00  0.00    -0.119 OA 
HETATM   31  C   UNL     1      -6.053  14.408  70.122  1.00  0.00    -0.160 C  
ENDBRANCH  21  30
ENDBRANCH   7  20
TORSDOF 4
ENDMDL
MODEL       29
REMARK 921   NORMALIZED FREE ENERGY PREDICTED BY IDOCK:   -5.92 KCAL/MOL
REMARK 922        TOTAL FREE ENERGY PREDICTED BY IDOCK:   -8.06 KCAL/MOL
REMARK 923 INTER-LIGAND FREE ENERGY PREDICTED BY IDOCK:   -7.34 KCAL/MOL
REMARK 924 INTRA-LIGAND FREE ENERGY PREDICTED BY IDOCK:   -0.72 KCAL/MOL
REMARK 927      BINDING AFFINITY PREDICTED BY RF-SCORE:    0.00 PKD
ROOT
HETATM    1  C   UNL     1      -7.309   9.550  67.183  1.00  0.00    -0.088 C  
HETATM    2  C   UNL     1      -5.906   9.114  67.506  1.00  0.00    -0.046 C  
HETATM    3  O   UNL     1      -5.795   9.333  68.926  1.00  0.00    -0.040 OA 
HETATM    4  C   UNL     1      -6.734  10.249  69.333  1.00  0.00    -0.063 C  
HETATM    5  C   UNL     1      -7.518  10.699  68.137  1.00  0.00    -0.090 C  
HETATM    6  O   UNL     1      -6.822  10.693  70.466  1.00  0.00    -0.309 OA 
HETATM    7  C   UNL     1      -9.011  10.996  68.280  1.00  0.00    -0.155 C  
HETATM    8  C   UNL     1     -12.841  12.186  63.945  1.00  0.00    -0.306 C  
HETATM    9  C   UNL     1      -9.593  11.252  66.882  1.00  0.00    -0.210 A  
HETATM   10  O   UNL     1     -12.675  12.523  65.337  1.00  0.00    -0.624 OA 
HETATM   11  C   UNL     1     -10.835  11.905  66.800  1.00  0.00    -0.307 A  
HETATM   12  C   UNL     1     -11.445  12.000  65.573  1.00  0.00    -0.313 A  
HETATM   13  C   UNL     1      -8.965  10.727  65.697  1.00  0.00    -0.205 A  
HETATM   14  C   UNL     1     -10.848  11.515  64.437  1.00  0.00    -0.342 A  
HETATM   15  C   UNL     1      -7.623   9.990  65.763  1.00  0.00    -0.120 C  
HETATM   16  H   UNL     1      -7.834   9.087  64.078  1.00  0.00     0.000 HD 
HETATM   17  O   UNL     1     -11.633  11.677  63.337  1.00  0.00    -0.395 OA 
HETATM   18  C   UNL     1      -9.607  10.907  64.457  1.00  0.00    -0.312 A  
HETATM   19  O   UNL     1      -7.638   8.811  64.966  1.00  0.00    -0.094 OA 
ENDROOT
BRANCH   7  20
HETATM   20  C   UNL     1      -9.785   9.907  69.024  1.00  0.00    -0.195 A  
HETATM   21  C   UNL     1     -11.234   9.182  70.869  1.00  0.00    -0.295 A  
HETATM   22  C   UNL     1     -10.416  10.139  70.256  1.00  0.00    -0.284 A  
HETATM   23  C   UNL     1     -10.734   7.670  69.024  1.00  0.00    -0.119 A  
HETATM   24  C   UNL     1      -9.930   8.652  68.435  1.00  0.00    -0.204 A  
HETATM   25  C   UNL     1     -11.388   7.925  70.252  1.00  0.00    -0.150 A  
BRANCH  23  26
HETATM   26  O   UNL     1     -10.899   6.421  68.466  1.00  0.00    -0.258 OA 
HETATM   27  C   UNL     1     -11.021   6.379  67.046  1.00  0.00    -0.389 C  
ENDBRANCH  23  26
BRANCH  25  28
HETATM   28  O   UNL     1     -12.208   6.910  70.688  1.00  0.00    -0.365 OA 
HETATM   29  C   UNL     1     -11.811   6.182  71.842  1.00  0.00    -0.257 C  
ENDBRANCH  25  28
BRANCH  21  30
HETATM   30  O   UNL     1     -11.923   9.450  72.024  1.00  0.00    -0.355 OA 
HETATM   31  C   UNL     1     -13.238   9.988  71.921  1.00  0.00    -0.452 C  
ENDBRANCH  21  30
ENDBRANCH   7  20
TORSDOF 4
ENDMDL
MODEL       30
REMARK 921   NORMALIZED FREE ENERGY PREDICTED BY IDOCK:   -5.83 KCAL/MOL
REMARK 922        TOTAL FREE ENERGY PREDICTED BY IDOCK:   -7.94 KCAL/MOL
REMARK 923 INTER-LIGAND FREE ENERGY PREDICTED BY IDOCK:   -7.17 KCAL/MOL
REMARK 924 INTRA-LIGAND FREE ENERGY PREDICTED BY IDOCK:   -0.77 KCAL/MOL
REMARK 927      BINDING AFFINITY PREDICTED BY RF-SCORE:    0.00 PKD
ROOT
HETATM    1  C   UNL     1      -7.052  10.633  68.215  1.00  0.00    -0.081 C  
HETATM    2  C   UNL     1      -5.774  10.964  67.494  1.00  0.00    -0.044 C  
HETATM    3  O   UNL     1      -6.176  11.074  66.115  1.00  0.00    -0.130 OA 
HETATM    4  C   UNL     1      -7.353  10.395  65.914  1.00  0.00    -0.135 C  
HETATM    5  C   UNL     1      -7.777   9.772  67.209  1.00  0.00    -0.095 C  
HETATM    6  O   UNL     1      -7.887  10.244  64.828  1.00  0.00    -0.149 OA 
HETATM    7  C   UNL     1      -9.263   9.694  67.561  1.00  0.00    -0.149 C  
HETATM    8  C   UNL     1     -11.629   7.976  72.692  1.00  0.00    -0.387 C  
HETATM    9  C   UNL     1      -9.396   9.187  69.005  1.00  0.00    -0.151 A  
HETATM   10  O   UNL     1     -11.992   7.959  71.297  1.00  0.00    -0.293 OA 
HETATM   11  C   UNL     1     -10.645   8.683  69.407  1.00  0.00    -0.207 A  
HETATM   12  C   UNL     1     -10.829   8.375  70.733  1.00  0.00    -0.224 A  
HETATM   13  C   UNL     1      -8.329   9.342  69.959  1.00  0.00    -0.176 A  
HETATM   14  C   UNL     1      -9.815   8.506  71.646  1.00  0.00    -0.247 A  
HETATM   15  C   UNL     1      -6.966   9.910  69.550  1.00  0.00    -0.070 C  
HETATM   16  H   UNL     1      -6.441  10.411  71.331  1.00  0.00     0.000 HD 
HETATM   17  O   UNL     1     -10.215   8.183  72.907  1.00  0.00    -0.307 OA 
HETATM   18  C   UNL     1      -8.555   8.952  71.293  1.00  0.00    -0.259 A  
HETATM   19  O   UNL     1      -6.495  10.863  70.497  1.00  0.00    -0.301 OA 
ENDROOT
BRANCH   7  20
HETATM   20  C   UNL     1     -10.012  11.011  67.352  1.00  0.00    -0.209 A  
HETATM   21  C   UNL     1     -10.298  13.411  67.788  1.00  0.00    -0.241 A  
HETATM   22  C   UNL     1      -9.705  12.175  68.074  1.00  0.00    -0.203 A  
HETATM   23  C   UNL     1     -11.612  12.304  66.059  1.00  0.00    -0.393 A  
HETATM   24  C   UNL     1     -10.993  11.087  66.365  1.00  0.00    -0.202 A  
HETATM   25  C   UNL     1     -11.273  13.476  66.774  1.00  0.00    -0.310 A  
BRANCH  23  26
HETATM   26  O   UNL     1     -12.583  12.411  65.088  1.00  0.00    -0.622 OA 
HETATM   27  C   UNL     1     -12.162  12.169  63.748  1.00  0.00    -0.531 C  
ENDBRANCH  23  26
BRANCH  25  28
HETATM   28  O   UNL     1     -11.894  14.621  66.328  1.00  0.00    -0.364 OA 
HETATM   29  C   UNL     1     -11.238  15.390  65.330  1.00  0.00    -0.310 C  
ENDBRANCH  25  28
BRANCH  21  30
HETATM   30  O   UNL     1      -9.924  14.562  68.433  1.00  0.00    -0.227 OA 
HETATM   31  C   UNL     1      -8.577  15.009  68.298  1.00  0.00    -0.156 C  
ENDBRANCH  21  30
ENDBRANCH   7  20
TORSDOF 4
ENDMDL
MODEL       31
REMARK 921   NORMALIZED FREE ENERGY PREDICTED BY IDOCK:   -5.79 KCAL/MOL
REMARK 922        TOTAL FREE ENERGY PREDICTED BY IDOCK:   -7.90 KCAL/MOL
REMARK 923 INTER-LIGAND FREE ENERGY PREDICTED BY IDOCK:   -7.20 KCAL/MOL
REMARK 924 INTRA-LIGAND FREE ENERGY PREDICTED BY IDOCK:   -0.70 KCAL/MOL
REMARK 927      BINDING AFFINITY PREDICTED BY RF-SCORE:    0.00 PKD
ROOT
HETATM    1  C   UNL     1     -11.582  13.723  66.686  1.00  0.00    -0.392 C  
HETATM    2  C   UNL     1     -12.859  13.839  65.899  1.00  0.00    -0.315 C  
HETATM    3  O   UNL     1     -12.839  12.683  65.039  1.00  0.00    -0.765 OA 
HETATM    4  C   UNL     1     -11.552  12.226  64.898  1.00  0.00    -0.342 C  
HETATM    5  C   UNL     1     -10.635  13.117  65.680  1.00  0.00    -0.289 C  
HETATM    6  O   UNL     1     -11.220  11.312  64.160  1.00  0.00    -0.321 OA 
HETATM    7  C   UNL     1      -9.425  12.517  66.395  1.00  0.00    -0.233 C  
HETATM    8  C   UNL     1      -5.770  15.258  70.138  1.00  0.00    -0.135 C  
HETATM    9  C   UNL     1      -8.778  13.609  67.259  1.00  0.00    -0.223 A  
HETATM   10  O   UNL     1      -5.699  14.180  69.183  1.00  0.00    -0.083 OA 
HETATM   11  C   UNL     1      -7.459  13.399  67.699  1.00  0.00    -0.182 A  
HETATM   12  C   UNL     1      -6.921  14.285  68.600  1.00  0.00    -0.105 A  
HETATM   13  C   UNL     1      -9.528  14.747  67.722  1.00  0.00    -0.204 A  
HETATM   14  C   UNL     1      -7.624  15.379  69.035  1.00  0.00    -0.177 A  
HETATM   15  C   UNL     1     -10.975  14.986  67.276  1.00  0.00    -0.326 C  
HETATM   16  H   UNL     1     -11.422  16.149  68.741  1.00  0.00     0.000 HD 
HETATM   17  O   UNL     1      -6.925  16.106  69.950  1.00  0.00    -0.102 OA 
HETATM   18  C   UNL     1      -8.905  15.656  68.598  1.00  0.00    -0.201 A  
HETATM   19  O   UNL     1     -11.802  15.360  68.372  1.00  0.00    -0.347 OA 
ENDROOT
BRANCH   7  20
HETATM   20  C   UNL     1      -9.754  11.268  67.214  1.00  0.00    -0.192 A  
HETATM   21  C   UNL     1     -10.712  10.198  69.207  1.00  0.00    -0.231 A  
HETATM   22  C   UNL     1     -10.286  11.337  68.512  1.00  0.00    -0.214 A  
HETATM   23  C   UNL     1      -9.994   8.852  67.306  1.00  0.00    -0.216 A  
HETATM   24  C   UNL     1      -9.586  10.010  66.637  1.00  0.00    -0.234 A  
HETATM   25  C   UNL     1     -10.555   8.936  68.602  1.00  0.00    -0.147 A  
BRANCH  23  26
HETATM   26  O   UNL     1      -9.843   7.596  66.761  1.00  0.00    -0.207 OA 
HETATM   27  C   UNL     1      -8.505   7.117  66.647  1.00  0.00    -0.121 C  
ENDBRANCH  23  26
BRANCH  25  28
HETATM   28  O   UNL     1     -10.984   7.736  69.121  1.00  0.00    -0.108 OA 
HETATM   29  C   UNL     1     -10.194   7.125  70.131  1.00  0.00    -0.195 C  
ENDBRANCH  25  28
BRANCH  21  30
HETATM   30  O   UNL     1     -11.317  10.282  70.434  1.00  0.00    -0.287 OA 
HETATM   31  C   UNL     1     -12.718  10.540  70.485  1.00  0.00    -0.305 C  
ENDBRANCH  21  30
ENDBRANCH   7  20
TORSDOF 4
ENDMDL
MODEL       32
REMARK 921   NORMALIZED FREE ENERGY PREDICTED BY IDOCK:   -5.79 KCAL/MOL
REMARK 922        TOTAL FREE ENERGY PREDICTED BY IDOCK:   -7.90 KCAL/MOL
REMARK 923 INTER-LIGAND FREE ENERGY PREDICTED BY IDOCK:   -7.44 KCAL/MOL
REMARK 924 INTRA-LIGAND FREE ENERGY PREDICTED BY IDOCK:   -0.45 KCAL/MOL
REMARK 927      BINDING AFFINITY PREDICTED BY RF-SCORE:    0.00 PKD
ROOT
HETATM    1  C   UNL     1     -12.084   7.458  70.936  1.00  0.00    -0.290 C  
HETATM    2  C   UNL     1     -13.515   7.088  71.216  1.00  0.00    -0.172 C  
HETATM    3  O   UNL     1     -14.162   8.357  71.430  1.00  0.00    -0.388 OA 
HETATM    4  C   UNL     1     -13.231   9.305  71.778  1.00  0.00    -0.403 C  
HETATM    5  C   UNL     1     -11.880   8.660  71.825  1.00  0.00    -0.404 C  
HETATM    6  O   UNL     1     -13.499  10.451  72.101  1.00  0.00    -0.396 OA 
HETATM    7  C   UNL     1     -10.649   9.445  71.369  1.00  0.00    -0.381 C  
HETATM    8  C   UNL     1      -5.157   7.386  70.680  1.00  0.00    -0.023 C  
HETATM    9  C   UNL     1      -9.445   8.493  71.347  1.00  0.00    -0.279 A  
HETATM   10  O   UNL     1      -5.787   8.637  71.025  1.00  0.00    -0.033 OA 
HETATM   11  C   UNL     1      -8.160   9.065  71.329  1.00  0.00    -0.146 A  
HETATM   12  C   UNL     1      -7.079   8.237  71.148  1.00  0.00    -0.059 A  
HETATM   13  C   UNL     1      -9.611   7.069  71.211  1.00  0.00    -0.164 A  
HETATM   14  C   UNL     1      -7.227   6.880  71.032  1.00  0.00    -0.076 A  
HETATM   15  C   UNL     1     -11.002   6.424  71.204  1.00  0.00    -0.275 C  
HETATM   16  H   UNL     1     -10.438   4.798  70.346  1.00  0.00     0.000 HD 
HETATM   17  O   UNL     1      -6.038   6.250  70.824  1.00  0.00    -0.035 OA 
HETATM   18  C   UNL     1      -8.463   6.263  71.090  1.00  0.00    -0.124 A  
HETATM   19  O   UNL     1     -11.114   5.443  70.179  1.00  0.00    -0.170 OA 
ENDROOT
BRANCH   7  20
HETATM   20  C   UNL     1     -10.837  10.153  70.027  1.00  0.00    -0.361 A  
HETATM   21  C   UNL     1     -10.906  10.118  67.572  1.00  0.00    -0.290 A  
HETATM   22  C   UNL     1     -10.605   9.513  68.799  1.00  0.00    -0.240 A  
HETATM   23  C   UNL     1     -11.622  12.098  68.800  1.00  0.00    -0.327 A  
HETATM   24  C   UNL     1     -11.319  11.461  70.008  1.00  0.00    -0.260 A  
HETATM   25  C   UNL     1     -11.411  11.433  67.570  1.00  0.00    -0.292 A  
BRANCH  23  26
HETATM   26  O   UNL     1     -12.101  13.388  68.749  1.00  0.00    -0.337 OA 
HETATM   27  C   UNL     1     -12.224  14.063  69.999  1.00  0.00    -0.352 C  
ENDBRANCH  23  26
BRANCH  25  28
HETATM   28  O   UNL     1     -11.818  12.136  66.459  1.00  0.00    -0.569 OA 
HETATM   29  C   UNL     1     -10.943  13.127  65.939  1.00  0.00    -0.271 C  
ENDBRANCH  25  28
BRANCH  21  30
HETATM   30  O   UNL     1     -10.766   9.452  66.382  1.00  0.00    -0.064 OA 
HETATM   31  C   UNL     1      -9.480   9.420  65.769  1.00  0.00    -0.259 C  
ENDBRANCH  21  30
ENDBRANCH   7  20
TORSDOF 4
ENDMDL
MODEL       33
REMARK 921   NORMALIZED FREE ENERGY PREDICTED BY IDOCK:   -5.75 KCAL/MOL
REMARK 922        TOTAL FREE ENERGY PREDICTED BY IDOCK:   -7.84 KCAL/MOL
REMARK 923 INTER-LIGAND FREE ENERGY PREDICTED BY IDOCK:   -7.01 KCAL/MOL
REMARK 924 INTRA-LIGAND FREE ENERGY PREDICTED BY IDOCK:   -0.83 KCAL/MOL
REMARK 927      BINDING AFFINITY PREDICTED BY RF-SCORE:    0.00 PKD
ROOT
HETATM    1  C   UNL     1     -11.734  12.868  64.612  1.00  0.00    -0.407 C  
HETATM    2  C   UNL     1     -12.389  12.097  63.499  1.00  0.00    -0.574 C  
HETATM    3  O   UNL     1     -11.506  10.978  63.288  1.00  0.00     0.160 OA 
HETATM    4  C   UNL     1     -10.255  11.272  63.772  1.00  0.00    -0.377 C  
HETATM    5  C   UNL     1     -10.267  12.664  64.326  1.00  0.00    -0.358 C  
HETATM    6  O   UNL     1      -9.281  10.546  63.656  1.00  0.00    -0.221 OA 
HETATM    7  C   UNL     1      -9.440  12.991  65.570  1.00  0.00     0.142 C  
HETATM    8  C   UNL     1      -9.480  18.024  68.660  1.00  0.00    -0.309 C  
HETATM    9  C   UNL     1      -9.781  14.419  66.020  1.00  0.00    -0.320 A  
HETATM   10  O   UNL     1      -8.540  16.975  68.352  1.00  0.00    -0.226 OA 
HETATM   11  C   UNL     1      -8.885  15.060  66.895  1.00  0.00    -0.285 A  
HETATM   12  C   UNL     1      -9.250  16.270  67.433  1.00  0.00    -0.211 A  
HETATM   13  C   UNL     1     -11.033  15.040  65.676  1.00  0.00    -0.357 A  
HETATM   14  C   UNL     1     -10.434  16.874  67.099  1.00  0.00    -0.296 A  
HETATM   15  C   UNL     1     -12.036  14.352  64.743  1.00  0.00    -0.452 C  
HETATM   16  H   UNL     1     -13.554  15.380  65.326  1.00  0.00     0.000 HD 
HETATM   17  O   UNL     1     -10.618  18.046  67.769  1.00  0.00    -0.401 OA 
HETATM   18  C   UNL     1     -11.327  16.309  66.209  1.00  0.00     0.459 A  
HETATM   19  O   UNL     1     -13.365  14.453  65.244  1.00  0.00    -0.574 OA 
ENDROOT
BRANCH   7  20
HETATM   20  C   UNL     1      -9.618  11.982  66.706  1.00  0.00    -0.215 A  
HETATM   21  C   UNL     1     -11.012  10.883  68.403  1.00  0.00    -0.237 A  
HETATM   22  C   UNL     1     -10.801  11.894  67.457  1.00  0.00    -0.283 A  
HETATM   23  C   UNL     1      -8.774  10.051  67.915  1.00  0.00    -0.125 A  
HETATM   24  C   UNL     1      -8.600  11.068  66.971  1.00  0.00    -0.140 A  
HETATM   25  C   UNL     1      -9.981   9.955  68.645  1.00  0.00    -0.164 A  
BRANCH  23  26
HETATM   26  O   UNL     1      -7.787   9.132  68.198  1.00  0.00    -0.098 OA 
HETATM   27  C   UNL     1      -7.341   8.333  67.105  1.00  0.00    -0.088 C  
ENDBRANCH  23  26
BRANCH  25  28
HETATM   28  O   UNL     1     -10.059   8.868  69.487  1.00  0.00    -0.187 OA 
HETATM   29  C   UNL     1     -10.660   7.681  68.990  1.00  0.00    -0.174 C  
ENDBRANCH  25  28
BRANCH  21  30
HETATM   30  O   UNL     1     -12.206  10.746  69.064  1.00  0.00    -0.421 OA 
HETATM   31  C   UNL     1     -12.398  11.471  70.276  1.00  0.00    -0.273 C  
ENDBRANCH  21  30
ENDBRANCH   7  20
TORSDOF 4
ENDMDL
MODEL       34
REMARK 921   NORMALIZED FREE ENERGY PREDICTED BY IDOCK:   -5.74 KCAL/MOL
REMARK 922        TOTAL FREE ENERGY PREDICTED BY IDOCK:   -7.84 KCAL/MOL
REMARK 923 INTER-LIGAND FREE ENERGY PREDICTED BY IDOCK:   -7.21 KCAL/MOL
REMARK 924 INTRA-LIGAND FREE ENERGY PREDICTED BY IDOCK:   -0.63 KCAL/MOL
REMARK 927      BINDING AFFINITY PREDICTED BY RF-SCORE:    0.00 PKD
ROOT
HETATM    1  C   UNL     1     -10.389  11.712  65.453  1.00  0.00    -0.313 C  
HETATM    2  C   UNL     1     -10.497  10.680  64.363  1.00  0.00    -0.177 C  
HETATM    3  O   UNL     1      -9.576   9.650  64.772  1.00  0.00    -0.265 OA 
HETATM    4  C   UNL     1      -8.650  10.169  65.644  1.00  0.00    -0.155 C  
HETATM    5  C   UNL     1      -8.931  11.628  65.834  1.00  0.00    -0.111 C  
HETATM    6  O   UNL     1      -7.697   9.550  66.090  1.00  0.00    -0.099 OA 
HETATM    7  C   UNL     1      -8.711  12.270  67.204  1.00  0.00    -0.193 C  
HETATM    8  C   UNL     1     -10.180  17.745  68.859  1.00  0.00    -0.345 C  
HETATM    9  C   UNL     1      -9.248  13.708  67.161  1.00  0.00    -0.244 A  
HETATM   10  O   UNL     1      -9.168  16.772  69.188  1.00  0.00    -0.239 OA 
HETATM   11  C   UNL     1      -8.819  14.596  68.163  1.00  0.00    -0.173 A  
HETATM   12  C   UNL     1      -9.408  15.834  68.236  1.00  0.00    -0.193 A  
HETATM   13  C   UNL     1     -10.258  14.107  66.217  1.00  0.00    -0.301 A  
HETATM   14  C   UNL     1     -10.361  16.228  67.332  1.00  0.00    -0.285 A  
HETATM   15  C   UNL     1     -10.759  13.150  65.130  1.00  0.00    -0.315 C  
HETATM   16  H   UNL     1     -12.410  14.087  64.816  1.00  0.00     0.000 HD 
HETATM   17  O   UNL     1     -10.841  17.473  67.602  1.00  0.00    -0.343 OA 
HETATM   18  C   UNL     1     -10.783  15.411  66.300  1.00  0.00    -0.312 A  
HETATM   19  O   UNL     1     -12.178  13.188  65.017  1.00  0.00    -0.388 OA 
ENDROOT
BRANCH   7  20
HETATM   20  C   UNL     1      -9.319  11.473  68.359  1.00  0.00    -0.194 A  
HETATM   21  C   UNL     1     -11.242  10.827  69.744  1.00  0.00    -0.297 A  
HETATM   22  C   UNL     1     -10.647  11.649  68.779  1.00  0.00    -0.241 A  
HETATM   23  C   UNL     1      -9.117   9.651  69.954  1.00  0.00    -0.225 A  
HETATM   24  C   UNL     1      -8.557  10.485  68.981  1.00  0.00    -0.160 A  
HETATM   25  C   UNL     1     -10.465   9.820  70.349  1.00  0.00    -0.297 A  
BRANCH  23  26
HETATM   26  O   UNL     1      -8.390   8.665  70.585  1.00  0.00    -0.118 OA 
HETATM   27  C   UNL     1      -7.911   7.609  69.756  1.00  0.00    -0.110 C  
ENDBRANCH  23  26
BRANCH  25  28
HETATM   28  O   UNL     1     -10.918   8.890  71.257  1.00  0.00    -0.247 OA 
HETATM   29  C   UNL     1     -11.647   7.775  70.762  1.00  0.00    -0.255 C  
ENDBRANCH  25  28
BRANCH  21  30
HETATM   30  O   UNL     1     -12.566  10.944  70.080  1.00  0.00    -0.307 OA 
HETATM   31  C   UNL     1     -12.909  11.717  71.227  1.00  0.00    -0.308 C  
ENDBRANCH  21  30
ENDBRANCH   7  20
TORSDOF 4
ENDMDL
MODEL       35
REMARK 921   NORMALIZED FREE ENERGY PREDICTED BY IDOCK:   -5.73 KCAL/MOL
REMARK 922        TOTAL FREE ENERGY PREDICTED BY IDOCK:   -7.82 KCAL/MOL
REMARK 923 INTER-LIGAND FREE ENERGY PREDICTED BY IDOCK:   -7.20 KCAL/MOL
REMARK 924 INTRA-LIGAND FREE ENERGY PREDICTED BY IDOCK:   -0.61 KCAL/MOL
REMARK 927      BINDING AFFINITY PREDICTED BY RF-SCORE:    0.00 PKD
ROOT
HETATM    1  C   UNL     1      -9.099  16.189  67.386  1.00  0.00    -0.203 C  
HETATM    2  C   UNL     1      -8.007  16.988  66.729  1.00  0.00    -0.239 C  
HETATM    3  O   UNL     1      -7.000  16.006  66.419  1.00  0.00    -0.070 OA 
HETATM    4  C   UNL     1      -7.161  14.901  67.219  1.00  0.00    -0.107 C  
HETATM    5  C   UNL     1      -8.321  15.136  68.137  1.00  0.00    -0.147 C  
HETATM    6  O   UNL     1      -6.403  13.945  67.237  1.00  0.00    -0.296 OA 
HETATM    7  C   UNL     1      -9.240  13.972  68.509  1.00  0.00    -0.170 C  
HETATM    8  C   UNL     1     -14.308  14.251  71.529  1.00  0.00    -0.286 C  
HETATM    9  C   UNL     1     -10.434  14.527  69.300  1.00  0.00    -0.185 A  
HETATM   10  O   UNL     1     -13.240  13.302  71.332  1.00  0.00    -0.310 OA 
HETATM   11  C   UNL     1     -11.194  13.619  70.058  1.00  0.00     0.054 A  
HETATM   12  C   UNL     1     -12.355  14.066  70.641  1.00  0.00    -0.375 A  
HETATM   13  C   UNL     1     -10.852  15.899  69.171  1.00  0.00    -0.268 A  
HETATM   14  C   UNL     1     -12.753  15.373  70.535  1.00  0.00    -0.405 A  
HETATM   15  C   UNL     1     -10.053  16.902  68.331  1.00  0.00    -0.304 C  
HETATM   16  H   UNL     1     -11.505  18.143  68.109  1.00  0.00     0.000 HD 
HETATM   17  O   UNL     1     -13.945  15.598  71.153  1.00  0.00    -0.564 OA 
HETATM   18  C   UNL     1     -12.017  16.315  69.841  1.00  0.00     0.121 A  
HETATM   19  O   UNL     1     -10.909  17.697  67.519  1.00  0.00    -0.325 OA 
ENDROOT
BRANCH   7  20
HETATM   20  C   UNL     1      -9.693  13.142  67.308  1.00  0.00    -0.230 A  
HETATM   21  C   UNL     1     -10.578  12.976  65.023  1.00  0.00    -0.319 A  
HETATM   22  C   UNL     1     -10.288  13.718  66.175  1.00  0.00    -0.301 A  
HETATM   23  C   UNL     1      -9.737  10.995  66.169  1.00  0.00    -0.217 A  
HETATM   24  C   UNL     1      -9.452  11.768  67.299  1.00  0.00    -0.173 A  
HETATM   25  C   UNL     1     -10.311  11.593  65.022  1.00  0.00    -0.281 A  
BRANCH  23  26
HETATM   26  O   UNL     1      -9.509   9.638  66.129  1.00  0.00    -0.182 OA 
HETATM   27  C   UNL     1     -10.005   8.885  67.233  1.00  0.00    -0.216 C  
ENDBRANCH  23  26
BRANCH  25  28
HETATM   28  O   UNL     1     -10.473  10.743  63.951  1.00  0.00    -0.338 OA 
HETATM   29  C   UNL     1      -9.518  10.804  62.901  1.00  0.00    -0.350 C  
ENDBRANCH  25  28
BRANCH  21  30
HETATM   30  O   UNL     1     -11.071  13.564  63.886  1.00  0.00    -0.272 OA 
HETATM   31  C   UNL     1     -12.465  13.451  63.613  1.00  0.00    -0.242 C  
ENDBRANCH  21  30
ENDBRANCH   7  20
TORSDOF 4
ENDMDL
MODEL       36
REMARK 921   NORMALIZED FREE ENERGY PREDICTED BY IDOCK:   -5.69 KCAL/MOL
REMARK 922        TOTAL FREE ENERGY PREDICTED BY IDOCK:   -7.77 KCAL/MOL
REMARK 923 INTER-LIGAND FREE ENERGY PREDICTED BY IDOCK:   -7.80 KCAL/MOL
REMARK 924 INTRA-LIGAND FREE ENERGY PREDICTED BY IDOCK:    0.02 KCAL/MOL
REMARK 927      BINDING AFFINITY PREDICTED BY RF-SCORE:    0.00 PKD
ROOT
HETATM    1  C   UNL     1     -11.915  12.401  70.259  1.00  0.00    -0.371 C  
HETATM    2  C   UNL     1     -12.724  13.195  71.248  1.00  0.00    -0.306 C  
HETATM    3  O   UNL     1     -13.188  12.205  72.186  1.00  0.00    -0.499 OA 
HETATM    4  C   UNL     1     -13.159  10.960  71.606  1.00  0.00    -0.433 C  
HETATM    5  C   UNL     1     -12.670  11.097  70.197  1.00  0.00    -0.157 C  
HETATM    6  O   UNL     1     -13.574   9.942  72.135  1.00  0.00    -0.409 OA 
HETATM    7  C   UNL     1     -11.782  10.007  69.594  1.00  0.00    -0.098 C  
HETATM    8  C   UNL     1      -8.992  10.148  64.392  1.00  0.00    -0.233 C  
HETATM    9  C   UNL     1     -11.283  10.487  68.224  1.00  0.00    -0.354 A  
HETATM   10  O   UNL     1      -9.569   9.152  65.260  1.00  0.00    -0.199 OA 
HETATM   11  C   UNL     1     -10.776   9.520  67.338  1.00  0.00    -0.297 A  
HETATM   12  C   UNL     1     -10.179   9.947  66.177  1.00  0.00    -0.207 A  
HETATM   13  C   UNL     1     -11.205  11.887  67.899  1.00  0.00    -0.325 A  
HETATM   14  C   UNL     1     -10.113  11.278  65.852  1.00  0.00    -0.245 A  
HETATM   15  C   UNL     1     -11.730  12.962  68.858  1.00  0.00    -0.327 C  
HETATM   16  H   UNL     1     -10.701  14.397  68.096  1.00  0.00     0.000 HD 
HETATM   17  O   UNL     1      -9.452  11.488  64.681  1.00  0.00    -0.197 OA 
HETATM   18  C   UNL     1     -10.638  12.264  66.666  1.00  0.00    -0.257 A  
HETATM   19  O   UNL     1     -10.817  14.047  68.972  1.00  0.00    -0.251 OA 
ENDROOT
BRANCH   7  20
HETATM   20  C   UNL     1     -10.627   9.587  70.503  1.00  0.00    -0.358 A  
HETATM   21  C   UNL     1      -9.773   8.440  72.500  1.00  0.00    -0.289 A  
HETATM   22  C   UNL     1     -10.831   8.944  71.734  1.00  0.00    -0.436 A  
HETATM   23  C   UNL     1      -8.234   9.301  70.817  1.00  0.00    -0.169 A  
HETATM   24  C   UNL     1      -9.315   9.785  70.073  1.00  0.00    -0.274 A  
HETATM   25  C   UNL     1      -8.454   8.630  72.043  1.00  0.00    -0.122 A  
BRANCH  23  26
HETATM   26  O   UNL     1      -6.928   9.480  70.418  1.00  0.00    -0.083 OA 
HETATM   27  C   UNL     1      -6.560  10.807  70.049  1.00  0.00    -0.159 C  
ENDBRANCH  23  26
BRANCH  25  28
HETATM   28  O   UNL     1      -7.316   8.137  72.641  1.00  0.00    -0.100 OA 
HETATM   29  C   UNL     1      -6.956   6.788  72.378  1.00  0.00    -0.067 C  
ENDBRANCH  25  28
BRANCH  21  30
HETATM   30  O   UNL     1      -9.986   7.730  73.654  1.00  0.00    -0.301 OA 
HETATM   31  C   UNL     1     -10.564   6.431  73.555  1.00  0.00    -0.276 C  
ENDBRANCH  21  30
ENDBRANCH   7  20
TORSDOF 4
ENDMDL
MODEL       37
REMARK 921   NORMALIZED FREE ENERGY PREDICTED BY IDOCK:   -5.68 KCAL/MOL
REMARK 922        TOTAL FREE ENERGY PREDICTED BY IDOCK:   -7.76 KCAL/MOL
REMARK 923 INTER-LIGAND FREE ENERGY PREDICTED BY IDOCK:   -7.84 KCAL/MOL
REMARK 924 INTRA-LIGAND FREE ENERGY PREDICTED BY IDOCK:    0.08 KCAL/MOL
REMARK 927      BINDING AFFINITY PREDICTED BY RF-SCORE:    0.00 PKD
ROOT
HETATM    1  C   UNL     1      -9.898  13.038  66.475  1.00  0.00    -0.263 C  
HETATM    2  C   UNL     1      -9.786  13.746  65.153  1.00  0.00    -0.093 C  
HETATM    3  O   UNL     1     -11.076  14.365  64.984  1.00  0.00    -0.340 OA 
HETATM    4  C   UNL     1     -12.010  13.721  65.759  1.00  0.00    -0.399 C  
HETATM    5  C   UNL     1     -11.339  12.594  66.483  1.00  0.00    -0.377 C  
HETATM    6  O   UNL     1     -13.203  13.972  65.755  1.00  0.00    -0.528 OA 
HETATM    7  C   UNL     1     -11.772  12.246  67.908  1.00  0.00    -0.410 C  
HETATM    8  C   UNL     1      -9.201   8.401  71.579  1.00  0.00    -0.196 C  
HETATM    9  C   UNL     1     -10.806  11.191  68.467  1.00  0.00    -0.243 A  
HETATM   10  O   UNL     1     -10.527   8.914  71.338  1.00  0.00    -0.250 OA 
HETATM   11  C   UNL     1     -11.221  10.456  69.592  1.00  0.00    -0.333 A  
HETATM   12  C   UNL     1     -10.312   9.625  70.201  1.00  0.00    -0.266 A  
HETATM   13  C   UNL     1      -9.470  11.044  67.952  1.00  0.00    -0.170 A  
HETATM   14  C   UNL     1      -9.043   9.469  69.709  1.00  0.00    -0.205 A  
HETATM   15  C   UNL     1      -8.987  11.850  66.741  1.00  0.00    -0.196 C  
HETATM   16  H   UNL     1      -7.114  11.637  67.122  1.00  0.00     0.000 HD 
HETATM   17  O   UNL     1      -8.294   8.630  70.478  1.00  0.00    -0.117 OA 
HETATM   18  C   UNL     1      -8.601  10.131  68.579  1.00  0.00    -0.118 A  
HETATM   19  O   UNL     1      -7.683  12.379  66.956  1.00  0.00    -0.144 OA 
ENDROOT
BRANCH   7  20
HETATM   20  C   UNL     1     -11.877  13.462  68.830  1.00  0.00    -0.386 A  
HETATM   21  C   UNL     1     -12.931  14.652  70.702  1.00  0.00    -0.313 A  
HETATM   22  C   UNL     1     -12.911  13.609  69.769  1.00  0.00     0.354 A  
HETATM   23  C   UNL     1     -10.873  15.495  69.703  1.00  0.00    -0.283 A  
HETATM   24  C   UNL     1     -10.879  14.435  68.791  1.00  0.00    -0.261 A  
HETATM   25  C   UNL     1     -11.905  15.617  70.663  1.00  0.00    -0.376 A  
BRANCH  23  26
HETATM   26  O   UNL     1      -9.901  16.471  69.691  1.00  0.00    -0.147 OA 
HETATM   27  C   UNL     1     -10.092  17.537  68.765  1.00  0.00    -0.363 C  
ENDBRANCH  23  26
BRANCH  25  28
HETATM   28  O   UNL     1     -11.745  16.657  71.550  1.00  0.00    -0.287 OA 
HETATM   29  C   UNL     1     -11.863  16.374  72.937  1.00  0.00    -0.401 C  
ENDBRANCH  25  28
BRANCH  21  30
HETATM   30  O   UNL     1     -13.892  14.735  71.676  1.00  0.00    -0.379 OA 
HETATM   31  C   UNL     1     -14.275  13.543  72.356  1.00  0.00    -0.348 C  
ENDBRANCH  21  30
ENDBRANCH   7  20
TORSDOF 4
ENDMDL
MODEL       38
REMARK 921   NORMALIZED FREE ENERGY PREDICTED BY IDOCK:   -5.64 KCAL/MOL
REMARK 922        TOTAL FREE ENERGY PREDICTED BY IDOCK:   -7.71 KCAL/MOL
REMARK 923 INTER-LIGAND FREE ENERGY PREDICTED BY IDOCK:   -6.99 KCAL/MOL
REMARK 924 INTRA-LIGAND FREE ENERGY PREDICTED BY IDOCK:   -0.73 KCAL/MOL
REMARK 927      BINDING AFFINITY PREDICTED BY RF-SCORE:    0.00 PKD
ROOT
HETATM    1  C   UNL     1      -9.522  10.141  66.433  1.00  0.00    -0.223 C  
HETATM    2  C   UNL     1      -8.943   9.373  65.276  1.00  0.00    -0.204 C  
HETATM    3  O   UNL     1      -8.936  10.329  64.198  1.00  0.00    -0.197 OA 
HETATM    4  C   UNL     1      -9.845  11.327  64.451  1.00  0.00    -0.269 C  
HETATM    5  C   UNL     1     -10.526  11.040  65.754  1.00  0.00    -0.290 C  
HETATM    6  O   UNL     1     -10.117  12.228  63.674  1.00  0.00    -0.409 OA 
HETATM    7  C   UNL     1     -10.904  12.196  66.682  1.00  0.00    -0.307 C  
HETATM    8  C   UNL     1     -13.009  11.812  72.186  1.00  0.00    -0.118 C  
HETATM    9  C   UNL     1     -11.410  11.611  68.008  1.00  0.00    -0.366 A  
HETATM   10  O   UNL     1     -13.118  12.717  71.068  1.00  0.00    -0.134 OA 
HETATM   11  C   UNL     1     -12.156  12.453  68.852  1.00  0.00    -0.171 A  
HETATM   12  C   UNL     1     -12.478  12.001  70.108  1.00  0.00    -0.048 A  
HETATM   13  C   UNL     1     -11.027  10.294  68.446  1.00  0.00    -0.308 A  
HETATM   14  C   UNL     1     -12.130  10.743  70.527  1.00  0.00    -0.366 A  
HETATM   15  C   UNL     1     -10.195   9.365  67.554  1.00  0.00    -0.231 C  
HETATM   16  H   UNL     1      -9.574   8.249  68.992  1.00  0.00     0.000 HD 
HETATM   17  O   UNL     1     -12.513  10.507  71.813  1.00  0.00    -0.373 OA 
HETATM   18  C   UNL     1     -11.438   9.860  69.720  1.00  0.00    -0.194 A  
HETATM   19  O   UNL     1      -9.154   8.733  68.291  1.00  0.00    -0.140 OA 
ENDROOT
BRANCH   7  20
HETATM   20  C   UNL     1      -9.773  13.201  66.901  1.00  0.00    -0.243 A  
HETATM   21  C   UNL     1      -7.492  13.740  67.634  1.00  0.00    -0.178 A  
HETATM   22  C   UNL     1      -8.578  12.860  67.553  1.00  0.00    -0.188 A  
HETATM   23  C   UNL     1      -8.832  15.396  66.449  1.00  0.00    -0.305 A  
HETATM   24  C   UNL     1      -9.894  14.488  66.380  1.00  0.00    -0.306 A  
HETATM   25  C   UNL     1      -7.622  15.030  67.085  1.00  0.00    -0.139 A  
BRANCH  23  26
HETATM   26  O   UNL     1      -8.921  16.673  65.942  1.00  0.00    -0.482 OA 
HETATM   27  C   UNL     1     -10.238  17.198  65.790  1.00  0.00    -0.219 C  
ENDBRANCH  23  26
BRANCH  25  28
HETATM   28  O   UNL     1      -6.630  15.982  67.021  1.00  0.00    -0.238 OA 
HETATM   29  C   UNL     1      -6.506  16.890  68.107  1.00  0.00    -0.145 C  
ENDBRANCH  25  28
BRANCH  21  30
HETATM   30  O   UNL     1      -6.295  13.366  68.189  1.00  0.00    -0.087 OA 
HETATM   31  C   UNL     1      -6.308  12.444  69.274  1.00  0.00    -0.106 C  
ENDBRANCH  21  30
ENDBRANCH   7  20
TORSDOF 4
ENDMDL
MODEL       39
REMARK 921   NORMALIZED FREE ENERGY PREDICTED BY IDOCK:   -5.61 KCAL/MOL
REMARK 922        TOTAL FREE ENERGY PREDICTED BY IDOCK:   -7.67 KCAL/MOL
REMARK 923 INTER-LIGAND FREE ENERGY PREDICTED BY IDOCK:   -7.05 KCAL/MOL
REMARK 924 INTRA-LIGAND FREE ENERGY PREDICTED BY IDOCK:   -0.62 KCAL/MOL
REMARK 927      BINDING AFFINITY PREDICTED BY RF-SCORE:    0.00 PKD
ROOT
HETATM    1  C   UNL     1     -10.960   7.503  70.554  1.00  0.00    -0.266 C  
HETATM    2  C   UNL     1     -10.890   6.005  70.446  1.00  0.00    -0.318 C  
HETATM    3  O   UNL     1     -10.127   5.781  69.245  1.00  0.00    -0.172 OA 
HETATM    4  C   UNL     1     -10.181   6.894  68.442  1.00  0.00    -0.176 C  
HETATM    5  C   UNL     1     -11.036   7.928  69.108  1.00  0.00     0.046 C  
HETATM    6  O   UNL     1      -9.698   6.963  67.323  1.00  0.00    -0.134 OA 
HETATM    7  C   UNL     1     -10.673   9.408  68.978  1.00  0.00    -0.209 C  
HETATM    8  C   UNL     1     -13.166  13.954  71.804  1.00  0.00    -0.376 C  
HETATM    9  C   UNL     1     -11.596  10.219  69.899  1.00  0.00    -0.326 A  
HETATM   10  O   UNL     1     -12.518  13.718  70.538  1.00  0.00    -0.337 OA 
HETATM   11  C   UNL     1     -11.702  11.601  69.665  1.00  0.00    -0.418 A  
HETATM   12  C   UNL     1     -12.393  12.367  70.573  1.00  0.00    -0.262 A  
HETATM   13  C   UNL     1     -12.227   9.623  71.048  1.00  0.00    -0.409 A  
HETATM   14  C   UNL     1     -13.009  11.805  71.661  1.00  0.00    -0.362 A  
HETATM   15  C   UNL     1     -12.107   8.122  71.337  1.00  0.00    -0.297 C  
HETATM   16  H   UNL     1     -12.552   8.266  73.203  1.00  0.00     0.000 HD 
HETATM   17  O   UNL     1     -13.606  12.739  72.452  1.00  0.00    -0.565 OA 
HETATM   18  C   UNL     1     -12.974  10.446  71.911  1.00  0.00    -0.555 A  
HETATM   19  O   UNL     1     -11.836   7.879  72.713  1.00  0.00    -0.340 OA 
ENDROOT
BRANCH   7  20
HETATM   20  C   UNL     1      -9.198   9.704  69.251  1.00  0.00    -0.186 A  
HETATM   21  C   UNL     1      -7.080  10.793  68.652  1.00  0.00    -0.078 A  
HETATM   22  C   UNL     1      -8.390  10.407  68.343  1.00  0.00    -0.119 A  
HETATM   23  C   UNL     1      -7.333   9.686  70.809  1.00  0.00    -0.037 A  
HETATM   24  C   UNL     1      -8.641   9.324  70.471  1.00  0.00    -0.271 A  
HETATM   25  C   UNL     1      -6.538  10.419  69.897  1.00  0.00    -0.124 A  
BRANCH  23  26
HETATM   26  O   UNL     1      -6.756   9.327  72.007  1.00  0.00    -0.297 OA 
HETATM   27  C   UNL     1      -6.537   7.932  72.205  1.00  0.00    -0.063 C  
ENDBRANCH  23  26
BRANCH  25  28
HETATM   28  O   UNL     1      -5.299  10.779  70.376  1.00  0.00    -0.057 OA 
HETATM   29  C   UNL     1      -5.154  12.073  70.946  1.00  0.00    -0.135 C  
ENDBRANCH  25  28
BRANCH  21  30
HETATM   30  O   UNL     1      -6.330  11.562  67.799  1.00  0.00    -0.057 OA 
HETATM   31  C   UNL     1      -6.804  12.863  67.463  1.00  0.00    -0.153 C  
ENDBRANCH  21  30
ENDBRANCH   7  20
TORSDOF 4
ENDMDL
MODEL       40
REMARK 921   NORMALIZED FREE ENERGY PREDICTED BY IDOCK:   -5.59 KCAL/MOL
REMARK 922        TOTAL FREE ENERGY PREDICTED BY IDOCK:   -7.64 KCAL/MOL
REMARK 923 INTER-LIGAND FREE ENERGY PREDICTED BY IDOCK:   -6.92 KCAL/MOL
REMARK 924 INTRA-LIGAND FREE ENERGY PREDICTED BY IDOCK:   -0.72 KCAL/MOL
REMARK 927      BINDING AFFINITY PREDICTED BY RF-SCORE:    0.00 PKD
ROOT
HETATM    1  C   UNL     1      -7.876  10.121  66.897  1.00  0.00    -0.107 C  
HETATM    2  C   UNL     1      -6.753   9.651  66.013  1.00  0.00    -0.084 C  
HETATM    3  O   UNL     1      -7.112  10.146  64.708  1.00  0.00    -0.137 OA 
HETATM    4  C   UNL     1      -8.463  10.392  64.656  1.00  0.00    -0.173 C  
HETATM    5  C   UNL     1      -9.070  10.033  65.978  1.00  0.00    -0.189 C  
HETATM    6  O   UNL     1      -9.064  10.738  63.652  1.00  0.00    -0.197 OA 
HETATM    7  C   UNL     1     -10.221  10.871  66.534  1.00  0.00    -0.282 C  
HETATM    8  C   UNL     1     -12.669  10.459  71.893  1.00  0.00    -0.357 C  
HETATM    9  C   UNL     1     -10.519  10.401  67.966  1.00  0.00    -0.232 A  
HETATM   10  O   UNL     1     -13.081  10.835  70.564  1.00  0.00    -0.254 OA 
HETATM   11  C   UNL     1     -11.759  10.756  68.526  1.00  0.00    -0.259 A  
HETATM   12  C   UNL     1     -11.978  10.484  69.854  1.00  0.00    -0.264 A  
HETATM   13  C   UNL     1      -9.521   9.737  68.764  1.00  0.00    -0.154 A  
HETATM   14  C   UNL     1     -11.039   9.840  70.618  1.00  0.00    -0.332 A  
HETATM   15  C   UNL     1      -8.154   9.359  68.183  1.00  0.00    -0.110 C  
HETATM   16  H   UNL     1      -7.274   9.208  69.886  1.00  0.00     0.000 HD 
HETATM   17  O   UNL     1     -11.439   9.700  71.912  1.00  0.00    -0.300 OA 
HETATM   18  C   UNL     1      -9.824   9.427  70.103  1.00  0.00    -0.272 A  
HETATM   19  O   UNL     1      -7.100   9.684  69.082  1.00  0.00    -0.059 OA 
ENDROOT
BRANCH   7  20
HETATM   20  C   UNL     1      -9.967  12.378  66.475  1.00  0.00    -0.242 A  
HETATM   21  C   UNL     1      -8.702  14.370  67.153  1.00  0.00    -0.226 A  
HETATM   22  C   UNL     1      -9.030  13.017  67.302  1.00  0.00    -0.212 A  
HETATM   23  C   UNL     1     -10.341  14.501  65.354  1.00  0.00    -0.382 A  
HETATM   24  C   UNL     1     -10.638  13.145  65.524  1.00  0.00    -0.299 A  
HETATM   25  C   UNL     1      -9.374  15.128  66.174  1.00  0.00    -0.311 A  
BRANCH  23  26
HETATM   26  O   UNL     1     -10.985  15.285  64.422  1.00  0.00    -0.251 OA 
HETATM   27  C   UNL     1     -12.410  15.243  64.442  1.00  0.00    -0.158 C  
ENDBRANCH  23  26
BRANCH  25  28
HETATM   28  O   UNL     1      -9.118  16.443  65.859  1.00  0.00    -0.429 OA 
HETATM   29  C   UNL     1      -9.935  17.442  66.453  1.00  0.00    -0.316 C  
ENDBRANCH  25  28
BRANCH  21  30
HETATM   30  O   UNL     1      -7.718  14.964  67.901  1.00  0.00    -0.119 OA 
HETATM   31  C   UNL     1      -7.926  15.113  69.303  1.00  0.00    -0.213 C  
ENDBRANCH  21  30
ENDBRANCH   7  20
TORSDOF 4
ENDMDL
MODEL       41
REMARK 921   NORMALIZED FREE ENERGY PREDICTED BY IDOCK:   -5.53 KCAL/MOL
REMARK 922        TOTAL FREE ENERGY PREDICTED BY IDOCK:   -7.57 KCAL/MOL
REMARK 923 INTER-LIGAND FREE ENERGY PREDICTED BY IDOCK:   -6.83 KCAL/MOL
REMARK 924 INTRA-LIGAND FREE ENERGY PREDICTED BY IDOCK:   -0.74 KCAL/MOL
REMARK 927      BINDING AFFINITY PREDICTED BY RF-SCORE:    0.00 PKD
ROOT
HETATM    1  C   UNL     1      -9.125  10.725  66.778  1.00  0.00    -0.167 C  
HETATM    2  C   UNL     1      -9.037  12.205  66.522  1.00  0.00    -0.199 C  
HETATM    3  O   UNL     1     -10.117  12.753  67.302  1.00  0.00    -0.222 OA 
HETATM    4  C   UNL     1     -11.054  11.781  67.554  1.00  0.00    -0.272 C  
HETATM    5  C   UNL     1     -10.612  10.505  66.904  1.00  0.00    -0.303 C  
HETATM    6  O   UNL     1     -12.117  11.976  68.121  1.00  0.00    -0.480 OA 
HETATM    7  C   UNL     1     -10.888   9.169  67.593  1.00  0.00    -0.160 C  
HETATM    8  C   UNL     1      -8.917   3.844  65.971  1.00  0.00    -0.133 C  
HETATM    9  C   UNL     1     -10.172   8.059  66.809  1.00  0.00    -0.367 A  
HETATM   10  O   UNL     1     -10.071   4.390  66.641  1.00  0.00    -0.230 OA 
HETATM   11  C   UNL     1     -10.586   6.733  67.028  1.00  0.00    -0.405 A  
HETATM   12  C   UNL     1      -9.856   5.718  66.460  1.00  0.00    -0.161 A  
HETATM   13  C   UNL     1      -9.029   8.339  65.979  1.00  0.00    -0.224 A  
HETATM   14  C   UNL     1      -8.774   5.976  65.658  1.00  0.00    -0.137 A  
HETATM   15  C   UNL     1      -8.545   9.774  65.744  1.00  0.00    -0.135 C  
HETATM   16  H   UNL     1      -6.767   9.274  65.207  1.00  0.00     0.000 HD 
HETATM   17  O   UNL     1      -8.172   4.834  65.227  1.00  0.00    -0.112 OA 
HETATM   18  C   UNL     1      -8.356   7.262  65.373  1.00  0.00    -0.127 A  
HETATM   19  O   UNL     1      -7.129   9.869  65.853  1.00  0.00    -0.097 OA 
ENDROOT
BRANCH   7  20
HETATM   20  C   UNL     1     -10.505   9.153  69.074  1.00  0.00    -0.238 A  
HETATM   21  C   UNL     1     -11.082   8.821  71.437  1.00  0.00    -0.291 A  
HETATM   22  C   UNL     1     -11.450   8.970  70.095  1.00  0.00    -0.078 A  
HETATM   23  C   UNL     1      -8.759   9.121  70.764  1.00  0.00    -0.236 A  
HETATM   24  C   UNL     1      -9.161   9.257  69.431  1.00  0.00    -0.159 A  
HETATM   25  C   UNL     1      -9.719   8.908  71.781  1.00  0.00    -0.295 A  
BRANCH  23  26
HETATM   26  O   UNL     1      -7.439   9.218  71.148  1.00  0.00    -0.243 OA 
HETATM   27  C   UNL     1      -6.552   8.249  70.595  1.00  0.00    -0.037 C  
ENDBRANCH  23  26
BRANCH  25  28
HETATM   28  O   UNL     1      -9.191   8.715  73.037  1.00  0.00    -0.257 OA 
HETATM   29  C   UNL     1      -9.037   7.380  73.498  1.00  0.00    -0.213 C  
ENDBRANCH  25  28
BRANCH  21  30
HETATM   30  O   UNL     1     -12.003   8.547  72.416  1.00  0.00    -0.376 OA 
HETATM   31  C   UNL     1     -13.303   9.118  72.304  1.00  0.00    -0.477 C  
ENDBRANCH  21  30
ENDBRANCH   7  20
TORSDOF 4
ENDMDL
MODEL       42
REMARK 921   NORMALIZED FREE ENERGY PREDICTED BY IDOCK:   -5.50 KCAL/MOL
REMARK 922        TOTAL FREE ENERGY PREDICTED BY IDOCK:   -7.54 KCAL/MOL
REMARK 923 INTER-LIGAND FREE ENERGY PREDICTED BY IDOCK:   -7.78 KCAL/MOL
REMARK 924 INTRA-LIGAND FREE ENERGY PREDICTED BY IDOCK:    0.24 KCAL/MOL
REMARK 927      BINDING AFFINITY PREDICTED BY RF-SCORE:    0.00 PKD
ROOT
HETATM    1  C   UNL     1     -11.041  11.915  64.884  1.00  0.00    -0.363 C  
HETATM    2  C   UNL     1     -11.119  11.390  63.476  1.00  0.00    -0.285 C  
HETATM    3  O   UNL     1     -10.003  10.484  63.384  1.00  0.00    -0.307 OA 
HETATM    4  C   UNL     1      -9.070  10.792  64.344  1.00  0.00    -0.196 C  
HETATM    5  C   UNL     1      -9.553  11.976  65.124  1.00  0.00    -0.091 C  
HETATM    6  O   UNL     1      -7.983  10.247  64.451  1.00  0.00    -0.160 OA 
HETATM    7  C   UNL     1      -9.268  12.063  66.624  1.00  0.00    -0.211 C  
HETATM    8  C   UNL     1     -11.368  16.060  70.430  1.00  0.00    -0.391 C  
HETATM    9  C   UNL     1     -10.027  13.269  67.195  1.00  0.00    -0.238 A  
HETATM   10  O   UNL     1     -10.182  15.253  70.285  1.00  0.00    -0.232 OA 
HETATM   11  C   UNL     1      -9.622  13.762  68.449  1.00  0.00    -0.206 A  
HETATM   12  C   UNL     1     -10.387  14.733  69.047  1.00  0.00    -0.243 A  
HETATM   13  C   UNL     1     -11.198  13.800  66.547  1.00  0.00    -0.319 A  
HETATM   14  C   UNL     1     -11.495  15.254  68.430  1.00  0.00    -0.345 A  
HETATM   15  C   UNL     1     -11.673  13.264  65.191  1.00  0.00    -0.330 C  
HETATM   16  H   UNL     1     -13.476  13.907  65.369  1.00  0.00     0.000 HD 
HETATM   17  O   UNL     1     -12.129  16.175  69.207  1.00  0.00    -0.225 OA 
HETATM   18  C   UNL     1     -11.908  14.838  67.179  1.00  0.00    -0.307 A  
HETATM   19  O   UNL     1     -13.082  13.065  65.176  1.00  0.00    -0.740 OA 
ENDROOT
BRANCH   7  20
HETATM   20  C   UNL     1      -9.594  10.777  67.384  1.00  0.00    -0.179 A  
HETATM   21  C   UNL     1      -9.196   8.399  67.850  1.00  0.00    -0.135 A  
HETATM   22  C   UNL     1      -9.000   9.544  67.069  1.00  0.00    -0.150 A  
HETATM   23  C   UNL     1     -10.686   9.704  69.271  1.00  0.00    -0.226 A  
HETATM   24  C   UNL     1     -10.461  10.831  68.475  1.00  0.00    -0.208 A  
HETATM   25  C   UNL     1     -10.059   8.474  68.960  1.00  0.00    -0.199 A  
BRANCH  23  26
HETATM   26  O   UNL     1     -11.535   9.726  70.356  1.00  0.00    -0.257 OA 
HETATM   27  C   UNL     1     -12.378  10.869  70.469  1.00  0.00    -0.374 C  
ENDBRANCH  23  26
BRANCH  25  28
HETATM   28  O   UNL     1     -10.301   7.462  69.862  1.00  0.00    -0.207 OA 
HETATM   29  C   UNL     1     -11.197   6.428  69.479  1.00  0.00    -0.412 C  
ENDBRANCH  25  28
BRANCH  21  30
HETATM   30  O   UNL     1      -8.539   7.223  67.591  1.00  0.00    -0.125 OA 
HETATM   31  C   UNL     1      -7.920   7.057  66.318  1.00  0.00    -0.114 C  
ENDBRANCH  21  30
ENDBRANCH   7  20
TORSDOF 4
ENDMDL
MODEL       43
REMARK 921   NORMALIZED FREE ENERGY PREDICTED BY IDOCK:   -5.48 KCAL/MOL
REMARK 922        TOTAL FREE ENERGY PREDICTED BY IDOCK:   -7.52 KCAL/MOL
REMARK 923 INTER-LIGAND FREE ENERGY PREDICTED BY IDOCK:   -7.61 KCAL/MOL
REMARK 924 INTRA-LIGAND FREE ENERGY PREDICTED BY IDOCK:    0.09 KCAL/MOL
REMARK 927      BINDING AFFINITY PREDICTED BY RF-SCORE:    0.00 PKD
ROOT
HETATM    1  C   UNL     1      -9.465  11.464  66.930  1.00  0.00    -0.193 C  
HETATM    2  C   UNL     1      -9.224  11.934  65.522  1.00  0.00    -0.007 C  
HETATM    3  O   UNL     1     -10.442  12.621  65.175  1.00  0.00    -0.284 OA 
HETATM    4  C   UNL     1     -11.468  12.193  65.983  1.00  0.00    -0.370 C  
HETATM    5  C   UNL     1     -10.941  11.149  66.919  1.00  0.00    -0.333 C  
HETATM    6  O   UNL     1     -12.632  12.539  65.863  1.00  0.00    -0.514 OA 
HETATM    7  C   UNL     1     -11.472  11.078  68.351  1.00  0.00    -0.378 C  
HETATM    8  C   UNL     1      -9.450   7.688  72.743  1.00  0.00    -0.188 C  
HETATM    9  C   UNL     1     -10.637  10.052  69.130  1.00  0.00    -0.240 A  
HETATM   10  O   UNL     1     -10.709   8.263  72.339  1.00  0.00    -0.296 OA 
HETATM   11  C   UNL     1     -11.172   9.550  70.329  1.00  0.00    -0.307 A  
HETATM   12  C   UNL     1     -10.375   8.757  71.119  1.00  0.00    -0.246 A  
HETATM   13  C   UNL     1      -9.296   9.712  68.730  1.00  0.00    -0.148 A  
HETATM   14  C   UNL     1      -9.102   8.417  70.739  1.00  0.00    -0.156 A  
HETATM   15  C   UNL     1      -8.682  10.265  67.440  1.00  0.00    -0.128 C  
HETATM   16  H   UNL     1      -6.857   9.962  67.968  1.00  0.00     0.000 HD 
HETATM   17  O   UNL     1      -8.473   7.657  71.678  1.00  0.00    -0.105 OA 
HETATM   18  C   UNL     1      -8.547   8.845  69.549  1.00  0.00    -0.134 A  
HETATM   19  O   UNL     1      -7.347  10.711  67.649  1.00  0.00    -0.088 OA 
ENDROOT
BRANCH   7  20
HETATM   20  C   UNL     1     -11.510  12.433  69.058  1.00  0.00    -0.352 A  
HETATM   21  C   UNL     1     -10.703  14.736  69.329  1.00  0.00    -0.256 A  
HETATM   22  C   UNL     1     -10.586  13.453  68.781  1.00  0.00    -0.230 A  
HETATM   23  C   UNL     1     -12.676  13.968  70.538  1.00  0.00    -0.280 A  
HETATM   24  C   UNL     1     -12.534  12.699  69.966  1.00  0.00    -0.051 A  
HETATM   25  C   UNL     1     -11.755  14.997  70.229  1.00  0.00    -0.294 A  
BRANCH  23  26
HETATM   26  O   UNL     1     -13.677  14.262  71.436  1.00  0.00    -0.358 OA 
HETATM   27  C   UNL     1     -13.925  13.284  72.443  1.00  0.00    -0.456 C  
ENDBRANCH  23  26
BRANCH  25  28
HETATM   28  O   UNL     1     -12.046  16.217  70.796  1.00  0.00    -0.321 OA 
HETATM   29  C   UNL     1     -11.787  16.387  72.182  1.00  0.00    -0.418 C  
ENDBRANCH  25  28
BRANCH  21  30
HETATM   30  O   UNL     1      -9.853  15.754  68.980  1.00  0.00    -0.211 OA 
HETATM   31  C   UNL     1      -8.470  15.622  69.296  1.00  0.00    -0.265 C  
ENDBRANCH  21  30
ENDBRANCH   7  20
TORSDOF 4
ENDMDL
MODEL       44
REMARK 921   NORMALIZED FREE ENERGY PREDICTED BY IDOCK:   -5.43 KCAL/MOL
REMARK 922        TOTAL FREE ENERGY PREDICTED BY IDOCK:   -7.46 KCAL/MOL
REMARK 923 INTER-LIGAND FREE ENERGY PREDICTED BY IDOCK:   -7.01 KCAL/MOL
REMARK 924 INTRA-LIGAND FREE ENERGY PREDICTED BY IDOCK:   -0.44 KCAL/MOL
REMARK 927      BINDING AFFINITY PREDICTED BY RF-SCORE:    0.00 PKD
ROOT
HETATM    1  C   UNL     1      -9.958  11.019  65.618  1.00  0.00    -0.299 C  
HETATM    2  C   UNL     1      -9.861  10.012  64.505  1.00  0.00    -0.173 C  
HETATM    3  O   UNL     1      -8.957   9.015  65.020  1.00  0.00    -0.202 OA 
HETATM    4  C   UNL     1      -8.190   9.553  66.025  1.00  0.00    -0.115 C  
HETATM    5  C   UNL     1      -8.567  10.993  66.200  1.00  0.00    -0.175 C  
HETATM    6  O   UNL     1      -7.281   8.967  66.589  1.00  0.00    -0.083 OA 
HETATM    7  C   UNL     1      -8.573  11.608  67.600  1.00  0.00    -0.142 C  
HETATM    8  C   UNL     1     -10.527  16.966  69.133  1.00  0.00    -0.335 C  
HETATM    9  C   UNL     1      -9.168  13.020  67.509  1.00  0.00    -0.195 A  
HETATM   10  O   UNL     1      -9.525  16.032  69.584  1.00  0.00    -0.226 OA 
HETATM   11  C   UNL     1      -8.928  13.901  68.578  1.00  0.00    -0.141 A  
HETATM   12  C   UNL     1      -9.582  15.109  68.590  1.00  0.00    -0.213 A  
HETATM   13  C   UNL     1     -10.054  13.398  66.438  1.00  0.00    -0.292 A  
HETATM   14  C   UNL     1     -10.416  15.482  67.567  1.00  0.00    -0.282 A  
HETATM   15  C   UNL     1     -10.349  12.447  65.273  1.00  0.00    -0.282 C  
HETATM   16  H   UNL     1     -11.983  13.315  64.746  1.00  0.00     0.000 HD 
HETATM   17  O   UNL     1     -10.990  16.696  67.790  1.00  0.00    -0.320 OA 
HETATM   18  C   UNL     1     -10.649  14.673  66.471  1.00  0.00    -0.300 A  
HETATM   19  O   UNL     1     -11.738  12.423  64.961  1.00  0.00    -0.346 OA 
ENDROOT
BRANCH   7  20
HETATM   20  C   UNL     1      -9.299  10.754  68.641  1.00  0.00    -0.184 A  
HETATM   21  C   UNL     1      -9.297   8.992  70.351  1.00  0.00    -0.208 A  
HETATM   22  C   UNL     1      -8.677   9.684  69.304  1.00  0.00    -0.159 A  
HETATM   23  C   UNL     1     -11.257  10.405  70.036  1.00  0.00    -0.316 A  
HETATM   24  C   UNL     1     -10.605  11.082  69.001  1.00  0.00    -0.258 A  
HETATM   25  C   UNL     1     -10.609   9.347  70.717  1.00  0.00    -0.303 A  
BRANCH  23  26
HETATM   26  O   UNL     1     -12.547  10.707  70.416  1.00  0.00    -0.335 OA 
HETATM   27  C   UNL     1     -12.728  11.947  71.095  1.00  0.00    -0.284 C  
ENDBRANCH  23  26
BRANCH  25  28
HETATM   28  O   UNL     1     -11.326   8.813  71.763  1.00  0.00    -0.292 OA 
HETATM   29  C   UNL     1     -11.961   7.558  71.565  1.00  0.00    -0.307 C  
ENDBRANCH  25  28
BRANCH  21  30
HETATM   30  O   UNL     1      -8.647   8.011  71.057  1.00  0.00    -0.125 OA 
HETATM   31  C   UNL     1      -7.838   8.395  72.165  1.00  0.00    -0.119 C  
ENDBRANCH  21  30
ENDBRANCH   7  20
TORSDOF 4
ENDMDL
MODEL       45
REMARK 921   NORMALIZED FREE ENERGY PREDICTED BY IDOCK:   -5.42 KCAL/MOL
REMARK 922        TOTAL FREE ENERGY PREDICTED BY IDOCK:   -7.44 KCAL/MOL
REMARK 923 INTER-LIGAND FREE ENERGY PREDICTED BY IDOCK:   -6.66 KCAL/MOL
REMARK 924 INTRA-LIGAND FREE ENERGY PREDICTED BY IDOCK:   -0.79 KCAL/MOL
REMARK 927      BINDING AFFINITY PREDICTED BY RF-SCORE:    0.00 PKD
ROOT
HETATM    1  C   UNL     1      -6.965  10.329  68.324  1.00  0.00    -0.073 C  
HETATM    2  C   UNL     1      -5.627  10.595  67.691  1.00  0.00    -0.043 C  
HETATM    3  O   UNL     1      -5.923  10.679  66.283  1.00  0.00    -0.082 OA 
HETATM    4  C   UNL     1      -7.107  10.037  66.014  1.00  0.00    -0.111 C  
HETATM    5  C   UNL     1      -7.646   9.466  67.290  1.00  0.00    -0.091 C  
HETATM    6  O   UNL     1      -7.566   9.874  64.896  1.00  0.00    -0.123 OA 
HETATM    7  C   UNL     1      -9.156   9.451  67.534  1.00  0.00    -0.136 C  
HETATM    8  C   UNL     1     -11.949   7.962  72.519  1.00  0.00    -0.295 C  
HETATM    9  C   UNL     1      -9.412   8.989  68.976  1.00  0.00    -0.155 A  
HETATM   10  O   UNL     1     -12.211   7.918  71.102  1.00  0.00    -0.304 OA 
HETATM   11  C   UNL     1     -10.705   8.541  69.299  1.00  0.00    -0.147 A  
HETATM   12  C   UNL     1     -10.995   8.277  70.615  1.00  0.00    -0.240 A  
HETATM   13  C   UNL     1      -8.412   9.133  70.002  1.00  0.00    -0.164 A  
HETATM   14  C   UNL     1     -10.046   8.398  71.597  1.00  0.00    -0.239 A  
HETATM   15  C   UNL     1      -7.002   9.642  69.680  1.00  0.00    -0.071 C  
HETATM   16  H   UNL     1      -6.590  10.174  71.481  1.00  0.00     0.000 HD 
HETATM   17  O   UNL     1     -10.548   8.125  72.832  1.00  0.00    -0.346 OA 
HETATM   18  C   UNL     1      -8.748   8.789  71.325  1.00  0.00    -0.273 A  
HETATM   19  O   UNL     1      -6.566  10.603  70.634  1.00  0.00    -0.332 OA 
ENDROOT
BRANCH   7  20
HETATM   20  C   UNL     1      -9.838  10.786  67.237  1.00  0.00    -0.208 A  
HETATM   21  C   UNL     1     -11.486  12.129  66.007  1.00  0.00    -0.370 A  
HETATM   22  C   UNL     1     -10.763  10.945  66.193  1.00  0.00    -0.225 A  
HETATM   23  C   UNL     1     -10.288  13.079  67.907  1.00  0.00    -0.231 A  
HETATM   24  C   UNL     1      -9.590  11.878  68.069  1.00  0.00    -0.193 A  
HETATM   25  C   UNL     1     -11.239  13.217  66.868  1.00  0.00    -0.296 A  
BRANCH  23  26
HETATM   26  O   UNL     1     -10.067  14.173  68.713  1.00  0.00    -0.230 OA 
HETATM   27  C   UNL     1      -8.771  14.762  68.631  1.00  0.00    -0.178 C  
ENDBRANCH  23  26
BRANCH  25  28
HETATM   28  O   UNL     1     -11.912  14.417  66.861  1.00  0.00    -0.410 OA 
HETATM   29  C   UNL     1     -11.465  15.427  65.967  1.00  0.00    -0.002 C  
ENDBRANCH  25  28
BRANCH  21  30
HETATM   30  O   UNL     1     -12.455  12.244  65.045  1.00  0.00    -0.535 OA 
HETATM   31  C   UNL     1     -12.063  12.189  63.676  1.00  0.00    -0.551 C  
ENDBRANCH  21  30
ENDBRANCH   7  20
TORSDOF 4
ENDMDL
MODEL       46
REMARK 921   NORMALIZED FREE ENERGY PREDICTED BY IDOCK:   -5.36 KCAL/MOL
REMARK 922        TOTAL FREE ENERGY PREDICTED BY IDOCK:   -7.36 KCAL/MOL
REMARK 923 INTER-LIGAND FREE ENERGY PREDICTED BY IDOCK:   -6.60 KCAL/MOL
REMARK 924 INTRA-LIGAND FREE ENERGY PREDICTED BY IDOCK:   -0.76 KCAL/MOL
REMARK 927      BINDING AFFINITY PREDICTED BY RF-SCORE:    0.00 PKD
ROOT
HETATM    1  C   UNL     1      -9.193  10.826  66.834  1.00  0.00    -0.172 C  
HETATM    2  C   UNL     1      -9.351  12.320  66.748  1.00  0.00    -0.218 C  
HETATM    3  O   UNL     1     -10.443  12.603  67.644  1.00  0.00    -0.214 OA 
HETATM    4  C   UNL     1     -11.201  11.472  67.831  1.00  0.00    -0.279 C  
HETATM    5  C   UNL     1     -10.617  10.361  67.013  1.00  0.00    -0.305 C  
HETATM    6  O   UNL     1     -12.238  11.433  68.472  1.00  0.00    -0.557 OA 
HETATM    7  C   UNL     1     -10.637   8.931  67.555  1.00  0.00    -0.307 C  
HETATM    8  C   UNL     1      -7.999   4.193  65.218  1.00  0.00    -0.097 C  
HETATM    9  C   UNL     1      -9.819   8.040  66.609  1.00  0.00    -0.322 A  
HETATM   10  O   UNL     1      -9.172   4.473  66.008  1.00  0.00    -0.126 OA 
HETATM   11  C   UNL     1     -10.009   6.649  66.694  1.00  0.00    -0.203 A  
HETATM   12  C   UNL     1      -9.175   5.830  65.973  1.00  0.00    -0.141 A  
HETATM   13  C   UNL     1      -8.793   8.585  65.758  1.00  0.00    -0.229 A  
HETATM   14  C   UNL     1      -8.205   6.341  65.149  1.00  0.00    -0.138 A  
HETATM   15  C   UNL     1      -8.551  10.096  65.666  1.00  0.00    -0.155 C  
HETATM   16  H   UNL     1      -6.760   9.946  64.980  1.00  0.00     0.000 HD 
HETATM   17  O   UNL     1      -7.468   5.363  64.556  1.00  0.00    -0.061 OA 
HETATM   18  C   UNL     1      -8.008   7.701  64.994  1.00  0.00    -0.131 A  
HETATM   19  O   UNL     1      -7.162  10.403  65.710  1.00  0.00    -0.134 OA 
ENDROOT
BRANCH   7  20
HETATM   20  C   UNL     1     -10.151   8.818  69.001  1.00  0.00    -0.206 A  
HETATM   21  C   UNL     1      -8.445   9.187  70.728  1.00  0.00    -0.212 A  
HETATM   22  C   UNL     1      -8.846   9.163  69.387  1.00  0.00    -0.146 A  
HETATM   23  C   UNL     1     -10.679   8.426  71.340  1.00  0.00    -0.237 A  
HETATM   24  C   UNL     1     -11.048   8.421  69.991  1.00  0.00    -0.148 A  
HETATM   25  C   UNL     1      -9.369   8.803  71.720  1.00  0.00    -0.280 A  
BRANCH  23  26
HETATM   26  O   UNL     1     -11.542   8.041  72.342  1.00  0.00    -0.339 OA 
HETATM   27  C   UNL     1     -12.794   8.722  72.388  1.00  0.00    -0.371 C  
ENDBRANCH  23  26
BRANCH  25  28
HETATM   28  O   UNL     1      -9.152   8.840  73.078  1.00  0.00    -0.279 OA 
HETATM   29  C   UNL     1      -8.420   7.773  73.666  1.00  0.00    -0.222 C  
ENDBRANCH  25  28
BRANCH  21  30
HETATM   30  O   UNL     1      -7.198   9.617  71.105  1.00  0.00    -0.328 OA 
HETATM   31  C   UNL     1      -6.067   9.125  70.392  1.00  0.00    -0.043 C  
ENDBRANCH  21  30
ENDBRANCH   7  20
TORSDOF 4
ENDMDL
MODEL       47
REMARK 921   NORMALIZED FREE ENERGY PREDICTED BY IDOCK:   -5.34 KCAL/MOL
REMARK 922        TOTAL FREE ENERGY PREDICTED BY IDOCK:   -7.34 KCAL/MOL
REMARK 923 INTER-LIGAND FREE ENERGY PREDICTED BY IDOCK:   -7.40 KCAL/MOL
REMARK 924 INTRA-LIGAND FREE ENERGY PREDICTED BY IDOCK:    0.05 KCAL/MOL
REMARK 927      BINDING AFFINITY PREDICTED BY RF-SCORE:    0.00 PKD
ROOT
HETATM    1  C   UNL     1     -10.323  11.311  65.902  1.00  0.00    -0.304 C  
HETATM    2  C   UNL     1     -10.235  10.170  64.926  1.00  0.00    -0.090 C  
HETATM    3  O   UNL     1      -9.536   9.144  65.657  1.00  0.00    -0.262 OA 
HETATM    4  C   UNL     1      -8.823   9.707  66.687  1.00  0.00    -0.138 C  
HETATM    5  C   UNL     1      -9.022  11.192  66.657  1.00  0.00    -0.175 C  
HETATM    6  O   UNL     1      -8.069   9.091  67.423  1.00  0.00    -0.106 OA 
HETATM    7  C   UNL     1      -9.105  11.971  67.970  1.00  0.00    -0.188 C  
HETATM    8  C   UNL     1     -10.490  17.671  68.652  1.00  0.00    -0.317 C  
HETATM    9  C   UNL     1      -9.493  13.422  67.651  1.00  0.00    -0.216 A  
HETATM   10  O   UNL     1      -9.679  16.688  69.326  1.00  0.00    -0.248 OA 
HETATM   11  C   UNL     1      -9.261  14.393  68.641  1.00  0.00    -0.181 A  
HETATM   12  C   UNL     1      -9.746  15.663  68.438  1.00  0.00    -0.202 A  
HETATM   13  C   UNL     1     -10.194  13.767  66.441  1.00  0.00    -0.292 A  
HETATM   14  C   UNL     1     -10.401  16.003  67.283  1.00  0.00    -0.295 A  
HETATM   15  C   UNL     1     -10.479  12.722  65.357  1.00  0.00    -0.286 C  
HETATM   16  H   UNL     1     -11.913  13.707  64.535  1.00  0.00     0.000 HD 
HETATM   17  O   UNL     1     -10.830  17.295  67.299  1.00  0.00    -0.258 OA 
HETATM   18  C   UNL     1     -10.614  15.099  66.260  1.00  0.00    -0.312 A  
HETATM   19  O   UNL     1     -11.815  12.825  64.875  1.00  0.00    -0.339 OA 
ENDROOT
BRANCH   7  20
HETATM   20  C   UNL     1     -10.051  11.345  68.995  1.00  0.00    -0.110 A  
HETATM   21  C   UNL     1     -10.579   9.607  70.648  1.00  0.00    -0.319 A  
HETATM   22  C   UNL     1      -9.783  10.113  69.613  1.00  0.00    -0.250 A  
HETATM   23  C   UNL     1     -12.012  11.565  70.413  1.00  0.00    -0.368 A  
HETATM   24  C   UNL     1     -11.190  12.045  69.388  1.00  0.00    -0.263 A  
HETATM   25  C   UNL     1     -11.716  10.335  71.048  1.00  0.00    -0.370 A  
BRANCH  23  26
HETATM   26  O   UNL     1     -13.143  12.234  70.825  1.00  0.00     0.020 OA 
HETATM   27  C   UNL     1     -12.929  13.454  71.531  1.00  0.00    -0.341 C  
ENDBRANCH  23  26
BRANCH  25  28
HETATM   28  O   UNL     1     -12.555  10.010  72.089  1.00  0.00    -0.337 OA 
HETATM   29  C   UNL     1     -13.563   9.037  71.854  1.00  0.00    -0.431 C  
ENDBRANCH  25  28
BRANCH  21  30
HETATM   30  O   UNL     1     -10.258   8.450  71.310  1.00  0.00    -0.193 OA 
HETATM   31  C   UNL     1      -9.656   8.549  72.598  1.00  0.00    -0.223 C  
ENDBRANCH  21  30
ENDBRANCH   7  20
TORSDOF 4
ENDMDL
MODEL       48
REMARK 921   NORMALIZED FREE ENERGY PREDICTED BY IDOCK:   -5.33 KCAL/MOL
REMARK 922        TOTAL FREE ENERGY PREDICTED BY IDOCK:   -7.33 KCAL/MOL
REMARK 923 INTER-LIGAND FREE ENERGY PREDICTED BY IDOCK:   -7.18 KCAL/MOL
REMARK 924 INTRA-LIGAND FREE ENERGY PREDICTED BY IDOCK:   -0.15 KCAL/MOL
REMARK 927      BINDING AFFINITY PREDICTED BY RF-SCORE:    0.00 PKD
ROOT
HETATM    1  C   UNL     1     -11.588  11.932  70.047  1.00  0.00    -0.301 C  
HETATM    2  C   UNL     1     -12.446  12.743  70.980  1.00  0.00    -0.277 C  
HETATM    3  O   UNL     1     -12.937  11.774  71.926  1.00  0.00    -0.416 OA 
HETATM    4  C   UNL     1     -12.869  10.514  71.383  1.00  0.00    -0.447 C  
HETATM    5  C   UNL     1     -12.324  10.617  69.992  1.00  0.00    -0.341 C  
HETATM    6  O   UNL     1     -13.294   9.505  71.923  1.00  0.00    -0.384 OA 
HETATM    7  C   UNL     1     -11.400   9.522  69.457  1.00  0.00    -0.025 C  
HETATM    8  C   UNL     1      -8.400   9.554  64.371  1.00  0.00    -0.171 C  
HETATM    9  C   UNL     1     -10.850   9.970  68.095  1.00  0.00    -0.303 A  
HETATM   10  O   UNL     1      -9.000   8.575  65.243  1.00  0.00    -0.154 OA 
HETATM   11  C   UNL     1     -10.295   8.986  67.259  1.00  0.00    -0.342 A  
HETATM   12  C   UNL     1      -9.656   9.387  66.111  1.00  0.00    -0.247 A  
HETATM   13  C   UNL     1     -10.775  11.362  67.734  1.00  0.00    -0.254 A  
HETATM   14  C   UNL     1      -9.593  10.709  65.752  1.00  0.00    -0.210 A  
HETATM   15  C   UNL     1     -11.352  12.455  68.640  1.00  0.00    -0.288 C  
HETATM   16  H   UNL     1     -10.309  13.882  67.880  1.00  0.00     0.000 HD 
HETATM   17  O   UNL     1      -8.887  10.895  64.603  1.00  0.00    -0.171 OA 
HETATM   18  C   UNL     1     -10.163  11.711  66.515  1.00  0.00    -0.249 A  
HETATM   19  O   UNL     1     -10.457  13.555  68.760  1.00  0.00    -0.245 OA 
ENDROOT
BRANCH   7  20
HETATM   20  C   UNL     1     -10.278   9.142  70.424  1.00  0.00    -0.268 A  
HETATM   21  C   UNL     1      -7.955   9.332  71.198  1.00  0.00     0.011 A  
HETATM   22  C   UNL     1      -8.952   9.567  70.244  1.00  0.00    -0.288 A  
HETATM   23  C   UNL     1      -9.610   8.142  72.535  1.00  0.00    -0.277 A  
HETATM   24  C   UNL     1     -10.583   8.402  71.565  1.00  0.00    -0.307 A  
HETATM   25  C   UNL     1      -8.283   8.600  72.356  1.00  0.00    -0.008 A  
BRANCH  23  26
HETATM   26  O   UNL     1      -9.881   7.415  73.674  1.00  0.00    -0.280 OA 
HETATM   27  C   UNL     1     -10.424   6.113  73.472  1.00  0.00    -0.264 C  
ENDBRANCH  23  26
BRANCH  25  28
HETATM   28  O   UNL     1      -7.440   8.347  73.414  1.00  0.00    -0.245 OA 
HETATM   29  C   UNL     1      -6.592   7.210  73.333  1.00  0.00    -0.065 C  
ENDBRANCH  25  28
BRANCH  21  30
HETATM   30  O   UNL     1      -6.686   9.832  71.060  1.00  0.00    -0.267 OA 
HETATM   31  C   UNL     1      -6.347  10.500  69.848  1.00  0.00    -0.104 C  
ENDBRANCH  21  30
ENDBRANCH   7  20
TORSDOF 4
ENDMDL
MODEL       49
REMARK 921   NORMALIZED FREE ENERGY PREDICTED BY IDOCK:   -5.32 KCAL/MOL
REMARK 922        TOTAL FREE ENERGY PREDICTED BY IDOCK:   -7.32 KCAL/MOL
REMARK 923 INTER-LIGAND FREE ENERGY PREDICTED BY IDOCK:   -7.30 KCAL/MOL
REMARK 924 INTRA-LIGAND FREE ENERGY PREDICTED BY IDOCK:   -0.02 KCAL/MOL
REMARK 927      BINDING AFFINITY PREDICTED BY RF-SCORE:    0.00 PKD
ROOT
HETATM    1  C   UNL     1     -10.955  15.610  68.928  1.00  0.00    -0.266 C  
HETATM    2  C   UNL     1     -10.565  17.060  68.834  1.00  0.00    -0.328 C  
HETATM    3  O   UNL     1      -9.400  17.049  67.987  1.00  0.00    -0.235 OA 
HETATM    4  C   UNL     1      -8.825  15.801  67.998  1.00  0.00    -0.176 C  
HETATM    5  C   UNL     1      -9.617  14.913  68.908  1.00  0.00    -0.215 C  
HETATM    6  O   UNL     1      -7.778  15.518  67.439  1.00  0.00    -0.157 OA 
HETATM    7  C   UNL     1      -9.801  13.437  68.554  1.00  0.00    -0.178 C  
HETATM    8  C   UNL     1     -13.272   9.518  71.287  1.00  0.00    -0.328 C  
HETATM    9  C   UNL     1     -10.795  12.818  69.547  1.00  0.00     0.158 A  
HETATM   10  O   UNL     1     -12.032   9.506  70.550  1.00  0.00    -0.234 OA 
HETATM   11  C   UNL     1     -10.826  11.416  69.652  1.00  0.00    -0.107 A  
HETATM   12  C   UNL     1     -11.814  10.839  70.413  1.00  0.00    -0.358 A  
HETATM   13  C   UNL     1     -11.759  13.624  70.250  1.00  0.00    -0.259 A  
HETATM   14  C   UNL     1     -12.727  11.599  71.096  1.00  0.00    -0.325 A  
HETATM   15  C   UNL     1     -11.761  15.152  70.133  1.00  0.00    -0.307 C  
HETATM   16  H   UNL     1     -13.583  15.371  70.708  1.00  0.00     0.000 HD 
HETATM   17  O   UNL     1     -13.639  10.834  71.757  1.00  0.00    -0.225 OA 
HETATM   18  C   UNL     1     -12.711  12.981  71.064  1.00  0.00    -0.347 A  
HETATM   19  O   UNL     1     -13.079  15.658  69.955  1.00  0.00    -0.129 OA 
ENDROOT
BRANCH   7  20
HETATM   20  C   UNL     1     -10.229  13.203  67.104  1.00  0.00    -0.244 A  
HETATM   21  C   UNL     1     -10.412  11.760  65.126  1.00  0.00    -0.283 A  
HETATM   22  C   UNL     1      -9.907  12.030  66.403  1.00  0.00    -0.238 A  
HETATM   23  C   UNL     1     -11.539  13.921  65.188  1.00  0.00    -0.335 A  
HETATM   24  C   UNL     1     -11.023  14.155  66.467  1.00  0.00    -0.309 A  
HETATM   25  C   UNL     1     -11.230  12.722  64.503  1.00  0.00    -0.333 A  
BRANCH  23  26
HETATM   26  O   UNL     1     -12.328  14.840  64.533  1.00  0.00    -0.479 OA 
HETATM   27  C   UNL     1     -11.708  16.082  64.208  1.00  0.00    -0.081 C  
ENDBRANCH  23  26
BRANCH  25  28
HETATM   28  O   UNL     1     -11.858  12.578  63.286  1.00  0.00    -0.482 OA 
HETATM   29  C   UNL     1     -12.993  11.726  63.218  1.00  0.00     0.063 C  
ENDBRANCH  25  28
BRANCH  21  30
HETATM   30  O   UNL     1     -10.171  10.571  64.487  1.00  0.00    -0.348 OA 
HETATM   31  C   UNL     1      -8.847  10.299  64.035  1.00  0.00    -0.221 C  
ENDBRANCH  21  30
ENDBRANCH   7  20
TORSDOF 4
ENDMDL
MODEL       50
REMARK 921   NORMALIZED FREE ENERGY PREDICTED BY IDOCK:   -5.30 KCAL/MOL
REMARK 922        TOTAL FREE ENERGY PREDICTED BY IDOCK:   -7.29 KCAL/MOL
REMARK 923 INTER-LIGAND FREE ENERGY PREDICTED BY IDOCK:   -7.05 KCAL/MOL
REMARK 924 INTRA-LIGAND FREE ENERGY PREDICTED BY IDOCK:   -0.24 KCAL/MOL
REMARK 927      BINDING AFFINITY PREDICTED BY RF-SCORE:    0.00 PKD
ROOT
HETATM    1  C   UNL     1     -11.678  13.107  65.439  1.00  0.00    -0.383 C  
HETATM    2  C   UNL     1     -13.020  13.718  65.738  1.00  0.00    -0.256 C  
HETATM    3  O   UNL     1     -12.896  14.174  67.099  1.00  0.00     0.236 OA 
HETATM    4  C   UNL     1     -11.884  13.492  67.731  1.00  0.00    -0.362 C  
HETATM    5  C   UNL     1     -11.293  12.506  66.769  1.00  0.00    -0.390 C  
HETATM    6  O   UNL     1     -11.606  13.607  68.913  1.00  0.00    -0.274 OA 
HETATM    7  C   UNL     1      -9.791  12.225  66.801  1.00  0.00    -0.218 C  
HETATM    8  C   UNL     1      -6.684   8.989  62.960  1.00  0.00    -0.090 C  
HETATM    9  C   UNL     1      -9.437  11.331  65.603  1.00  0.00    -0.254 A  
HETATM   10  O   UNL     1      -6.617   9.330  64.359  1.00  0.00    -0.082 OA 
HETATM   11  C   UNL     1      -8.210  10.645  65.641  1.00  0.00    -0.154 A  
HETATM   12  C   UNL     1      -7.804   9.970  64.515  1.00  0.00    -0.145 A  
HETATM   13  C   UNL     1     -10.258  11.295  64.421  1.00  0.00    -0.377 A  
HETATM   14  C   UNL     1      -8.586   9.919  63.390  1.00  0.00    -0.205 A  
HETATM   15  C   UNL     1     -11.588  12.053  64.348  1.00  0.00    -0.336 C  
HETATM   16  H   UNL     1     -11.670  12.081  62.426  1.00  0.00     0.000 HD 
HETATM   17  O   UNL     1      -7.985   9.232  62.379  1.00  0.00    -0.117 OA 
HETATM   18  C   UNL     1      -9.820  10.537  63.319  1.00  0.00    -0.309 A  
HETATM   19  O   UNL     1     -11.727  12.739  63.109  1.00  0.00    -0.472 OA 
ENDROOT
BRANCH   7  20
HETATM   20  C   UNL     1      -8.931  13.489  66.837  1.00  0.00    -0.219 A  
HETATM   21  C   UNL     1      -8.584  15.865  66.320  1.00  0.00    -0.313 A  
HETATM   22  C   UNL     1      -9.301  14.671  66.175  1.00  0.00    -0.265 A  
HETATM   23  C   UNL     1      -7.024  14.674  67.767  1.00  0.00    -0.177 A  
HETATM   24  C   UNL     1      -7.769  13.501  67.607  1.00  0.00    -0.180 A  
HETATM   25  C   UNL     1      -7.423  15.866  67.117  1.00  0.00    -0.227 A  
BRANCH  23  26
HETATM   26  O   UNL     1      -5.873  14.718  68.521  1.00  0.00    -0.087 OA 
HETATM   27  C   UNL     1      -6.032  14.510  69.923  1.00  0.00    -0.132 C  
ENDBRANCH  23  26
BRANCH  25  28
HETATM   28  O   UNL     1      -6.652  16.967  67.414  1.00  0.00    -0.132 OA 
HETATM   29  C   UNL     1      -7.133  17.873  68.397  1.00  0.00    -0.245 C  
ENDBRANCH  25  28
BRANCH  21  30
HETATM   30  O   UNL     1      -9.004  17.038  65.747  1.00  0.00    -0.526 OA 
HETATM   31  C   UNL     1     -10.061  17.759  66.374  1.00  0.00    -0.357 C  
ENDBRANCH  21  30
ENDBRANCH   7  20
TORSDOF 4
ENDMDL
MODEL       51
REMARK 921   NORMALIZED FREE ENERGY PREDICTED BY IDOCK:   -5.30 KCAL/MOL
REMARK 922        TOTAL FREE ENERGY PREDICTED BY IDOCK:   -7.29 KCAL/MOL
REMARK 923 INTER-LIGAND FREE ENERGY PREDICTED BY IDOCK:   -6.54 KCAL/MOL
REMARK 924 INTRA-LIGAND FREE ENERGY PREDICTED BY IDOCK:   -0.74 KCAL/MOL
REMARK 927      BINDING AFFINITY PREDICTED BY RF-SCORE:    0.00 PKD
ROOT
HETATM    1  C   UNL     1     -11.666  14.161  68.904  1.00  0.00    -0.369 C  
HETATM    2  C   UNL     1     -12.973  14.429  69.598  1.00  0.00     0.503 C  
HETATM    3  O   UNL     1     -12.751  15.680  70.278  1.00  0.00    -0.385 OA 
HETATM    4  C   UNL     1     -11.404  15.887  70.450  1.00  0.00    -0.385 C  
HETATM    5  C   UNL     1     -10.660  14.718  69.881  1.00  0.00    -0.090 C  
HETATM    6  O   UNL     1     -10.922  16.822  71.068  1.00  0.00     0.098 OA 
HETATM    7  C   UNL     1      -9.319  14.941  69.181  1.00  0.00    -0.145 C  
HETATM    8  C   UNL     1      -6.154  10.962  66.178  1.00  0.00    -0.135 C  
HETATM    9  C   UNL     1      -8.877  13.618  68.540  1.00  0.00    -0.099 A  
HETATM   10  O   UNL     1      -5.902  12.142  66.967  1.00  0.00    -0.170 OA 
HETATM   11  C   UNL     1      -7.525  13.487  68.179  1.00  0.00    -0.132 A  
HETATM   12  C   UNL     1      -7.144  12.379  67.462  1.00  0.00    -0.145 A  
HETATM   13  C   UNL     1      -9.828  12.594  68.193  1.00  0.00    -0.226 A  
HETATM   14  C   UNL     1      -8.040  11.392  67.139  1.00  0.00    -0.155 A  
HETATM   15  C   UNL     1     -11.311  12.724  68.556  1.00  0.00    -0.291 C  
HETATM   16  H   UNL     1     -11.925  11.454  67.248  1.00  0.00     0.000 HD 
HETATM   17  O   UNL     1      -7.469  10.403  66.398  1.00  0.00    -0.107 OA 
HETATM   18  C   UNL     1      -9.370  11.450  67.512  1.00  0.00    -0.166 A  
HETATM   19  O   UNL     1     -12.147  12.352  67.466  1.00  0.00    -0.491 OA 
ENDROOT
BRANCH   7  20
HETATM   20  C   UNL     1      -9.342  16.083  68.164  1.00  0.00    -0.200 A  
HETATM   21  C   UNL     1     -10.099  17.049  66.038  1.00  0.00    -0.302 A  
HETATM   22  C   UNL     1      -9.962  15.963  66.911  1.00  0.00    -0.253 A  
HETATM   23  C   UNL     1      -8.898  18.418  67.658  1.00  0.00    -0.263 A  
HETATM   24  C   UNL     1      -8.786  17.314  68.510  1.00  0.00    -0.269 A  
HETATM   25  C   UNL     1      -9.551  18.292  66.409  1.00  0.00    -0.305 A  
BRANCH  23  26
HETATM   26  O   UNL     1      -8.362  19.647  67.972  1.00  0.00    -0.297 OA 
HETATM   27  C   UNL     1      -7.344  19.652  68.970  1.00  0.00    -0.328 C  
ENDBRANCH  23  26
BRANCH  25  28
HETATM   28  O   UNL     1      -9.661  19.465  65.698  1.00  0.00    -0.351 OA 
HETATM   29  C   UNL     1     -10.890  20.175  65.770  1.00  0.00    -0.053 C  
ENDBRANCH  25  28
BRANCH  21  30
HETATM   30  O   UNL     1     -10.790  16.948  64.857  1.00  0.00    -0.715 OA 
HETATM   31  C   UNL     1     -11.309  15.676  64.481  1.00  0.00    -0.320 C  
ENDBRANCH  21  30
ENDBRANCH   7  20
TORSDOF 4
ENDMDL
MODEL       52
REMARK 921   NORMALIZED FREE ENERGY PREDICTED BY IDOCK:   -5.24 KCAL/MOL
REMARK 922        TOTAL FREE ENERGY PREDICTED BY IDOCK:   -7.22 KCAL/MOL
REMARK 923 INTER-LIGAND FREE ENERGY PREDICTED BY IDOCK:   -6.45 KCAL/MOL
REMARK 924 INTRA-LIGAND FREE ENERGY PREDICTED BY IDOCK:   -0.77 KCAL/MOL
REMARK 927      BINDING AFFINITY PREDICTED BY RF-SCORE:    0.00 PKD
ROOT
HETATM    1  C   UNL     1     -11.939   7.361  71.542  1.00  0.00    -0.337 C  
HETATM    2  C   UNL     1     -13.433   7.223  71.655  1.00  0.00    -0.354 C  
HETATM    3  O   UNL     1     -13.933   8.478  71.154  1.00  0.00    -0.210 OA 
HETATM    4  C   UNL     1     -12.954   9.438  71.235  1.00  0.00    -0.301 C  
HETATM    5  C   UNL     1     -11.726   8.825  71.836  1.00  0.00    -0.429 C  
HETATM    6  O   UNL     1     -13.117  10.616  70.962  1.00  0.00    -0.362 OA 
HETATM    7  C   UNL     1     -10.345   9.262  71.347  1.00  0.00    -0.392 C  
HETATM    8  C   UNL     1      -5.135   6.875  72.772  1.00  0.00    -0.037 C  
HETATM    9  C   UNL     1      -9.289   8.352  71.991  1.00  0.00    -0.332 A  
HETATM   10  O   UNL     1      -5.641   8.172  72.397  1.00  0.00    -0.036 OA 
HETATM   11  C   UNL     1      -7.955   8.796  71.989  1.00  0.00    -0.050 A  
HETATM   12  C   UNL     1      -6.977   7.930  72.414  1.00  0.00    -0.075 A  
HETATM   13  C   UNL     1      -9.618   7.031  72.461  1.00  0.00    -0.166 A  
HETATM   14  C   UNL     1      -7.283   6.676  72.876  1.00  0.00    -0.080 A  
HETATM   15  C   UNL     1     -11.062   6.516  72.451  1.00  0.00    -0.259 C  
HETATM   16  H   UNL     1     -10.585   4.654  72.528  1.00  0.00     0.000 HD 
HETATM   17  O   UNL     1      -6.170   5.968  73.214  1.00  0.00    -0.059 OA 
HETATM   18  C   UNL     1      -8.582   6.209  72.943  1.00  0.00    -0.123 A  
HETATM   19  O   UNL     1     -11.134   5.182  71.960  1.00  0.00    -0.145 OA 
ENDROOT
BRANCH   7  20
HETATM   20  C   UNL     1     -10.215   9.289  69.823  1.00  0.00    -0.225 A  
HETATM   21  C   UNL     1     -10.383   8.189  67.634  1.00  0.00    -0.247 A  
HETATM   22  C   UNL     1     -10.368   8.139  69.033  1.00  0.00    -0.229 A  
HETATM   23  C   UNL     1     -10.004  10.593  67.783  1.00  0.00    -0.167 A  
HETATM   24  C   UNL     1     -10.003  10.508  69.179  1.00  0.00    -0.236 A  
HETATM   25  C   UNL     1     -10.188   9.431  66.998  1.00  0.00    -0.255 A  
BRANCH  23  26
HETATM   26  O   UNL     1      -9.799  11.781  67.118  1.00  0.00    -0.191 OA 
HETATM   27  C   UNL     1      -8.505  12.363  67.256  1.00  0.00    -0.183 C  
ENDBRANCH  23  26
BRANCH  25  28
HETATM   28  O   UNL     1     -10.244   9.657  65.641  1.00  0.00    -0.253 OA 
HETATM   29  C   UNL     1      -9.117   9.293  64.857  1.00  0.00    -0.170 C  
ENDBRANCH  25  28
BRANCH  21  30
HETATM   30  O   UNL     1     -10.628   7.077  66.871  1.00  0.00    -0.296 OA 
HETATM   31  C   UNL     1     -10.628   5.802  67.509  1.00  0.00    -0.253 C  
ENDBRANCH  21  30
ENDBRANCH   7  20
TORSDOF 4
ENDMDL
MODEL       53
REMARK 921   NORMALIZED FREE ENERGY PREDICTED BY IDOCK:   -5.24 KCAL/MOL
REMARK 922        TOTAL FREE ENERGY PREDICTED BY IDOCK:   -7.22 KCAL/MOL
REMARK 923 INTER-LIGAND FREE ENERGY PREDICTED BY IDOCK:   -6.46 KCAL/MOL
REMARK 924 INTRA-LIGAND FREE ENERGY PREDICTED BY IDOCK:   -0.76 KCAL/MOL
REMARK 927      BINDING AFFINITY PREDICTED BY RF-SCORE:    0.00 PKD
ROOT
HETATM    1  C   UNL     1      -7.969  11.437  68.546  1.00  0.00    -0.143 C  
HETATM    2  C   UNL     1      -6.961  11.248  69.647  1.00  0.00    -0.056 C  
HETATM    3  O   UNL     1      -7.369  10.020  70.280  1.00  0.00    -0.154 OA 
HETATM    4  C   UNL     1      -8.692   9.769  70.007  1.00  0.00    -0.209 C  
HETATM    5  C   UNL     1      -9.230  10.884  69.162  1.00  0.00    -0.077 C  
HETATM    6  O   UNL     1      -9.331   8.843  70.479  1.00  0.00    -0.171 OA 
HETATM    7  C   UNL     1     -10.256  10.579  68.071  1.00  0.00    -0.195 C  
HETATM    8  C   UNL     1     -12.329  14.304  63.984  1.00  0.00    -0.244 C  
HETATM    9  C   UNL     1     -10.489  11.857  67.251  1.00  0.00    -0.248 A  
HETATM   10  O   UNL     1     -12.803  13.149  64.705  1.00  0.00    -0.701 OA 
HETATM   11  C   UNL     1     -11.646  11.920  66.455  1.00  0.00    -0.328 A  
HETATM   12  C   UNL     1     -11.791  12.982  65.595  1.00  0.00    -0.399 A  
HETATM   13  C   UNL     1      -9.500  12.901  67.185  1.00  0.00    -0.229 A  
HETATM   14  C   UNL     1     -10.861  13.987  65.536  1.00  0.00    -0.309 A  
HETATM   15  C   UNL     1      -8.219  12.843  68.025  1.00  0.00    -0.168 C  
HETATM   16  H   UNL     1      -7.233  14.079  66.929  1.00  0.00     0.000 HD 
HETATM   17  O   UNL     1     -11.175  14.921  64.597  1.00  0.00    -0.379 OA 
HETATM   18  C   UNL     1      -9.730  13.996  66.331  1.00  0.00    -0.309 A  
HETATM   19  O   UNL     1      -7.076  13.200  67.255  1.00  0.00    -0.135 OA 
ENDROOT
BRANCH   7  20
HETATM   20  C   UNL     1      -9.871   9.397  67.181  1.00  0.00    -0.242 A  
HETATM   21  C   UNL     1      -8.473   8.395  65.428  1.00  0.00    -0.176 A  
HETATM   22  C   UNL     1      -8.922   9.506  66.152  1.00  0.00    -0.191 A  
HETATM   23  C   UNL     1     -10.008   7.014  66.724  1.00  0.00    -0.197 A  
HETATM   24  C   UNL     1     -10.428   8.144  67.433  1.00  0.00    -0.356 A  
HETATM   25  C   UNL     1      -9.030   7.132  65.708  1.00  0.00    -0.008 A  
BRANCH  23  26
HETATM   26  O   UNL     1     -10.538   5.764  66.951  1.00  0.00    -0.254 OA 
HETATM   27  C   UNL     1     -10.325   5.218  68.250  1.00  0.00    -0.111 C  
ENDBRANCH  23  26
BRANCH  25  28
HETATM   28  O   UNL     1      -8.648   5.940  65.137  1.00  0.00    -0.149 OA 
HETATM   29  C   UNL     1      -7.379   5.408  65.491  1.00  0.00    -0.073 C  
ENDBRANCH  25  28
BRANCH  21  30
HETATM   30  O   UNL     1      -7.477   8.494  64.490  1.00  0.00    -0.095 OA 
HETATM   31  C   UNL     1      -7.842   8.742  63.135  1.00  0.00    -0.149 C  
ENDBRANCH  21  30
ENDBRANCH   7  20
TORSDOF 4
ENDMDL
MODEL       54
REMARK 921   NORMALIZED FREE ENERGY PREDICTED BY IDOCK:   -5.23 KCAL/MOL
REMARK 922        TOTAL FREE ENERGY PREDICTED BY IDOCK:   -7.21 KCAL/MOL
REMARK 923 INTER-LIGAND FREE ENERGY PREDICTED BY IDOCK:   -6.51 KCAL/MOL
REMARK 924 INTRA-LIGAND FREE ENERGY PREDICTED BY IDOCK:   -0.70 KCAL/MOL
REMARK 927      BINDING AFFINITY PREDICTED BY RF-SCORE:    0.00 PKD
ROOT
HETATM    1  C   UNL     1      -9.988  13.470  67.926  1.00  0.00    -0.245 C  
HETATM    2  C   UNL     1      -9.480  14.819  67.496  1.00  0.00    -0.197 C  
HETATM    3  O   UNL     1      -8.162  14.543  66.984  1.00  0.00    -0.200 OA 
HETATM    4  C   UNL     1      -7.698  13.356  67.499  1.00  0.00    -0.176 C  
HETATM    5  C   UNL     1      -8.735  12.795  68.424  1.00  0.00    -0.119 C  
HETATM    6  O   UNL     1      -6.579  12.911  67.308  1.00  0.00    -0.157 OA 
HETATM    7  C   UNL     1      -8.947  11.282  68.495  1.00  0.00    -0.166 C  
HETATM    8  C   UNL     1     -13.215   8.410  71.394  1.00  0.00    -0.219 C  
HETATM    9  C   UNL     1     -10.178  11.003  69.369  1.00  0.00    -0.097 A  
HETATM   10  O   UNL     1     -11.849   8.166  71.001  1.00  0.00    -0.290 OA 
HETATM   11  C   UNL     1     -10.336   9.702  69.878  1.00  0.00    -0.282 A  
HETATM   12  C   UNL     1     -11.507   9.392  70.526  1.00  0.00    -0.262 A  
HETATM   13  C   UNL     1     -11.209  11.990  69.557  1.00  0.00    -0.220 A  
HETATM   14  C   UNL     1     -12.487  10.329  70.722  1.00  0.00    -0.346 A  
HETATM   15  C   UNL     1     -11.070  13.409  68.992  1.00  0.00    -0.249 C  
HETATM   16  H   UNL     1     -12.953  13.802  69.039  1.00  0.00     0.000 HD 
HETATM   17  O   UNL     1     -13.577   9.808  71.352  1.00  0.00    -0.342 OA 
HETATM   18  C   UNL     1     -12.361  11.634  70.283  1.00  0.00    -0.339 A  
HETATM   19  O   UNL     1     -12.276  13.841  68.372  1.00  0.00    -0.340 OA 
ENDROOT
BRANCH   7  20
HETATM   20  C   UNL     1      -9.064  10.616  67.123  1.00  0.00    -0.154 A  
HETATM   21  C   UNL     1     -10.027  10.501  64.867  1.00  0.00    -0.334 A  
HETATM   22  C   UNL     1     -10.010  11.019  66.168  1.00  0.00    -0.277 A  
HETATM   23  C   UNL     1      -8.154   9.068  65.486  1.00  0.00    -0.110 A  
HETATM   24  C   UNL     1      -8.160   9.614  66.773  1.00  0.00    -0.113 A  
HETATM   25  C   UNL     1      -9.095   9.503  64.522  1.00  0.00    -0.197 A  
BRANCH  23  26
HETATM   26  O   UNL     1      -7.274   8.078  65.110  1.00  0.00    -0.062 OA 
HETATM   27  C   UNL     1      -5.893   8.435  65.103  1.00  0.00    -0.044 C  
ENDBRANCH  23  26
BRANCH  25  28
HETATM   28  O   UNL     1      -8.937   8.946  63.273  1.00  0.00    -0.035 OA 
HETATM   29  C   UNL     1      -8.122   9.633  62.335  1.00  0.00    -0.128 C  
ENDBRANCH  25  28
BRANCH  21  30
HETATM   30  O   UNL     1     -10.892  10.968  63.911  1.00  0.00    -0.356 OA 
HETATM   31  C   UNL     1     -10.769  12.323  63.488  1.00  0.00    -0.451 C  
ENDBRANCH  21  30
ENDBRANCH   7  20
TORSDOF 4
ENDMDL
MODEL       55
REMARK 921   NORMALIZED FREE ENERGY PREDICTED BY IDOCK:   -5.19 KCAL/MOL
REMARK 922        TOTAL FREE ENERGY PREDICTED BY IDOCK:   -7.15 KCAL/MOL
REMARK 923 INTER-LIGAND FREE ENERGY PREDICTED BY IDOCK:   -6.38 KCAL/MOL
REMARK 924 INTRA-LIGAND FREE ENERGY PREDICTED BY IDOCK:   -0.77 KCAL/MOL
REMARK 927      BINDING AFFINITY PREDICTED BY RF-SCORE:    0.00 PKD
ROOT
HETATM    1  C   UNL     1      -7.876   9.491  65.853  1.00  0.00    -0.100 C  
HETATM    2  C   UNL     1      -7.096   9.555  64.568  1.00  0.00    -0.107 C  
HETATM    3  O   UNL     1      -7.965  10.276  63.674  1.00  0.00    -0.160 OA 
HETATM    4  C   UNL     1      -9.263  10.195  64.115  1.00  0.00    -0.270 C  
HETATM    5  C   UNL     1      -9.297   9.365  65.362  1.00  0.00    -0.311 C  
HETATM    6  O   UNL     1     -10.227  10.639  63.513  1.00  0.00    -0.295 OA 
HETATM    7  C   UNL     1     -10.272   9.725  66.485  1.00  0.00    -0.289 C  
HETATM    8  C   UNL     1     -10.539   7.337  71.879  1.00  0.00    -0.212 C  
HETATM    9  C   UNL     1      -9.966   8.836  67.699  1.00  0.00    -0.247 A  
HETATM   10  O   UNL     1     -11.451   7.940  70.939  1.00  0.00    -0.280 OA 
HETATM   11  C   UNL     1     -10.956   8.723  68.691  1.00  0.00     0.091 A  
HETATM   12  C   UNL     1     -10.641   8.065  69.856  1.00  0.00    -0.242 A  
HETATM   13  C   UNL     1      -8.668   8.244  67.892  1.00  0.00    -0.135 A  
HETATM   14  C   UNL     1      -9.413   7.486  70.042  1.00  0.00    -0.161 A  
HETATM   15  C   UNL     1      -7.565   8.373  66.835  1.00  0.00    -0.091 C  
HETATM   16  H   UNL     1      -6.118   7.993  68.043  1.00  0.00     0.000 HD 
HETATM   17  O   UNL     1      -9.295   6.918  71.274  1.00  0.00    -0.164 OA 
HETATM   18  C   UNL     1      -8.422   7.528  69.079  1.00  0.00    -0.133 A  
HETATM   19  O   UNL     1      -6.312   8.691  67.429  1.00  0.00    -0.055 OA 
ENDROOT
BRANCH   7  20
HETATM   20  C   UNL     1     -10.262  11.209  66.853  1.00  0.00    -0.260 A  
HETATM   21  C   UNL     1      -9.124  13.190  67.752  1.00  0.00    -0.200 A  
HETATM   22  C   UNL     1      -9.193  11.809  67.536  1.00  0.00    -0.175 A  
HETATM   23  C   UNL     1     -11.288  13.403  66.649  1.00  0.00    -0.323 A  
HETATM   24  C   UNL     1     -11.319  12.020  66.442  1.00  0.00    -0.411 A  
HETATM   25  C   UNL     1     -10.191  14.000  67.313  1.00  0.00    -0.260 A  
BRANCH  23  26
HETATM   26  O   UNL     1     -12.315  14.230  66.253  1.00  0.00    -0.443 OA 
HETATM   27  C   UNL     1     -12.601  14.253  64.857  1.00  0.00    -0.324 C  
ENDBRANCH  23  26
BRANCH  25  28
HETATM   28  O   UNL     1     -10.242  15.373  67.388  1.00  0.00    -0.243 OA 
HETATM   29  C   UNL     1     -10.664  15.959  68.611  1.00  0.00    -0.274 C  
ENDBRANCH  25  28
BRANCH  21  30
HETATM   30  O   UNL     1      -8.032  13.780  68.335  1.00  0.00    -0.135 OA 
HETATM   31  C   UNL     1      -6.776  13.691  67.670  1.00  0.00    -0.174 C  
ENDBRANCH  21  30
ENDBRANCH   7  20
TORSDOF 4
ENDMDL
MODEL       56
REMARK 921   NORMALIZED FREE ENERGY PREDICTED BY IDOCK:   -5.15 KCAL/MOL
REMARK 922        TOTAL FREE ENERGY PREDICTED BY IDOCK:   -7.11 KCAL/MOL
REMARK 923 INTER-LIGAND FREE ENERGY PREDICTED BY IDOCK:   -6.32 KCAL/MOL
REMARK 924 INTRA-LIGAND FREE ENERGY PREDICTED BY IDOCK:   -0.79 KCAL/MOL
REMARK 927      BINDING AFFINITY PREDICTED BY RF-SCORE:    0.00 PKD
ROOT
HETATM    1  C   UNL     1     -11.598  13.083  68.086  1.00  0.00    -0.379 C  
HETATM    2  C   UNL     1     -12.443  13.878  69.043  1.00  0.00     0.123 C  
HETATM    3  O   UNL     1     -12.359  13.135  70.275  1.00  0.00    -0.310 OA 
HETATM    4  C   UNL     1     -12.001  11.835  70.014  1.00  0.00    -0.344 C  
HETATM    5  C   UNL     1     -11.849  11.664  68.533  1.00  0.00    -0.357 C  
HETATM    6  O   UNL     1     -11.935  10.954  70.856  1.00  0.00    -0.328 OA 
HETATM    7  C   UNL     1     -10.759  10.742  67.985  1.00  0.00    -0.270 C  
HETATM    8  C   UNL     1      -9.164  10.064  62.340  1.00  0.00    -0.296 C  
HETATM    9  C   UNL     1     -10.710  10.899  66.459  1.00  0.00    -0.270 A  
HETATM   10  O   UNL     1      -9.194   9.263  63.538  1.00  0.00    -0.056 OA 
HETATM   11  C   UNL     1     -10.064   9.893  65.719  1.00  0.00    -0.317 A  
HETATM   12  C   UNL     1      -9.869  10.093  64.374  1.00  0.00    -0.237 A  
HETATM   13  C   UNL     1     -11.184  12.092  65.808  1.00  0.00    -0.384 A  
HETATM   14  C   UNL     1     -10.330  11.220  63.744  1.00  0.00    -0.395 A  
HETATM   15  C   UNL     1     -11.871  13.214  66.596  1.00  0.00    -0.391 C  
HETATM   16  H   UNL     1     -11.559  14.575  65.274  1.00  0.00     0.000 HD 
HETATM   17  O   UNL     1     -10.003  11.239  62.422  1.00  0.00     0.026 OA 
HETATM   18  C   UNL     1     -11.012  12.216  64.416  1.00  0.00    -0.375 A  
HETATM   19  O   UNL     1     -11.388  14.494  66.205  1.00  0.00    -0.340 OA 
ENDROOT
BRANCH   7  20
HETATM   20  C   UNL     1      -9.388  10.968  68.622  1.00  0.00    -0.196 A  
HETATM   21  C   UNL     1      -7.538  10.226  70.057  1.00  0.00    -0.103 A  
HETATM   22  C   UNL     1      -8.846  10.092  69.577  1.00  0.00    -0.198 A  
HETATM   23  C   UNL     1      -7.301  12.214  68.665  1.00  0.00    -0.109 A  
HETATM   24  C   UNL     1      -8.609  12.045  68.200  1.00  0.00    -0.173 A  
HETATM   25  C   UNL     1      -6.757  11.308  69.606  1.00  0.00    -0.122 A  
BRANCH  23  26
HETATM   26  O   UNL     1      -6.507  13.266  68.265  1.00  0.00    -0.079 OA 
HETATM   27  C   UNL     1      -7.031  14.571  68.497  1.00  0.00    -0.105 C  
ENDBRANCH  23  26
BRANCH  25  28
HETATM   28  O   UNL     1      -5.438  11.537  69.927  1.00  0.00    -0.062 OA 
HETATM   29  C   UNL     1      -5.159  12.276  71.109  1.00  0.00    -0.143 C  
ENDBRANCH  25  28
BRANCH  21  30
HETATM   30  O   UNL     1      -6.984   9.313  70.917  1.00  0.00    -0.094 OA 
HETATM   31  C   UNL     1      -6.379   8.145  70.368  1.00  0.00    -0.036 C  
ENDBRANCH  21  30
ENDBRANCH   7  20
TORSDOF 4
ENDMDL
MODEL       57
REMARK 921   NORMALIZED FREE ENERGY PREDICTED BY IDOCK:   -5.13 KCAL/MOL
REMARK 922        TOTAL FREE ENERGY PREDICTED BY IDOCK:   -7.09 KCAL/MOL
REMARK 923 INTER-LIGAND FREE ENERGY PREDICTED BY IDOCK:   -7.18 KCAL/MOL
REMARK 924 INTRA-LIGAND FREE ENERGY PREDICTED BY IDOCK:    0.09 KCAL/MOL
REMARK 927      BINDING AFFINITY PREDICTED BY RF-SCORE:    0.00 PKD
ROOT
HETATM    1  C   UNL     1      -9.602  11.405  65.007  1.00  0.00    -0.250 C  
HETATM    2  C   UNL     1      -9.679  12.242  63.759  1.00  0.00    -0.048 C  
HETATM    3  O   UNL     1     -10.966  12.882  63.853  1.00  0.00    -0.388 OA 
HETATM    4  C   UNL     1     -11.784  12.169  64.696  1.00  0.00    -0.332 C  
HETATM    5  C   UNL     1     -11.035  10.970  65.193  1.00  0.00    -0.103 C  
HETATM    6  O   UNL     1     -12.959  12.426  64.900  1.00  0.00    -0.762 OA 
HETATM    7  C   UNL     1     -11.252  10.484  66.627  1.00  0.00     0.135 C  
HETATM    8  C   UNL     1      -8.232   6.273  69.461  1.00  0.00    -0.117 C  
HETATM    9  C   UNL     1     -10.235   9.372  66.923  1.00  0.00    -0.318 A  
HETATM   10  O   UNL     1      -9.568   6.816  69.478  1.00  0.00    -0.148 OA 
HETATM   11  C   UNL     1     -10.488   8.530  68.021  1.00  0.00    -0.249 A  
HETATM   12  C   UNL     1      -9.515   7.637  68.397  1.00  0.00    -0.150 A  
HETATM   13  C   UNL     1      -8.996   9.270  66.196  1.00  0.00    -0.202 A  
HETATM   14  C   UNL     1      -8.339   7.523  67.702  1.00  0.00    -0.118 A  
HETATM   15  C   UNL     1      -8.687  10.191  65.011  1.00  0.00    -0.173 C  
HETATM   16  H   UNL     1      -6.782   9.929  65.076  1.00  0.00     0.000 HD 
HETATM   17  O   UNL     1      -7.500   6.608  68.260  1.00  0.00    -0.091 OA 
HETATM   18  C   UNL     1      -8.061   8.294  66.589  1.00  0.00    -0.102 A  
HETATM   19  O   UNL     1      -7.354  10.688  65.073  1.00  0.00    -0.055 OA 
ENDROOT
BRANCH   7  20
HETATM   20  C   UNL     1     -11.189  11.601  67.669  1.00  0.00    -0.345 A  
HETATM   21  C   UNL     1     -10.604  13.893  68.326  1.00  0.00    -0.257 A  
HETATM   22  C   UNL     1     -10.544  12.824  67.425  1.00  0.00    -0.241 A  
HETATM   23  C   UNL     1     -11.922  12.480  69.812  1.00  0.00    -0.289 A  
HETATM   24  C   UNL     1     -11.850  11.436  68.885  1.00  0.00    -0.413 A  
HETATM   25  C   UNL     1     -11.292  13.718  69.543  1.00  0.00    -0.224 A  
BRANCH  23  26
HETATM   26  O   UNL     1     -12.568  12.349  71.021  1.00  0.00    -0.360 OA 
HETATM   27  C   UNL     1     -12.864  11.016  71.433  1.00  0.00    -0.443 C  
ENDBRANCH  23  26
BRANCH  25  28
HETATM   28  O   UNL     1     -11.499  14.688  70.497  1.00  0.00    -0.268 OA 
HETATM   29  C   UNL     1     -12.664  15.495  70.385  1.00  0.00    -0.338 C  
ENDBRANCH  25  28
BRANCH  21  30
HETATM   30  O   UNL     1     -10.052  15.116  68.039  1.00  0.00    -0.220 OA 
HETATM   31  C   UNL     1     -10.642  15.901  67.007  1.00  0.00    -0.306 C  
ENDBRANCH  21  30
ENDBRANCH   7  20
TORSDOF 4
ENDMDL
MODEL       58
REMARK 921   NORMALIZED FREE ENERGY PREDICTED BY IDOCK:   -5.11 KCAL/MOL
REMARK 922        TOTAL FREE ENERGY PREDICTED BY IDOCK:   -7.06 KCAL/MOL
REMARK 923 INTER-LIGAND FREE ENERGY PREDICTED BY IDOCK:   -6.34 KCAL/MOL
REMARK 924 INTRA-LIGAND FREE ENERGY PREDICTED BY IDOCK:   -0.72 KCAL/MOL
REMARK 927      BINDING AFFINITY PREDICTED BY RF-SCORE:    0.00 PKD
ROOT
HETATM    1  C   UNL     1     -11.707  10.906  70.147  1.00  0.00    -0.433 C  
HETATM    2  C   UNL     1     -12.605  11.299  71.287  1.00  0.00    -0.382 C  
HETATM    3  O   UNL     1     -12.627  10.129  72.128  1.00  0.00    -0.328 OA 
HETATM    4  C   UNL     1     -12.275   9.021  71.396  1.00  0.00    -0.323 C  
HETATM    5  C   UNL     1     -12.017   9.439  69.981  1.00  0.00     0.202 C  
HETATM    6  O   UNL     1     -12.288   7.878  71.824  1.00  0.00    -0.299 OA 
HETATM    7  C   UNL     1     -10.908   8.757  69.180  1.00  0.00    -0.074 C  
HETATM    8  C   UNL     1      -8.913  10.280  63.835  1.00  0.00    -0.237 C  
HETATM    9  C   UNL     1     -10.743   9.499  67.846  1.00  0.00    -0.285 A  
HETATM   10  O   UNL     1      -9.047   9.074  64.614  1.00  0.00    -0.137 OA 
HETATM   11  C   UNL     1     -10.063   8.836  66.809  1.00  0.00    -0.359 A  
HETATM   12  C   UNL     1      -9.766   9.540  65.667  1.00  0.00    -0.290 A  
HETATM   13  C   UNL     1     -11.145  10.873  67.693  1.00  0.00    -0.376 A  
HETATM   14  C   UNL     1     -10.157  10.844  65.508  1.00  0.00    -0.267 A  
HETATM   15  C   UNL     1     -11.867  11.625  68.817  1.00  0.00    -0.325 C  
HETATM   16  H   UNL     1     -11.432  13.381  68.163  1.00  0.00     0.000 HD 
HETATM   17  O   UNL     1      -9.732  11.365  64.324  1.00  0.00    -0.234 OA 
HETATM   18  C   UNL     1     -10.868  11.526  66.477  1.00  0.00    -0.335 A  
HETATM   19  O   UNL     1     -11.332  12.932  68.994  1.00  0.00    -0.261 OA 
ENDROOT
BRANCH   7  20
HETATM   20  C   UNL     1      -9.583   8.650  69.936  1.00  0.00    -0.174 A  
HETATM   21  C   UNL     1      -7.882   7.324  71.110  1.00  0.00    -0.093 A  
HETATM   22  C   UNL     1      -9.152   7.456  70.536  1.00  0.00    -0.157 A  
HETATM   23  C   UNL     1      -7.461   9.660  70.554  1.00  0.00    -0.132 A  
HETATM   24  C   UNL     1      -8.734   9.755  69.982  1.00  0.00    -0.237 A  
HETATM   25  C   UNL     1      -7.027   8.444  71.131  1.00  0.00    -0.063 A  
BRANCH  23  26
HETATM   26  O   UNL     1      -6.599  10.733  70.614  1.00  0.00    -0.332 OA 
HETATM   27  C   UNL     1      -6.673  11.659  69.532  1.00  0.00    -0.089 C  
ENDBRANCH  23  26
BRANCH  25  28
HETATM   28  O   UNL     1      -5.730   8.457  71.592  1.00  0.00    -0.035 OA 
HETATM   29  C   UNL     1      -5.521   8.619  72.988  1.00  0.00    -0.067 C  
ENDBRANCH  25  28
BRANCH  21  30
HETATM   30  O   UNL     1      -7.432   6.129  71.608  1.00  0.00    -0.091 OA 
HETATM   31  C   UNL     1      -8.391   5.180  72.066  1.00  0.00    -0.125 C  
ENDBRANCH  21  30
ENDBRANCH   7  20
TORSDOF 4
ENDMDL
MODEL       59
REMARK 921   NORMALIZED FREE ENERGY PREDICTED BY IDOCK:   -5.11 KCAL/MOL
REMARK 922        TOTAL FREE ENERGY PREDICTED BY IDOCK:   -7.06 KCAL/MOL
REMARK 923 INTER-LIGAND FREE ENERGY PREDICTED BY IDOCK:   -6.70 KCAL/MOL
REMARK 924 INTRA-LIGAND FREE ENERGY PREDICTED BY IDOCK:   -0.35 KCAL/MOL
REMARK 927      BINDING AFFINITY PREDICTED BY RF-SCORE:    0.00 PKD
ROOT
HETATM    1  C   UNL     1      -9.496   6.037  72.608  1.00  0.00    -0.150 C  
HETATM    2  C   UNL     1      -9.315   5.961  74.099  1.00  0.00    -0.139 C  
HETATM    3  O   UNL     1      -8.930   7.300  74.468  1.00  0.00    -0.197 OA 
HETATM    4  C   UNL     1      -8.416   7.957  73.376  1.00  0.00    -0.216 C  
HETATM    5  C   UNL     1      -8.430   7.025  72.203  1.00  0.00    -0.116 C  
HETATM    6  O   UNL     1      -7.931   9.076  73.408  1.00  0.00    -0.207 OA 
HETATM    7  C   UNL     1      -8.726   7.571  70.805  1.00  0.00    -0.140 C  
HETATM    8  C   UNL     1      -9.563   4.454  65.860  1.00  0.00    -0.188 C  
HETATM    9  C   UNL     1      -8.858   6.386  69.837  1.00  0.00    -0.142 A  
HETATM   10  O   UNL     1      -9.050   5.752  66.223  1.00  0.00    -0.140 OA 
HETATM   11  C   UNL     1      -8.752   6.653  68.461  1.00  0.00    -0.123 A  
HETATM   12  C   UNL     1      -9.026   5.639  67.576  1.00  0.00    -0.107 A  
HETATM   13  C   UNL     1      -9.213   5.070  70.300  1.00  0.00    -0.190 A  
HETATM   14  C   UNL     1      -9.351   4.379  68.008  1.00  0.00    -0.146 A  
HETATM   15  C   UNL     1      -9.357   4.760  71.795  1.00  0.00    -0.141 C  
HETATM   16  H   UNL     1     -10.435   3.187  71.546  1.00  0.00     0.000 HD 
HETATM   17  O   UNL     1      -9.619   3.535  66.974  1.00  0.00    -0.204 OA 
HETATM   18  C   UNL     1      -9.422   4.053  69.349  1.00  0.00    -0.259 A  
HETATM   19  O   UNL     1     -10.522   3.985  72.054  1.00  0.00    -0.105 OA 
ENDROOT
BRANCH   7  20
HETATM   20  C   UNL     1      -9.950   8.485  70.752  1.00  0.00    -0.230 A  
HETATM   21  C   UNL     1     -12.185   9.128  71.539  1.00  0.00    -0.349 A  
HETATM   22  C   UNL     1     -11.119   8.223  71.483  1.00  0.00    -0.315 A  
HETATM   23  C   UNL     1     -10.940  10.584  70.031  1.00  0.00    -0.286 A  
HETATM   24  C   UNL     1      -9.890   9.661  70.005  1.00  0.00    -0.286 A  
HETATM   25  C   UNL     1     -12.102  10.321  70.794  1.00  0.00    -0.353 A  
BRANCH  23  26
HETATM   26  O   UNL     1     -10.910  11.754  69.305  1.00  0.00    -0.215 OA 
HETATM   27  C   UNL     1     -11.211  11.640  67.916  1.00  0.00    -0.269 C  
ENDBRANCH  23  26
BRANCH  25  28
HETATM   28  O   UNL     1     -13.029  11.339  70.798  1.00  0.00    -0.226 OA 
HETATM   29  C   UNL     1     -13.106  12.166  71.951  1.00  0.00    -0.369 C  
ENDBRANCH  25  28
BRANCH  21  30
HETATM   30  O   UNL     1     -13.284   8.908  72.330  1.00  0.00    -0.411 OA 
HETATM   31  C   UNL     1     -14.397   8.218  71.770  1.00  0.00    -0.483 C  
ENDBRANCH  21  30
ENDBRANCH   7  20
TORSDOF 4
ENDMDL
MODEL       60
REMARK 921   NORMALIZED FREE ENERGY PREDICTED BY IDOCK:   -5.10 KCAL/MOL
REMARK 922        TOTAL FREE ENERGY PREDICTED BY IDOCK:   -7.05 KCAL/MOL
REMARK 923 INTER-LIGAND FREE ENERGY PREDICTED BY IDOCK:   -6.24 KCAL/MOL
REMARK 924 INTRA-LIGAND FREE ENERGY PREDICTED BY IDOCK:   -0.81 KCAL/MOL
REMARK 927      BINDING AFFINITY PREDICTED BY RF-SCORE:    0.00 PKD
ROOT
HETATM    1  C   UNL     1     -11.378   9.796  70.539  1.00  0.00    -0.382 C  
HETATM    2  C   UNL     1     -12.136   9.693  71.833  1.00  0.00    -0.306 C  
HETATM    3  O   UNL     1     -11.777   8.392  72.340  1.00  0.00    -0.370 OA 
HETATM    4  C   UNL     1     -11.333   7.596  71.312  1.00  0.00    -0.264 C  
HETATM    5  C   UNL     1     -11.404   8.374  70.034  1.00  0.00    -0.003 C  
HETATM    6  O   UNL     1     -11.040   6.417  71.429  1.00  0.00    -0.255 OA 
HETATM    7  C   UNL     1     -10.327   8.177  68.967  1.00  0.00    -0.229 C  
HETATM    8  C   UNL     1      -9.601  11.306  64.011  1.00  0.00    -0.232 C  
HETATM    9  C   UNL     1     -10.541   9.220  67.860  1.00  0.00    -0.288 A  
HETATM   10  O   UNL     1      -9.354   9.959  64.462  1.00  0.00    -0.258 OA 
HETATM   11  C   UNL     1      -9.921   8.992  66.619  1.00  0.00    -0.349 A  
HETATM   12  C   UNL     1      -9.968   9.987  65.673  1.00  0.00    -0.285 A  
HETATM   13  C   UNL     1     -11.236  10.456  68.113  1.00  0.00    -0.333 A  
HETATM   14  C   UNL     1     -10.639  11.161  65.900  1.00  0.00    -0.234 A  
HETATM   15  C   UNL     1     -11.900  10.737  69.465  1.00  0.00    -0.308 C  
HETATM   16  H   UNL     1     -11.949  12.647  69.244  1.00  0.00     0.000 HD 
HETATM   17  O   UNL     1     -10.533  12.023  64.851  1.00  0.00    -0.264 OA 
HETATM   18  C   UNL     1     -11.305  11.414  67.084  1.00  0.00    -0.327 A  
HETATM   19  O   UNL     1     -11.623  12.059  69.915  1.00  0.00    -0.291 OA 
ENDROOT
BRANCH   7  20
HETATM   20  C   UNL     1      -8.902   8.223  69.519  1.00  0.00    -0.149 A  
HETATM   21  C   UNL     1      -7.039   9.441  70.556  1.00  0.00    -0.112 A  
HETATM   22  C   UNL     1      -8.289   9.418  69.926  1.00  0.00    -0.174 A  
HETATM   23  C   UNL     1      -6.945   7.018  70.308  1.00  0.00    -0.065 A  
HETATM   24  C   UNL     1      -8.200   7.031  69.691  1.00  0.00    -0.131 A  
HETATM   25  C   UNL     1      -6.350   8.226  70.741  1.00  0.00    -0.036 A  
BRANCH  23  26
HETATM   26  O   UNL     1      -6.227   5.857  70.493  1.00  0.00    -0.029 OA 
HETATM   27  C   UNL     1      -6.980   4.706  70.869  1.00  0.00    -0.037 C  
ENDBRANCH  23  26
BRANCH  25  28
HETATM   28  O   UNL     1      -5.152   8.073  71.400  1.00  0.00    -0.030 OA 
HETATM   29  C   UNL     1      -5.163   8.109  72.820  1.00  0.00    -0.037 C  
ENDBRANCH  25  28
BRANCH  21  30
HETATM   30  O   UNL     1      -6.490  10.602  71.036  1.00  0.00    -0.334 OA 
HETATM   31  C   UNL     1      -5.714  11.404  70.150  1.00  0.00    -0.129 C  
ENDBRANCH  21  30
ENDBRANCH   7  20
TORSDOF 4
ENDMDL
MODEL       61
REMARK 921   NORMALIZED FREE ENERGY PREDICTED BY IDOCK:   -5.09 KCAL/MOL
REMARK 922        TOTAL FREE ENERGY PREDICTED BY IDOCK:   -7.04 KCAL/MOL
REMARK 923 INTER-LIGAND FREE ENERGY PREDICTED BY IDOCK:   -7.02 KCAL/MOL
REMARK 924 INTRA-LIGAND FREE ENERGY PREDICTED BY IDOCK:   -0.02 KCAL/MOL
REMARK 927      BINDING AFFINITY PREDICTED BY RF-SCORE:    0.00 PKD
ROOT
HETATM    1  C   UNL     1      -9.669   7.544  70.189  1.00  0.00    -0.172 C  
HETATM    2  C   UNL     1      -9.684   7.833  71.665  1.00  0.00    -0.163 C  
HETATM    3  O   UNL     1      -8.983   9.087  71.776  1.00  0.00    -0.343 OA 
HETATM    4  C   UNL     1      -8.188   9.280  70.672  1.00  0.00    -0.190 C  
HETATM    5  C   UNL     1      -8.331   8.097  69.764  1.00  0.00    -0.124 C  
HETATM    6  O   UNL     1      -7.416  10.214  70.531  1.00  0.00    -0.281 OA 
HETATM    7  C   UNL     1      -8.306   8.299  68.248  1.00  0.00    -0.132 C  
HETATM    8  C   UNL     1      -9.425   4.258  64.090  1.00  0.00    -0.134 C  
HETATM    9  C   UNL     1      -8.655   6.965  67.573  1.00  0.00    -0.121 A  
HETATM   10  O   UNL     1      -8.614   5.442  64.229  1.00  0.00    -0.125 OA 
HETATM   11  C   UNL     1      -8.327   6.816  66.214  1.00  0.00    -0.126 A  
HETATM   12  C   UNL     1      -8.773   5.697  65.553  1.00  0.00    -0.150 A  
HETATM   13  C   UNL     1      -9.413   5.950  68.256  1.00  0.00    -0.123 A  
HETATM   14  C   UNL     1      -9.483   4.718  66.200  1.00  0.00    -0.163 A  
HETATM   15  C   UNL     1      -9.803   6.100  69.731  1.00  0.00    -0.163 C  
HETATM   16  H   UNL     1     -11.243   4.827  69.664  1.00  0.00     0.000 HD 
HETATM   17  O   UNL     1      -9.859   3.717  65.358  1.00  0.00    -0.159 OA 
HETATM   18  C   UNL     1      -9.791   4.795  67.545  1.00  0.00    -0.206 A  
HETATM   19  O   UNL     1     -11.159   5.729  69.950  1.00  0.00    -0.360 OA 
ENDROOT
BRANCH   7  20
HETATM   20  C   UNL     1      -9.212   9.433  67.766  1.00  0.00    -0.141 A  
HETATM   21  C   UNL     1      -9.876  11.075  66.066  1.00  0.00    -0.229 A  
HETATM   22  C   UNL     1      -8.974  10.132  66.572  1.00  0.00    -0.161 A  
HETATM   23  C   UNL     1     -11.275  10.691  68.025  1.00  0.00    -0.307 A  
HETATM   24  C   UNL     1     -10.356   9.748  68.498  1.00  0.00    -0.228 A  
HETATM   25  C   UNL     1     -11.038  11.369  66.806  1.00  0.00    -0.281 A  
BRANCH  23  26
HETATM   26  O   UNL     1     -12.414  11.023  68.724  1.00  0.00    -0.468 OA 
HETATM   27  C   UNL     1     -12.350  10.870  70.140  1.00  0.00    -0.322 C  
ENDBRANCH  23  26
BRANCH  25  28
HETATM   28  O   UNL     1     -12.051  12.214  66.413  1.00  0.00    -0.630 OA 
HETATM   29  C   UNL     1     -11.879  13.607  66.631  1.00  0.00    -0.409 C  
ENDBRANCH  25  28
BRANCH  21  30
HETATM   30  O   UNL     1      -9.684  11.684  64.852  1.00  0.00    -0.243 OA 
HETATM   31  C   UNL     1     -10.077  10.986  63.673  1.00  0.00    -0.371 C  
ENDBRANCH  21  30
ENDBRANCH   7  20
TORSDOF 4
ENDMDL
MODEL       62
REMARK 921   NORMALIZED FREE ENERGY PREDICTED BY IDOCK:   -5.08 KCAL/MOL
REMARK 922        TOTAL FREE ENERGY PREDICTED BY IDOCK:   -7.02 KCAL/MOL
REMARK 923 INTER-LIGAND FREE ENERGY PREDICTED BY IDOCK:   -6.73 KCAL/MOL
REMARK 924 INTRA-LIGAND FREE ENERGY PREDICTED BY IDOCK:   -0.29 KCAL/MOL
REMARK 927      BINDING AFFINITY PREDICTED BY RF-SCORE:    0.00 PKD
ROOT
HETATM    1  C   UNL     1      -9.451  10.271  64.331  1.00  0.00    -0.360 C  
HETATM    2  C   UNL     1      -9.033   9.549  63.080  1.00  0.00    -0.201 C  
HETATM    3  O   UNL     1      -7.958   8.695  63.518  1.00  0.00    -0.145 OA 
HETATM    4  C   UNL     1      -7.419   9.181  64.684  1.00  0.00    -0.104 C  
HETATM    5  C   UNL     1      -8.141  10.439  65.061  1.00  0.00    -0.136 C  
HETATM    6  O   UNL     1      -6.440   8.712  65.242  1.00  0.00    -0.062 OA 
HETATM    7  C   UNL     1      -8.400  10.751  66.535  1.00  0.00    -0.146 C  
HETATM    8  C   UNL     1     -11.688  15.137  68.732  1.00  0.00    -0.342 C  
HETATM    9  C   UNL     1      -9.307  11.987  66.620  1.00  0.00    -0.221 A  
HETATM   10  O   UNL     1     -10.529  14.377  69.130  1.00  0.00    -0.238 OA 
HETATM   11  C   UNL     1      -9.365  12.671  67.847  1.00  0.00    -0.204 A  
HETATM   12  C   UNL     1     -10.289  13.678  67.991  1.00  0.00    -0.250 A  
HETATM   13  C   UNL     1     -10.175  12.361  65.534  1.00  0.00    -0.297 A  
HETATM   14  C   UNL     1     -11.109  14.050  66.957  1.00  0.00    -0.304 A  
HETATM   15  C   UNL     1     -10.146  11.616  64.195  1.00  0.00    -0.297 C  
HETATM   16  H   UNL     1     -11.896  12.188  63.637  1.00  0.00     0.000 HD 
HETATM   17  O   UNL     1     -11.971  15.040  67.318  1.00  0.00    -0.252 OA 
HETATM   18  C   UNL     1     -11.058  13.441  65.717  1.00  0.00    -0.295 A  
HETATM   19  O   UNL     1     -11.461  11.347  63.722  1.00  0.00    -0.360 OA 
ENDROOT
BRANCH   7  20
HETATM   20  C   UNL     1      -8.975   9.571  67.319  1.00  0.00    -0.143 A  
HETATM   21  C   UNL     1     -10.375   7.558  67.449  1.00  0.00    -0.276 A  
HETATM   22  C   UNL     1      -9.949   8.714  66.784  1.00  0.00    -0.343 A  
HETATM   23  C   UNL     1      -8.883   8.145  69.285  1.00  0.00    -0.144 A  
HETATM   24  C   UNL     1      -8.473   9.287  68.589  1.00  0.00    -0.123 A  
HETATM   25  C   UNL     1      -9.845   7.273  68.723  1.00  0.00    -0.161 A  
BRANCH  23  26
HETATM   26  O   UNL     1      -8.405   7.836  70.539  1.00  0.00    -0.121 OA 
HETATM   27  C   UNL     1      -7.049   7.401  70.605  1.00  0.00    -0.060 C  
ENDBRANCH  23  26
BRANCH  25  28
HETATM   28  O   UNL     1     -10.107   6.148  69.470  1.00  0.00    -0.168 OA 
HETATM   29  C   UNL     1     -11.284   6.136  70.267  1.00  0.00    -0.369 C  
ENDBRANCH  25  28
BRANCH  21  30
HETATM   30  O   UNL     1     -11.256   6.675  66.879  1.00  0.00    -0.391 OA 
HETATM   31  C   UNL     1     -10.746   5.458  66.341  1.00  0.00    -0.217 C  
ENDBRANCH  21  30
ENDBRANCH   7  20
TORSDOF 4
ENDMDL
MODEL       63
REMARK 921   NORMALIZED FREE ENERGY PREDICTED BY IDOCK:   -5.02 KCAL/MOL
REMARK 922        TOTAL FREE ENERGY PREDICTED BY IDOCK:   -6.94 KCAL/MOL
REMARK 923 INTER-LIGAND FREE ENERGY PREDICTED BY IDOCK:   -6.80 KCAL/MOL
REMARK 924 INTRA-LIGAND FREE ENERGY PREDICTED BY IDOCK:   -0.15 KCAL/MOL
REMARK 927      BINDING AFFINITY PREDICTED BY RF-SCORE:    0.00 PKD
ROOT
HETATM    1  C   UNL     1      -9.512   7.462  70.315  1.00  0.00    -0.165 C  
HETATM    2  C   UNL     1      -9.415   7.798  71.778  1.00  0.00    -0.151 C  
HETATM    3  O   UNL     1      -8.824   9.112  71.791  1.00  0.00    -0.341 OA 
HETATM    4  C   UNL     1      -8.157   9.337  70.611  1.00  0.00    -0.176 C  
HETATM    5  C   UNL     1      -8.276   8.117  69.750  1.00  0.00    -0.122 C  
HETATM    6  O   UNL     1      -7.490  10.331  70.374  1.00  0.00    -0.250 OA 
HETATM    7  C   UNL     1      -8.411   8.271  68.234  1.00  0.00    -0.132 C  
HETATM    8  C   UNL     1      -9.541   4.012  64.303  1.00  0.00    -0.166 C  
HETATM    9  C   UNL     1      -8.699   6.890  67.628  1.00  0.00    -0.120 A  
HETATM   10  O   UNL     1      -8.832   5.267  64.334  1.00  0.00    -0.104 OA 
HETATM   11  C   UNL     1      -8.486   6.725  66.248  1.00  0.00    -0.131 A  
HETATM   12  C   UNL     1      -8.889   5.550  65.661  1.00  0.00    -0.152 A  
HETATM   13  C   UNL     1      -9.293   5.834  68.406  1.00  0.00    -0.130 A  
HETATM   14  C   UNL     1      -9.443   4.534  66.397  1.00  0.00    -0.172 A  
HETATM   15  C   UNL     1      -9.556   5.998  69.908  1.00  0.00    -0.158 C  
HETATM   16  H   UNL     1     -10.874   4.601  70.010  1.00  0.00     0.000 HD 
HETATM   17  O   UNL     1      -9.803   3.476  65.620  1.00  0.00    -0.113 OA 
HETATM   18  C   UNL     1      -9.629   4.628  67.763  1.00  0.00    -0.203 A  
HETATM   19  O   UNL     1     -10.847   5.516  70.265  1.00  0.00    -0.289 OA 
ENDROOT
BRANCH   7  20
HETATM   20  C   UNL     1      -9.457   9.303  67.814  1.00  0.00    -0.160 A  
HETATM   21  C   UNL     1     -11.465  10.638  68.281  1.00  0.00    -0.245 A  
HETATM   22  C   UNL     1     -10.582   9.600  68.600  1.00  0.00    -0.246 A  
HETATM   23  C   UNL     1     -10.131  11.069  66.287  1.00  0.00    -0.235 A  
HETATM   24  C   UNL     1      -9.264  10.030  66.640  1.00  0.00    -0.178 A  
HETATM   25  C   UNL     1     -11.246  11.377  67.102  1.00  0.00    -0.296 A  
BRANCH  23  26
HETATM   26  O   UNL     1      -9.966  11.806  65.135  1.00  0.00    -0.244 OA 
HETATM   27  C   UNL     1     -10.172  11.109  63.908  1.00  0.00    -0.362 C  
ENDBRANCH  23  26
BRANCH  25  28
HETATM   28  O   UNL     1     -11.978  12.466  66.688  1.00  0.00    -0.562 OA 
HETATM   29  C   UNL     1     -11.752  13.709  67.339  1.00  0.00    -0.381 C  
ENDBRANCH  25  28
BRANCH  21  30
HETATM   30  O   UNL     1     -12.507  10.983  69.104  1.00  0.00    -0.432 OA 
HETATM   31  C   UNL     1     -12.219  11.322  70.458  1.00  0.00    -0.383 C  
ENDBRANCH  21  30
ENDBRANCH   7  20
TORSDOF 4
ENDMDL
MODEL       64
REMARK 921   NORMALIZED FREE ENERGY PREDICTED BY IDOCK:   -5.00 KCAL/MOL
REMARK 922        TOTAL FREE ENERGY PREDICTED BY IDOCK:   -6.93 KCAL/MOL
REMARK 923 INTER-LIGAND FREE ENERGY PREDICTED BY IDOCK:   -6.12 KCAL/MOL
REMARK 924 INTRA-LIGAND FREE ENERGY PREDICTED BY IDOCK:   -0.81 KCAL/MOL
REMARK 927      BINDING AFFINITY PREDICTED BY RF-SCORE:    0.00 PKD
ROOT
HETATM    1  C   UNL     1      -8.864   7.087  67.807  1.00  0.00    -0.123 C  
HETATM    2  C   UNL     1      -8.181   5.792  67.463  1.00  0.00    -0.101 C  
HETATM    3  O   UNL     1      -7.217   5.620  68.520  1.00  0.00    -0.071 OA 
HETATM    4  C   UNL     1      -6.944   6.832  69.106  1.00  0.00    -0.078 C  
HETATM    5  C   UNL     1      -7.742   7.894  68.412  1.00  0.00    -0.114 C  
HETATM    6  O   UNL     1      -6.102   7.007  69.972  1.00  0.00    -0.023 OA 
HETATM    7  C   UNL     1      -8.312   9.061  69.219  1.00  0.00    -0.122 C  
HETATM    8  C   UNL     1     -12.035  13.231  67.316  1.00  0.00    -0.343 C  
HETATM    9  C   UNL     1      -9.228   9.885  68.303  1.00  0.00    -0.130 A  
HETATM   10  O   UNL     1     -10.980  13.115  68.292  1.00  0.00    -0.234 OA 
HETATM   11  C   UNL     1      -9.554  11.191  68.708  1.00  0.00    -0.180 A  
HETATM   12  C   UNL     1     -10.496  11.884  67.987  1.00  0.00    -0.208 A  
HETATM   13  C   UNL     1      -9.848   9.307  67.138  1.00  0.00    -0.251 A  
HETATM   14  C   UNL     1     -11.080  11.346  66.869  1.00  0.00    -0.295 A  
HETATM   15  C   UNL     1      -9.527   7.876  66.689  1.00  0.00    -0.211 C  
HETATM   16  H   UNL     1     -11.122   7.659  65.638  1.00  0.00     0.000 HD 
HETATM   17  O   UNL     1     -12.009  12.179  66.325  1.00  0.00    -0.605 OA 
HETATM   18  C   UNL     1     -10.760  10.085  66.402  1.00  0.00    -0.063 A  
HETATM   19  O   UNL     1     -10.708   7.166  66.336  1.00  0.00     0.020 OA 
ENDROOT
BRANCH   7  20
HETATM   20  C   UNL     1      -9.030   8.629  70.498  1.00  0.00    -0.185 A  
HETATM   21  C   UNL     1     -10.874   7.478  71.640  1.00  0.00    -0.219 A  
HETATM   22  C   UNL     1     -10.281   7.993  70.481  1.00  0.00    -0.201 A  
HETATM   23  C   UNL     1      -8.966   8.314  72.906  1.00  0.00    -0.254 A  
HETATM   24  C   UNL     1      -8.399   8.809  71.727  1.00  0.00    -0.161 A  
HETATM   25  C   UNL     1     -10.214   7.650  72.873  1.00  0.00    -0.298 A  
BRANCH  23  26
HETATM   26  O   UNL     1      -8.366   8.475  74.136  1.00  0.00    -0.301 OA 
HETATM   27  C   UNL     1      -6.948   8.329  74.167  1.00  0.00    -0.149 C  
ENDBRANCH  23  26
BRANCH  25  28
HETATM   28  O   UNL     1     -10.629   7.144  74.085  1.00  0.00    -0.283 OA 
HETATM   29  C   UNL     1     -10.409   5.764  74.342  1.00  0.00    -0.254 C  
ENDBRANCH  25  28
BRANCH  21  30
HETATM   30  O   UNL     1     -12.050   6.775  71.603  1.00  0.00    -0.326 OA 
HETATM   31  C   UNL     1     -13.275   7.502  71.547  1.00  0.00    -0.354 C  
ENDBRANCH  21  30
ENDBRANCH   7  20
TORSDOF 4
ENDMDL
MODEL       65
REMARK 921   NORMALIZED FREE ENERGY PREDICTED BY IDOCK:   -4.93 KCAL/MOL
REMARK 922        TOTAL FREE ENERGY PREDICTED BY IDOCK:   -6.83 KCAL/MOL
REMARK 923 INTER-LIGAND FREE ENERGY PREDICTED BY IDOCK:   -6.12 KCAL/MOL
REMARK 924 INTRA-LIGAND FREE ENERGY PREDICTED BY IDOCK:   -0.71 KCAL/MOL
REMARK 927      BINDING AFFINITY PREDICTED BY RF-SCORE:    0.00 PKD
ROOT
HETATM    1  C   UNL     1     -11.886   8.417  71.104  1.00  0.00    -0.314 C  
HETATM    2  C   UNL     1     -12.586   7.229  71.706  1.00  0.00    -0.341 C  
HETATM    3  O   UNL     1     -11.888   6.099  71.147  1.00  0.00    -0.244 OA 
HETATM    4  C   UNL     1     -11.246   6.470  69.990  1.00  0.00    -0.393 C  
HETATM    5  C   UNL     1     -11.528   7.918  69.726  1.00  0.00     0.216 C  
HETATM    6  O   UNL     1     -10.646   5.703  69.256  1.00  0.00    -0.267 OA 
HETATM    7  C   UNL     1     -10.439   8.802  69.116  1.00  0.00    -0.230 C  
HETATM    8  C   UNL     1     -10.594  14.659  68.383  1.00  0.00    -0.241 C  
HETATM    9  C   UNL     1     -10.929  10.257  69.129  1.00  0.00    -0.280 A  
HETATM   10  O   UNL     1      -9.991  13.524  67.731  1.00  0.00    -0.222 OA 
HETATM   11  C   UNL     1     -10.273  11.175  68.290  1.00  0.00    -0.197 A  
HETATM   12  C   UNL     1     -10.588  12.507  68.404  1.00  0.00    -0.242 A  
HETATM   13  C   UNL     1     -11.931  10.707  70.059  1.00  0.00    -0.408 A  
HETATM   14  C   UNL     1     -11.551  12.942  69.278  1.00  0.00    -0.310 A  
HETATM   15  C   UNL     1     -12.645   9.730  71.000  1.00  0.00    -0.314 C  
HETATM   16  H   UNL     1     -13.208  11.073  72.256  1.00  0.00     0.000 HD 
HETATM   17  O   UNL     1     -11.684  14.297  69.261  1.00  0.00    -0.279 OA 
HETATM   18  C   UNL     1     -12.258  12.076  70.090  1.00  0.00    -0.309 A  
HETATM   19  O   UNL     1     -12.734  10.252  72.321  1.00  0.00    -0.289 OA 
ENDROOT
BRANCH   7  20
HETATM   20  C   UNL     1      -9.078   8.657  69.798  1.00  0.00    -0.150 A  
HETATM   21  C   UNL     1      -7.679   8.639  71.817  1.00  0.00    -0.088 A  
HETATM   22  C   UNL     1      -8.892   8.902  71.168  1.00  0.00    -0.297 A  
HETATM   23  C   UNL     1      -6.761   7.935  69.671  1.00  0.00    -0.042 A  
HETATM   24  C   UNL     1      -7.989   8.201  69.057  1.00  0.00    -0.113 A  
HETATM   25  C   UNL     1      -6.594   8.160  71.058  1.00  0.00    -0.038 A  
BRANCH  23  26
HETATM   26  O   UNL     1      -5.668   7.483  68.966  1.00  0.00    -0.021 OA 
HETATM   27  C   UNL     1      -5.853   7.311  67.563  1.00  0.00    -0.030 C  
ENDBRANCH  23  26
BRANCH  25  28
HETATM   28  O   UNL     1      -5.365   7.789  71.556  1.00  0.00    -0.034 OA 
HETATM   29  C   UNL     1      -5.227   6.476  72.079  1.00  0.00    -0.027 C  
ENDBRANCH  25  28
BRANCH  21  30
HETATM   30  O   UNL     1      -7.534   8.791  73.172  1.00  0.00    -0.364 OA 
HETATM   31  C   UNL     1      -8.301   7.957  74.035  1.00  0.00    -0.255 C  
ENDBRANCH  21  30
ENDBRANCH   7  20
TORSDOF 4
ENDMDL
MODEL       66
REMARK 921   NORMALIZED FREE ENERGY PREDICTED BY IDOCK:   -4.92 KCAL/MOL
REMARK 922        TOTAL FREE ENERGY PREDICTED BY IDOCK:   -6.83 KCAL/MOL
REMARK 923 INTER-LIGAND FREE ENERGY PREDICTED BY IDOCK:   -6.49 KCAL/MOL
REMARK 924 INTRA-LIGAND FREE ENERGY PREDICTED BY IDOCK:   -0.34 KCAL/MOL
REMARK 927      BINDING AFFINITY PREDICTED BY RF-SCORE:    0.00 PKD
ROOT
HETATM    1  C   UNL     1      -6.283  14.301  67.812  1.00  0.00    -0.152 C  
HETATM    2  C   UNL     1      -5.150  13.312  67.841  1.00  0.00    -0.098 C  
HETATM    3  O   UNL     1      -5.761  12.104  68.335  1.00  0.00    -0.052 OA 
HETATM    4  C   UNL     1      -6.913  12.408  69.020  1.00  0.00    -0.071 C  
HETATM    5  C   UNL     1      -7.098  13.895  69.015  1.00  0.00    -0.098 C  
HETATM    6  O   UNL     1      -7.595  11.594  69.621  1.00  0.00     0.215 OA 
HETATM    7  C   UNL     1      -8.506  14.482  68.915  1.00  0.00    -0.110 C  
HETATM    8  C   UNL     1      -9.963  20.161  68.212  1.00  0.00    -0.319 C  
HETATM    9  C   UNL     1      -8.389  16.003  68.745  1.00  0.00    -0.216 A  
HETATM   10  O   UNL     1     -10.532  18.988  68.828  1.00  0.00    -0.226 OA 
HETATM   11  C   UNL     1      -9.531  16.780  69.010  1.00  0.00    -0.217 A  
HETATM   12  C   UNL     1      -9.494  18.120  68.711  1.00  0.00    -0.272 A  
HETATM   13  C   UNL     1      -7.202  16.612  68.205  1.00  0.00    -0.160 A  
HETATM   14  C   UNL     1      -8.363  18.711  68.209  1.00  0.00    -0.324 A  
HETATM   15  C   UNL     1      -5.953  15.784  67.886  1.00  0.00    -0.140 C  
HETATM   16  H   UNL     1      -5.196  17.066  66.669  1.00  0.00     0.000 HD 
HETATM   17  O   UNL     1      -8.548  20.035  67.949  1.00  0.00    -0.306 OA 
HETATM   18  C   UNL     1      -7.200  18.001  67.975  1.00  0.00    -0.230 A  
HETATM   19  O   UNL     1      -5.402  16.140  66.623  1.00  0.00    -0.247 OA 
ENDROOT
BRANCH   7  20
HETATM   20  C   UNL     1      -9.356  13.852  67.811  1.00  0.00    -0.204 A  
HETATM   21  C   UNL     1     -10.926  12.136  67.024  1.00  0.00    -0.271 A  
HETATM   22  C   UNL     1     -10.043  12.641  67.986  1.00  0.00    -0.229 A  
HETATM   23  C   UNL     1     -10.381  14.050  65.616  1.00  0.00    -0.329 A  
HETATM   24  C   UNL     1      -9.513  14.530  66.603  1.00  0.00    -0.301 A  
HETATM   25  C   UNL     1     -11.090  12.842  65.817  1.00  0.00    -0.284 A  
BRANCH  23  26
HETATM   26  O   UNL     1     -10.559  14.697  64.414  1.00  0.00    -0.197 OA 
HETATM   27  C   UNL     1     -11.139  15.998  64.481  1.00  0.00    -0.253 C  
ENDBRANCH  23  26
BRANCH  25  28
HETATM   28  O   UNL     1     -11.967  12.516  64.807  1.00  0.00    -0.368 OA 
HETATM   29  C   UNL     1     -11.470  11.764  63.709  1.00  0.00    -0.420 C  
ENDBRANCH  25  28
BRANCH  21  30
HETATM   30  O   UNL     1     -11.666  11.002  67.243  1.00  0.00    -0.504 OA 
HETATM   31  C   UNL     1     -10.984   9.755  67.343  1.00  0.00    -0.106 C  
ENDBRANCH  21  30
ENDBRANCH   7  20
TORSDOF 4
ENDMDL
MODEL       67
REMARK 921   NORMALIZED FREE ENERGY PREDICTED BY IDOCK:   -4.92 KCAL/MOL
REMARK 922        TOTAL FREE ENERGY PREDICTED BY IDOCK:   -6.82 KCAL/MOL
REMARK 923 INTER-LIGAND FREE ENERGY PREDICTED BY IDOCK:   -6.98 KCAL/MOL
REMARK 924 INTRA-LIGAND FREE ENERGY PREDICTED BY IDOCK:    0.16 KCAL/MOL
REMARK 927      BINDING AFFINITY PREDICTED BY RF-SCORE:    0.00 PKD
ROOT
HETATM    1  C   UNL     1      -9.457  10.129  64.391  1.00  0.00    -0.368 C  
HETATM    2  C   UNL     1      -8.991   9.376  63.176  1.00  0.00    -0.141 C  
HETATM    3  O   UNL     1      -7.960   8.508  63.684  1.00  0.00    -0.147 OA 
HETATM    4  C   UNL     1      -7.472   9.003  64.868  1.00  0.00    -0.105 C  
HETATM    5  C   UNL     1      -8.184  10.283  65.185  1.00  0.00    -0.161 C  
HETATM    6  O   UNL     1      -6.534   8.523  65.484  1.00  0.00    -0.057 OA 
HETATM    7  C   UNL     1      -8.511  10.626  66.639  1.00  0.00    -0.137 C  
HETATM    8  C   UNL     1     -11.810  15.121  68.586  1.00  0.00    -0.302 C  
HETATM    9  C   UNL     1      -9.394  11.883  66.656  1.00  0.00    -0.210 A  
HETATM   10  O   UNL     1     -10.690  14.344  69.057  1.00  0.00    -0.244 OA 
HETATM   11  C   UNL     1      -9.501  12.590  67.866  1.00  0.00    -0.196 A  
HETATM   12  C   UNL     1     -10.407  13.619  67.944  1.00  0.00    -0.249 A  
HETATM   13  C   UNL     1     -10.195  12.256  65.519  1.00  0.00    -0.296 A  
HETATM   14  C   UNL     1     -11.164  13.991  66.863  1.00  0.00    -0.313 A  
HETATM   15  C   UNL     1     -10.114  11.487  64.196  1.00  0.00    -0.307 C  
HETATM   16  H   UNL     1     -11.818  12.087  63.538  1.00  0.00     0.000 HD 
HETATM   17  O   UNL     1     -12.021  15.005  67.161  1.00  0.00    -0.234 OA 
HETATM   18  C   UNL     1     -11.062  13.359  65.638  1.00  0.00    -0.298 A  
HETATM   19  O   UNL     1     -11.408  11.238  63.659  1.00  0.00    -0.325 OA 
ENDROOT
BRANCH   7  20
HETATM   20  C   UNL     1      -9.153   9.473  67.411  1.00  0.00    -0.144 A  
HETATM   21  C   UNL     1      -9.794   8.397  69.524  1.00  0.00    -0.181 A  
HETATM   22  C   UNL     1      -9.093   9.377  68.811  1.00  0.00    -0.132 A  
HETATM   23  C   UNL     1     -10.589   7.513  67.396  1.00  0.00    -0.294 A  
HETATM   24  C   UNL     1      -9.884   8.510  66.716  1.00  0.00    -0.327 A  
HETATM   25  C   UNL     1     -10.544   7.444  68.809  1.00  0.00    -0.168 A  
BRANCH  23  26
HETATM   26  O   UNL     1     -11.321   6.549  66.738  1.00  0.00    -0.272 OA 
HETATM   27  C   UNL     1     -10.601   5.393  66.316  1.00  0.00    -0.208 C  
ENDBRANCH  23  26
BRANCH  25  28
HETATM   28  O   UNL     1     -11.339   6.466  69.362  1.00  0.00    -0.394 OA 
HETATM   29  C   UNL     1     -10.700   5.363  69.989  1.00  0.00    -0.226 C  
ENDBRANCH  25  28
BRANCH  21  30
HETATM   30  O   UNL     1      -9.807   8.368  70.895  1.00  0.00    -0.175 OA 
HETATM   31  C   UNL     1     -10.727   9.211  71.583  1.00  0.00    -0.371 C  
ENDBRANCH  21  30
ENDBRANCH   7  20
TORSDOF 4
ENDMDL
MODEL       68
REMARK 921   NORMALIZED FREE ENERGY PREDICTED BY IDOCK:   -4.91 KCAL/MOL
REMARK 922        TOTAL FREE ENERGY PREDICTED BY IDOCK:   -6.81 KCAL/MOL
REMARK 923 INTER-LIGAND FREE ENERGY PREDICTED BY IDOCK:   -7.17 KCAL/MOL
REMARK 924 INTRA-LIGAND FREE ENERGY PREDICTED BY IDOCK:    0.37 KCAL/MOL
REMARK 927      BINDING AFFINITY PREDICTED BY RF-SCORE:    0.00 PKD
ROOT
HETATM    1  C   UNL     1      -7.933   8.771  67.741  1.00  0.00    -0.106 C  
HETATM    2  C   UNL     1      -6.750   7.960  68.193  1.00  0.00    -0.064 C  
HETATM    3  O   UNL     1      -6.541   8.385  69.554  1.00  0.00    -0.040 OA 
HETATM    4  C   UNL     1      -7.110   9.620  69.751  1.00  0.00    -0.084 C  
HETATM    5  C   UNL     1      -7.724  10.078  68.464  1.00  0.00    -0.089 C  
HETATM    6  O   UNL     1      -7.018  10.266  70.782  1.00  0.00    -0.332 OA 
HETATM    7  C   UNL     1      -9.028  10.876  68.489  1.00  0.00    -0.157 C  
HETATM    8  C   UNL     1     -12.334  12.461  63.860  1.00  0.00    -0.508 C  
HETATM    9  C   UNL     1      -9.522  11.051  67.046  1.00  0.00    -0.191 A  
HETATM   10  O   UNL     1     -12.034  12.971  65.174  1.00  0.00    -0.354 OA 
HETATM   11  C   UNL     1     -10.475  12.054  66.798  1.00  0.00    -0.243 A  
HETATM   12  C   UNL     1     -11.045  12.120  65.550  1.00  0.00    -0.316 A  
HETATM   13  C   UNL     1      -9.133  10.140  66.001  1.00  0.00    -0.185 A  
HETATM   14  C   UNL     1     -10.670  11.266  64.545  1.00  0.00    -0.323 A  
HETATM   15  C   UNL     1      -8.113   9.024  66.252  1.00  0.00    -0.110 C  
HETATM   16  H   UNL     1      -8.652   7.950  64.750  1.00  0.00     0.000 HD 
HETATM   17  O   UNL     1     -11.380  11.476  63.402  1.00  0.00    -0.374 OA 
HETATM   18  C   UNL     1      -9.704  10.294  64.724  1.00  0.00    -0.397 A  
HETATM   19  O   UNL     1      -8.539   7.792  65.680  1.00  0.00    -0.144 OA 
ENDROOT
BRANCH   7  20
HETATM   20  C   UNL     1     -10.105  10.262  69.385  1.00  0.00    -0.255 A  
HETATM   21  C   UNL     1     -12.208  10.434  70.641  1.00  0.00    -0.347 A  
HETATM   22  C   UNL     1     -11.151  11.020  69.935  1.00  0.00    -0.276 A  
HETATM   23  C   UNL     1     -11.131   8.270  70.326  1.00  0.00    -0.219 A  
HETATM   24  C   UNL     1     -10.095   8.887  69.618  1.00  0.00    -0.202 A  
HETATM   25  C   UNL     1     -12.194   9.041  70.851  1.00  0.00    -0.157 A  
BRANCH  23  26
HETATM   26  O   UNL     1     -11.150   6.915  70.570  1.00  0.00    -0.257 OA 
HETATM   27  C   UNL     1     -10.890   6.071  69.451  1.00  0.00    -0.363 C  
ENDBRANCH  23  26
BRANCH  25  28
HETATM   28  O   UNL     1     -13.188   8.310  71.461  1.00  0.00    -0.325 OA 
HETATM   29  C   UNL     1     -13.647   8.741  72.734  1.00  0.00    -0.182 C  
ENDBRANCH  25  28
BRANCH  21  30
HETATM   30  O   UNL     1     -13.274  11.169  71.093  1.00  0.00    -0.256 OA 
HETATM   31  C   UNL     1     -13.014  12.362  71.829  1.00  0.00    -0.316 C  
ENDBRANCH  21  30
ENDBRANCH   7  20
TORSDOF 4
ENDMDL
MODEL       69
REMARK 921   NORMALIZED FREE ENERGY PREDICTED BY IDOCK:   -4.89 KCAL/MOL
REMARK 922        TOTAL FREE ENERGY PREDICTED BY IDOCK:   -6.78 KCAL/MOL
REMARK 923 INTER-LIGAND FREE ENERGY PREDICTED BY IDOCK:   -6.03 KCAL/MOL
REMARK 924 INTRA-LIGAND FREE ENERGY PREDICTED BY IDOCK:   -0.75 KCAL/MOL
REMARK 927      BINDING AFFINITY PREDICTED BY RF-SCORE:    0.00 PKD
ROOT
HETATM    1  C   UNL     1      -9.825  14.440  67.438  1.00  0.00    -0.224 C  
HETATM    2  C   UNL     1      -9.481  15.821  66.951  1.00  0.00    -0.228 C  
HETATM    3  O   UNL     1      -8.084  15.727  66.611  1.00  0.00    -0.257 OA 
HETATM    4  C   UNL     1      -7.510  14.671  67.275  1.00  0.00    -0.117 C  
HETATM    5  C   UNL     1      -8.553  14.013  68.127  1.00  0.00    -0.181 C  
HETATM    6  O   UNL     1      -6.321  14.400  67.247  1.00  0.00    -0.298 OA 
HETATM    7  C   UNL     1      -8.538  12.495  68.305  1.00  0.00    -0.173 C  
HETATM    8  C   UNL     1     -12.636   9.173  70.961  1.00  0.00    -0.155 C  
HETATM    9  C   UNL     1      -9.808  12.080  69.062  1.00  0.00     0.157 A  
HETATM   10  O   UNL     1     -11.211   9.129  70.742  1.00  0.00    -0.248 OA 
HETATM   11  C   UNL     1      -9.826  10.809  69.662  1.00  0.00     0.041 A  
HETATM   12  C   UNL     1     -11.005  10.358  70.203  1.00  0.00    -0.300 A  
HETATM   13  C   UNL     1     -10.994  12.897  69.049  1.00  0.00    -0.244 A  
HETATM   14  C   UNL     1     -12.135  11.135  70.207  1.00  0.00    -0.377 A  
HETATM   15  C   UNL     1     -11.007  14.277  68.381  1.00  0.00    -0.253 C  
HETATM   16  H   UNL     1     -12.918  14.362  68.187  1.00  0.00     0.000 HD 
HETATM   17  O   UNL     1     -13.200  10.489  70.757  1.00  0.00    -0.335 OA 
HETATM   18  C   UNL     1     -12.157  12.409  69.673  1.00  0.00    -0.271 A  
HETATM   19  O   UNL     1     -12.180  14.464  67.598  1.00  0.00    -0.328 OA 
ENDROOT
BRANCH   7  20
HETATM   20  C   UNL     1      -8.384  11.725  66.993  1.00  0.00    -0.172 A  
HETATM   21  C   UNL     1      -7.119  10.218  65.524  1.00  0.00    -0.142 A  
HETATM   22  C   UNL     1      -7.210  11.031  66.660  1.00  0.00    -0.143 A  
HETATM   23  C   UNL     1      -9.406  10.853  64.968  1.00  0.00    -0.226 A  
HETATM   24  C   UNL     1      -9.465  11.650  66.116  1.00  0.00    -0.240 A  
HETATM   25  C   UNL     1      -8.227  10.135  64.658  1.00  0.00    -0.165 A  
BRANCH  23  26
HETATM   26  O   UNL     1     -10.458  10.757  64.084  1.00  0.00    -0.364 OA 
HETATM   27  C   UNL     1     -11.216  11.946  63.878  1.00  0.00    -0.420 C  
ENDBRANCH  23  26
BRANCH  25  28
HETATM   28  O   UNL     1      -8.320   9.331  63.545  1.00  0.00    -0.164 OA 
HETATM   29  C   UNL     1      -7.590   9.708  62.387  1.00  0.00    -0.107 C  
ENDBRANCH  25  28
BRANCH  21  30
HETATM   30  O   UNL     1      -6.003   9.468  65.256  1.00  0.00    -0.061 OA 
HETATM   31  C   UNL     1      -5.593   8.495  66.213  1.00  0.00    -0.039 C  
ENDBRANCH  21  30
ENDBRANCH   7  20
TORSDOF 4
ENDMDL
MODEL       70
REMARK 921   NORMALIZED FREE ENERGY PREDICTED BY IDOCK:   -4.89 KCAL/MOL
REMARK 922        TOTAL FREE ENERGY PREDICTED BY IDOCK:   -6.78 KCAL/MOL
REMARK 923 INTER-LIGAND FREE ENERGY PREDICTED BY IDOCK:   -6.21 KCAL/MOL
REMARK 924 INTRA-LIGAND FREE ENERGY PREDICTED BY IDOCK:   -0.57 KCAL/MOL
REMARK 927      BINDING AFFINITY PREDICTED BY RF-SCORE:    0.00 PKD
ROOT
HETATM    1  C   UNL     1     -11.197  11.492  68.283  1.00  0.00    -0.322 C  
HETATM    2  C   UNL     1     -11.686  12.674  67.492  1.00  0.00    -0.368 C  
HETATM    3  O   UNL     1     -10.565  13.014  66.653  1.00  0.00    -0.263 OA 
HETATM    4  C   UNL     1      -9.405  12.515  67.195  1.00  0.00    -0.201 C  
HETATM    5  C   UNL     1      -9.736  11.814  68.477  1.00  0.00    -0.181 C  
HETATM    6  O   UNL     1      -8.289  12.720  66.747  1.00  0.00    -0.113 OA 
HETATM    7  C   UNL     1      -8.968  10.551  68.869  1.00  0.00    -0.175 C  
HETATM    8  C   UNL     1     -10.118   6.935  73.394  1.00  0.00    -0.259 C  
HETATM    9  C   UNL     1      -9.629   9.945  70.115  1.00  0.00    -0.237 A  
HETATM   10  O   UNL     1      -8.963   7.365  72.646  1.00  0.00    -0.130 OA 
HETATM   11  C   UNL     1      -8.885   9.017  70.864  1.00  0.00    -0.294 A  
HETATM   12  C   UNL     1      -9.513   8.347  71.885  1.00  0.00    -0.253 A  
HETATM   13  C   UNL     1     -11.007  10.207  70.440  1.00  0.00    -0.386 A  
HETATM   14  C   UNL     1     -10.820   8.600  72.210  1.00  0.00    -0.322 A  
HETATM   15  C   UNL     1     -11.847  11.197  69.625  1.00  0.00    -0.348 C  
HETATM   16  H   UNL     1     -13.546  10.490  70.183  1.00  0.00     0.000 HD 
HETATM   17  O   UNL     1     -11.260   7.806  73.226  1.00  0.00    -0.350 OA 
HETATM   18  C   UNL     1     -11.582   9.537  71.537  1.00  0.00    -0.465 A  
HETATM   19  O   UNL     1     -13.140  10.674  69.344  1.00  0.00     0.073 OA 
ENDROOT
BRANCH   7  20
HETATM   20  C   UNL     1      -8.852   9.529  67.737  1.00  0.00    -0.119 A  
HETATM   21  C   UNL     1      -7.617   8.530  65.864  1.00  0.00    -0.085 A  
HETATM   22  C   UNL     1      -7.794   9.543  66.814  1.00  0.00    -0.101 A  
HETATM   23  C   UNL     1      -9.649   7.478  66.705  1.00  0.00    -0.200 A  
HETATM   24  C   UNL     1      -9.791   8.502  67.647  1.00  0.00    -0.222 A  
HETATM   25  C   UNL     1      -8.562   7.488  65.799  1.00  0.00    -0.142 A  
BRANCH  23  26
HETATM   26  O   UNL     1     -10.557   6.449  66.593  1.00  0.00    -0.231 OA 
HETATM   27  C   UNL     1     -10.895   5.775  67.803  1.00  0.00    -0.167 C  
ENDBRANCH  23  26
BRANCH  25  28
HETATM   28  O   UNL     1      -8.492   6.389  64.974  1.00  0.00    -0.119 OA 
HETATM   29  C   UNL     1      -7.563   5.366  65.303  1.00  0.00    -0.079 C  
ENDBRANCH  25  28
BRANCH  21  30
HETATM   30  O   UNL     1      -6.529   8.501  65.029  1.00  0.00    -0.059 OA 
HETATM   31  C   UNL     1      -6.618   9.169  63.774  1.00  0.00    -0.090 C  
ENDBRANCH  21  30
ENDBRANCH   7  20
TORSDOF 4
ENDMDL
MODEL       71
REMARK 921   NORMALIZED FREE ENERGY PREDICTED BY IDOCK:   -4.87 KCAL/MOL
REMARK 922        TOTAL FREE ENERGY PREDICTED BY IDOCK:   -6.76 KCAL/MOL
REMARK 923 INTER-LIGAND FREE ENERGY PREDICTED BY IDOCK:   -6.40 KCAL/MOL
REMARK 924 INTRA-LIGAND FREE ENERGY PREDICTED BY IDOCK:   -0.35 KCAL/MOL
REMARK 927      BINDING AFFINITY PREDICTED BY RF-SCORE:    0.00 PKD
ROOT
HETATM    1  C   UNL     1      -9.178   5.852  72.667  1.00  0.00    -0.137 C  
HETATM    2  C   UNL     1      -8.876   5.731  74.136  1.00  0.00    -0.122 C  
HETATM    3  O   UNL     1      -8.395   7.040  74.497  1.00  0.00    -0.154 OA 
HETATM    4  C   UNL     1      -7.943   7.698  73.378  1.00  0.00    -0.133 C  
HETATM    5  C   UNL     1      -8.102   6.797  72.192  1.00  0.00    -0.100 C  
HETATM    6  O   UNL     1      -7.402   8.792  73.391  1.00  0.00    -0.365 OA 
HETATM    7  C   UNL     1      -8.488   7.390  70.837  1.00  0.00    -0.123 C  
HETATM    8  C   UNL     1      -9.895   4.438  65.919  1.00  0.00    -0.228 C  
HETATM    9  C   UNL     1      -8.761   6.237  69.860  1.00  0.00    -0.141 A  
HETATM   10  O   UNL     1      -9.290   5.701  66.263  1.00  0.00    -0.152 OA 
HETATM   11  C   UNL     1      -8.759   6.532  68.485  1.00  0.00    -0.122 A  
HETATM   12  C   UNL     1      -9.157   5.554  67.606  1.00  0.00    -0.107 A  
HETATM   13  C   UNL     1      -9.140   4.929  70.325  1.00  0.00    -0.165 A  
HETATM   14  C   UNL     1      -9.506   4.301  68.039  1.00  0.00    -0.159 A  
HETATM   15  C   UNL     1      -9.172   4.590  71.819  1.00  0.00    -0.134 C  
HETATM   16  H   UNL     1     -10.345   3.076  71.632  1.00  0.00     0.000 HD 
HETATM   17  O   UNL     1      -9.902   3.496  67.015  1.00  0.00    -0.106 OA 
HETATM   18  C   UNL     1      -9.479   3.946  69.375  1.00  0.00    -0.260 A  
HETATM   19  O   UNL     1     -10.348   3.865  72.162  1.00  0.00    -0.159 OA 
ENDROOT
BRANCH   7  20
HETATM   20  C   UNL     1      -9.666   8.363  70.907  1.00  0.00    -0.212 A  
HETATM   21  C   UNL     1     -10.802  10.415  70.178  1.00  0.00    -0.271 A  
HETATM   22  C   UNL     1      -9.672   9.589  70.222  1.00  0.00    -0.314 A  
HETATM   23  C   UNL     1     -11.950   8.807  71.606  1.00  0.00    -0.332 A  
HETATM   24  C   UNL     1     -10.807   8.002  71.621  1.00  0.00    -0.288 A  
HETATM   25  C   UNL     1     -11.955  10.026  70.888  1.00  0.00    -0.361 A  
BRANCH  23  26
HETATM   26  O   UNL     1     -13.093   8.476  72.300  1.00  0.00    -0.350 OA 
HETATM   27  C   UNL     1     -13.975   7.559  71.657  1.00  0.00    -0.412 C  
ENDBRANCH  23  26
BRANCH  25  28
HETATM   28  O   UNL     1     -13.161  10.689  70.889  1.00  0.00    -0.357 OA 
HETATM   29  C   UNL     1     -13.305  11.811  71.748  1.00  0.00    -0.240 C  
ENDBRANCH  25  28
BRANCH  21  30
HETATM   30  O   UNL     1     -10.832  11.563  69.429  1.00  0.00    -0.210 OA 
HETATM   31  C   UNL     1      -9.799  11.777  68.471  1.00  0.00    -0.189 C  
ENDBRANCH  21  30
ENDBRANCH   7  20
TORSDOF 4
ENDMDL
MODEL       72
REMARK 921   NORMALIZED FREE ENERGY PREDICTED BY IDOCK:   -4.87 KCAL/MOL
REMARK 922        TOTAL FREE ENERGY PREDICTED BY IDOCK:   -6.76 KCAL/MOL
REMARK 923 INTER-LIGAND FREE ENERGY PREDICTED BY IDOCK:   -7.45 KCAL/MOL
REMARK 924 INTRA-LIGAND FREE ENERGY PREDICTED BY IDOCK:    0.69 KCAL/MOL
REMARK 927      BINDING AFFINITY PREDICTED BY RF-SCORE:    0.00 PKD
ROOT
HETATM    1  C   UNL     1     -10.440   7.857  69.185  1.00  0.00    -0.218 C  
HETATM    2  C   UNL     1     -10.361   6.655  70.085  1.00  0.00    -0.203 C  
HETATM    3  O   UNL     1     -10.020   7.209  71.371  1.00  0.00    -0.187 OA 
HETATM    4  C   UNL     1      -9.443   8.445  71.210  1.00  0.00    -0.186 C  
HETATM    5  C   UNL     1      -9.363   8.753  69.746  1.00  0.00    -0.163 C  
HETATM    6  O   UNL     1      -8.978   9.114  72.118  1.00  0.00    -0.315 OA 
HETATM    7  C   UNL     1      -9.572  10.188  69.262  1.00  0.00    -0.239 C  
HETATM    8  C   UNL     1     -10.026  12.038  63.672  1.00  0.00    -0.363 C  
HETATM    9  C   UNL     1      -9.621  10.183  67.727  1.00  0.00    -0.168 A  
HETATM   10  O   UNL     1      -9.558  12.565  64.930  1.00  0.00    -0.030 OA 
HETATM   11  C   UNL     1      -9.426  11.406  67.062  1.00  0.00    -0.186 A  
HETATM   12  C   UNL     1      -9.624  11.451  65.704  1.00  0.00    -0.231 A  
HETATM   13  C   UNL     1      -9.987   9.002  66.989  1.00  0.00    -0.295 A  
HETATM   14  C   UNL     1      -9.959  10.329  64.991  1.00  0.00    -0.323 A  
HETATM   15  C   UNL     1     -10.228   7.662  67.692  1.00  0.00    -0.214 C  
HETATM   16  H   UNL     1     -11.264   6.896  66.264  1.00  0.00     0.000 HD 
HETATM   17  O   UNL     1     -10.144  10.597  63.669  1.00  0.00    -0.326 OA 
HETATM   18  C   UNL     1     -10.117   9.093  65.590  1.00  0.00     0.130 A  
HETATM   19  O   UNL     1     -11.396   7.017  67.197  1.00  0.00    -0.240 OA 
ENDROOT
BRANCH   7  20
HETATM   20  C   UNL     1     -10.803  10.866  69.865  1.00  0.00    -0.205 A  
HETATM   21  C   UNL     1     -12.673  10.896  71.456  1.00  0.00    -0.428 A  
HETATM   22  C   UNL     1     -11.628  10.229  70.805  1.00  0.00    -0.446 A  
HETATM   23  C   UNL     1     -12.129  12.881  70.150  1.00  0.00    -0.302 A  
HETATM   24  C   UNL     1     -11.088  12.187  69.526  1.00  0.00    -0.117 A  
HETATM   25  C   UNL     1     -12.937  12.238  71.117  1.00  0.00    -0.138 A  
BRANCH  23  26
HETATM   26  O   UNL     1     -12.435  14.188  69.838  1.00  0.00    -0.341 OA 
HETATM   27  C   UNL     1     -11.369  15.127  69.952  1.00  0.00    -0.284 C  
ENDBRANCH  23  26
BRANCH  25  28
HETATM   28  O   UNL     1     -13.877  13.048  71.712  1.00  0.00    -0.206 OA 
HETATM   29  C   UNL     1     -13.464  13.857  72.805  1.00  0.00    -0.438 C  
ENDBRANCH  25  28
BRANCH  21  30
HETATM   30  O   UNL     1     -13.414  10.297  72.442  1.00  0.00    -0.310 OA 
HETATM   31  C   UNL     1     -13.867   8.962  72.235  1.00  0.00    -0.474 C  
ENDBRANCH  21  30
ENDBRANCH   7  20
TORSDOF 4
ENDMDL
MODEL       73
REMARK 921   NORMALIZED FREE ENERGY PREDICTED BY IDOCK:   -4.84 KCAL/MOL
REMARK 922        TOTAL FREE ENERGY PREDICTED BY IDOCK:   -6.73 KCAL/MOL
REMARK 923 INTER-LIGAND FREE ENERGY PREDICTED BY IDOCK:   -5.86 KCAL/MOL
REMARK 924 INTRA-LIGAND FREE ENERGY PREDICTED BY IDOCK:   -0.87 KCAL/MOL
REMARK 927      BINDING AFFINITY PREDICTED BY RF-SCORE:    0.00 PKD
ROOT
HETATM    1  C   UNL     1      -9.309  11.056  67.624  1.00  0.00    -0.162 C  
HETATM    2  C   UNL     1      -8.676  11.939  66.584  1.00  0.00    -0.185 C  
HETATM    3  O   UNL     1      -7.273  11.621  66.671  1.00  0.00    -0.114 OA 
HETATM    4  C   UNL     1      -6.993  11.070  67.898  1.00  0.00    -0.073 C  
HETATM    5  C   UNL     1      -8.255  11.020  68.703  1.00  0.00    -0.151 C  
HETATM    6  O   UNL     1      -5.873  10.780  68.286  1.00  0.00    -0.044 OA 
HETATM    7  C   UNL     1      -8.508   9.841  69.643  1.00  0.00    -0.194 C  
HETATM    8  C   UNL     1     -13.466   8.651  72.622  1.00  0.00    -0.227 C  
HETATM    9  C   UNL     1      -9.938   9.952  70.191  1.00  0.00    -0.291 A  
HETATM   10  O   UNL     1     -12.050   8.439  72.790  1.00  0.00    -0.354 OA 
HETATM   11  C   UNL     1     -10.256   9.210  71.342  1.00  0.00    -0.402 A  
HETATM   12  C   UNL     1     -11.566   9.171  71.754  1.00  0.00    -0.387 A  
HETATM   13  C   UNL     1     -10.962  10.679  69.486  1.00  0.00    -0.321 A  
HETATM   14  C   UNL     1     -12.544   9.871  71.097  1.00  0.00    -0.367 A  
HETATM   15  C   UNL     1     -10.645  11.477  68.216  1.00  0.00    -0.200 C  
HETATM   16  H   UNL     1     -12.458  11.520  67.577  1.00  0.00     0.000 HD 
HETATM   17  O   UNL     1     -13.775   9.668  71.643  1.00  0.00    -0.335 OA 
HETATM   18  C   UNL     1     -12.276  10.653  69.989  1.00  0.00    -0.373 A  
HETATM   19  O   UNL     1     -11.624  11.257  67.207  1.00  0.00    -0.527 OA 
ENDROOT
BRANCH   7  20
HETATM   20  C   UNL     1      -8.254   8.478  68.997  1.00  0.00    -0.116 A  
HETATM   21  C   UNL     1      -8.772   6.773  67.307  1.00  0.00    -0.119 A  
HETATM   22  C   UNL     1      -9.082   7.955  67.990  1.00  0.00    -0.132 A  
HETATM   23  C   UNL     1      -6.792   6.559  68.711  1.00  0.00    -0.070 A  
HETATM   24  C   UNL     1      -7.126   7.748  69.367  1.00  0.00    -0.071 A  
HETATM   25  C   UNL     1      -7.618   6.057  67.678  1.00  0.00    -0.090 A  
BRANCH  23  26
HETATM   26  O   UNL     1      -5.683   5.816  69.053  1.00  0.00    -0.010 OA 
HETATM   27  C   UNL     1      -5.700   5.221  70.348  1.00  0.00    -0.016 C  
ENDBRANCH  23  26
BRANCH  25  28
HETATM   28  O   UNL     1      -7.142   4.922  67.062  1.00  0.00    -0.069 OA 
HETATM   29  C   UNL     1      -7.719   3.675  67.423  1.00  0.00    -0.078 C  
ENDBRANCH  25  28
BRANCH  21  30
HETATM   30  O   UNL     1      -9.534   6.320  66.260  1.00  0.00    -0.157 OA 
HETATM   31  C   UNL     1     -10.747   5.631  66.552  1.00  0.00    -0.226 C  
ENDBRANCH  21  30
ENDBRANCH   7  20
TORSDOF 4
ENDMDL
MODEL       74
REMARK 921   NORMALIZED FREE ENERGY PREDICTED BY IDOCK:   -4.84 KCAL/MOL
REMARK 922        TOTAL FREE ENERGY PREDICTED BY IDOCK:   -6.72 KCAL/MOL
REMARK 923 INTER-LIGAND FREE ENERGY PREDICTED BY IDOCK:   -6.00 KCAL/MOL
REMARK 924 INTRA-LIGAND FREE ENERGY PREDICTED BY IDOCK:   -0.72 KCAL/MOL
REMARK 927      BINDING AFFINITY PREDICTED BY RF-SCORE:    0.00 PKD
ROOT
HETATM    1  C   UNL     1      -7.667  11.381  68.721  1.00  0.00    -0.135 C  
HETATM    2  C   UNL     1      -6.620  11.328  69.799  1.00  0.00    -0.130 C  
HETATM    3  O   UNL     1      -6.922  10.115  70.514  1.00  0.00    -0.244 OA 
HETATM    4  C   UNL     1      -8.231   9.757  70.298  1.00  0.00    -0.148 C  
HETATM    5  C   UNL     1      -8.869  10.780  69.408  1.00  0.00     0.027 C  
HETATM    6  O   UNL     1      -8.790   8.820  70.843  1.00  0.00    -0.162 OA 
HETATM    7  C   UNL     1      -9.900  10.340  68.368  1.00  0.00    -0.168 C  
HETATM    8  C   UNL     1     -12.341  13.660  64.138  1.00  0.00    -0.330 C  
HETATM    9  C   UNL     1     -10.245  11.547  67.483  1.00  0.00    -0.207 A  
HETATM   10  O   UNL     1     -12.712  12.521  64.940  1.00  0.00    -0.657 OA 
HETATM   11  C   UNL     1     -11.425  11.482  66.722  1.00  0.00    -0.233 A  
HETATM   12  C   UNL     1     -11.668  12.478  65.806  1.00  0.00    -0.426 A  
HETATM   13  C   UNL     1      -9.334  12.651  67.326  1.00  0.00    -0.195 A  
HETATM   14  C   UNL     1     -10.813  13.540  65.660  1.00  0.00    -0.287 A  
HETATM   15  C   UNL     1      -8.030  12.732  68.127  1.00  0.00    -0.156 C  
HETATM   16  H   UNL     1      -7.164  13.965  66.931  1.00  0.00     0.000 HD 
HETATM   17  O   UNL     1     -11.218  14.392  64.678  1.00  0.00    -0.377 OA 
HETATM   18  C   UNL     1      -9.664  13.674  66.417  1.00  0.00    -0.300 A  
HETATM   19  O   UNL     1      -6.937  13.120  67.303  1.00  0.00    -0.138 OA 
ENDROOT
BRANCH   7  20
HETATM   20  C   UNL     1      -9.457   9.136  67.536  1.00  0.00    -0.169 A  
HETATM   21  C   UNL     1      -9.625   6.760  66.940  1.00  0.00    -0.160 A  
HETATM   22  C   UNL     1      -9.925   7.836  67.784  1.00  0.00    -0.220 A  
HETATM   23  C   UNL     1      -8.281   8.281  65.590  1.00  0.00    -0.134 A  
HETATM   24  C   UNL     1      -8.608   9.335  66.449  1.00  0.00    -0.141 A  
HETATM   25  C   UNL     1      -8.782   6.980  65.833  1.00  0.00    -0.126 A  
BRANCH  23  26
HETATM   26  O   UNL     1      -7.446   8.445  64.507  1.00  0.00    -0.090 OA 
HETATM   27  C   UNL     1      -8.043   8.988  63.331  1.00  0.00    -0.167 C  
ENDBRANCH  23  26
BRANCH  25  28
HETATM   28  O   UNL     1      -8.450   6.048  64.876  1.00  0.00    -0.132 OA 
HETATM   29  C   UNL     1      -7.450   5.091  65.196  1.00  0.00    -0.076 C  
ENDBRANCH  25  28
BRANCH  21  30
HETATM   30  O   UNL     1     -10.163   5.513  67.134  1.00  0.00    -0.172 OA 
HETATM   31  C   UNL     1      -9.649   4.709  68.193  1.00  0.00    -0.148 C  
ENDBRANCH  21  30
ENDBRANCH   7  20
TORSDOF 4
ENDMDL
MODEL       75
REMARK 921   NORMALIZED FREE ENERGY PREDICTED BY IDOCK:   -4.82 KCAL/MOL
REMARK 922        TOTAL FREE ENERGY PREDICTED BY IDOCK:   -6.70 KCAL/MOL
REMARK 923 INTER-LIGAND FREE ENERGY PREDICTED BY IDOCK:   -5.89 KCAL/MOL
REMARK 924 INTRA-LIGAND FREE ENERGY PREDICTED BY IDOCK:   -0.82 KCAL/MOL
REMARK 927      BINDING AFFINITY PREDICTED BY RF-SCORE:    0.00 PKD
ROOT
HETATM    1  C   UNL     1      -9.247  11.097  67.660  1.00  0.00    -0.151 C  
HETATM    2  C   UNL     1      -8.604  11.996  66.641  1.00  0.00    -0.143 C  
HETATM    3  O   UNL     1      -7.202  11.679  66.737  1.00  0.00    -0.137 OA 
HETATM    4  C   UNL     1      -6.934  11.109  67.958  1.00  0.00    -0.068 C  
HETATM    5  C   UNL     1      -8.205  11.045  68.750  1.00  0.00    -0.146 C  
HETATM    6  O   UNL     1      -5.818  10.815  68.353  1.00  0.00    -0.044 OA 
HETATM    7  C   UNL     1      -8.465   9.851  69.668  1.00  0.00    -0.198 C  
HETATM    8  C   UNL     1     -13.451   8.607  72.577  1.00  0.00    -0.287 C  
HETATM    9  C   UNL     1      -9.901   9.951  70.203  1.00  0.00    -0.272 A  
HETATM   10  O   UNL     1     -12.036   8.394  72.756  1.00  0.00    -0.354 OA 
HETATM   11  C   UNL     1     -10.229   9.191  71.339  1.00  0.00    -0.402 A  
HETATM   12  C   UNL     1     -11.543   9.143  71.737  1.00  0.00    -0.387 A  
HETATM   13  C   UNL     1     -10.918  10.688  69.499  1.00  0.00    -0.321 A  
HETATM   14  C   UNL     1     -12.516   9.852  71.080  1.00  0.00    -0.368 A  
HETATM   15  C   UNL     1     -10.589  11.506  68.246  1.00  0.00    -0.200 C  
HETATM   16  H   UNL     1     -12.397  11.556  67.589  1.00  0.00     0.000 HD 
HETATM   17  O   UNL     1     -13.752   9.639  71.611  1.00  0.00    -0.335 OA 
HETATM   18  C   UNL     1     -12.238  10.652  69.988  1.00  0.00    -0.373 A  
HETATM   19  O   UNL     1     -11.558  11.300  67.223  1.00  0.00    -0.527 OA 
ENDROOT
BRANCH   7  20
HETATM   20  C   UNL     1      -8.202   8.499  69.003  1.00  0.00    -0.116 A  
HETATM   21  C   UNL     1      -7.026   6.345  68.909  1.00  0.00    -0.076 A  
HETATM   22  C   UNL     1      -7.179   7.636  69.428  1.00  0.00    -0.081 A  
HETATM   23  C   UNL     1      -8.916   6.786  67.434  1.00  0.00    -0.115 A  
HETATM   24  C   UNL     1      -9.045   8.067  67.980  1.00  0.00    -0.130 A  
HETATM   25  C   UNL     1      -7.898   5.915  67.890  1.00  0.00    -0.104 A  
BRANCH  23  26
HETATM   26  O   UNL     1      -9.734   6.331  66.423  1.00  0.00    -0.160 OA 
HETATM   27  C   UNL     1     -11.105   6.141  66.763  1.00  0.00    -0.152 C  
ENDBRANCH  23  26
BRANCH  25  28
HETATM   28  O   UNL     1      -7.923   4.659  67.328  1.00  0.00    -0.100 OA 
HETATM   29  C   UNL     1      -8.571   3.620  68.048  1.00  0.00    -0.098 C  
ENDBRANCH  25  28
BRANCH  21  30
HETATM   30  O   UNL     1      -6.085   5.475  69.395  1.00  0.00    -0.022 OA 
HETATM   31  C   UNL     1      -6.281   4.916  70.692  1.00  0.00    -0.019 C  
ENDBRANCH  21  30
ENDBRANCH   7  20
TORSDOF 4
ENDMDL
MODEL       76
REMARK 921   NORMALIZED FREE ENERGY PREDICTED BY IDOCK:   -4.82 KCAL/MOL
REMARK 922        TOTAL FREE ENERGY PREDICTED BY IDOCK:   -6.70 KCAL/MOL
REMARK 923 INTER-LIGAND FREE ENERGY PREDICTED BY IDOCK:   -6.41 KCAL/MOL
REMARK 924 INTRA-LIGAND FREE ENERGY PREDICTED BY IDOCK:   -0.29 KCAL/MOL
REMARK 927      BINDING AFFINITY PREDICTED BY RF-SCORE:    0.00 PKD
ROOT
HETATM    1  C   UNL     1     -11.470  13.097  65.912  1.00  0.00    -0.366 C  
HETATM    2  C   UNL     1     -12.710  13.898  66.199  1.00  0.00    -0.288 C  
HETATM    3  O   UNL     1     -12.648  14.133  67.619  1.00  0.00     0.014 OA 
HETATM    4  C   UNL     1     -11.837  13.196  68.213  1.00  0.00    -0.349 C  
HETATM    5  C   UNL     1     -11.331  12.259  67.159  1.00  0.00    -0.398 C  
HETATM    6  O   UNL     1     -11.664  13.095  69.416  1.00  0.00    -0.294 OA 
HETATM    7  C   UNL     1      -9.910  11.703  67.260  1.00  0.00    -0.203 C  
HETATM    8  C   UNL     1      -7.034   8.505  63.213  1.00  0.00    -0.089 C  
HETATM    9  C   UNL     1      -9.596  10.932  65.970  1.00  0.00    -0.248 A  
HETATM   10  O   UNL     1      -7.051   8.633  64.649  1.00  0.00    -0.079 OA 
HETATM   11  C   UNL     1      -8.516  10.032  65.993  1.00  0.00    -0.137 A  
HETATM   12  C   UNL     1      -8.120   9.454  64.811  1.00  0.00    -0.131 A  
HETATM   13  C   UNL     1     -10.287  11.210  64.738  1.00  0.00    -0.387 A  
HETATM   14  C   UNL     1      -8.781   9.703  63.636  1.00  0.00    -0.224 A  
HETATM   15  C   UNL     1     -11.452  12.204  64.682  1.00  0.00    -0.328 C  
HETATM   16  H   UNL     1     -11.334  12.508  62.786  1.00  0.00     0.000 HD 
HETATM   17  O   UNL     1      -8.209   9.062  62.580  1.00  0.00    -0.157 OA 
HETATM   18  C   UNL     1      -9.877  10.542  63.568  1.00  0.00    -0.339 A  
HETATM   19  O   UNL     1     -11.345  13.067  63.555  1.00  0.00    -0.406 OA 
ENDROOT
BRANCH   7  20
HETATM   20  C   UNL     1      -8.854  12.770  67.553  1.00  0.00    -0.187 A  
HETATM   21  C   UNL     1      -6.725  13.463  68.560  1.00  0.00    -0.096 A  
HETATM   22  C   UNL     1      -7.760  12.534  68.400  1.00  0.00    -0.136 A  
HETATM   23  C   UNL     1      -7.923  14.958  67.054  1.00  0.00    -0.135 A  
HETATM   24  C   UNL     1      -8.935  14.004  66.910  1.00  0.00    -0.243 A  
HETATM   25  C   UNL     1      -6.811  14.698  67.888  1.00  0.00    -0.163 A  
BRANCH  23  26
HETATM   26  O   UNL     1      -7.974  16.185  66.431  1.00  0.00    -0.278 OA 
HETATM   27  C   UNL     1      -8.929  17.112  66.944  1.00  0.00    -0.235 C  
ENDBRANCH  23  26
BRANCH  25  28
HETATM   28  O   UNL     1      -5.849  15.682  67.887  1.00  0.00    -0.120 OA 
HETATM   29  C   UNL     1      -5.841  16.607  68.965  1.00  0.00    -0.148 C  
ENDBRANCH  25  28
BRANCH  21  30
HETATM   30  O   UNL     1      -5.613  13.187  69.314  1.00  0.00    -0.074 OA 
HETATM   31  C   UNL     1      -5.691  13.354  70.727  1.00  0.00    -0.184 C  
ENDBRANCH  21  30
ENDBRANCH   7  20
TORSDOF 4
ENDMDL
MODEL       77
REMARK 921   NORMALIZED FREE ENERGY PREDICTED BY IDOCK:   -4.79 KCAL/MOL
REMARK 922        TOTAL FREE ENERGY PREDICTED BY IDOCK:   -6.66 KCAL/MOL
REMARK 923 INTER-LIGAND FREE ENERGY PREDICTED BY IDOCK:   -5.91 KCAL/MOL
REMARK 924 INTRA-LIGAND FREE ENERGY PREDICTED BY IDOCK:   -0.75 KCAL/MOL
REMARK 927      BINDING AFFINITY PREDICTED BY RF-SCORE:    0.00 PKD
ROOT
HETATM    1  C   UNL     1      -8.762   8.786  66.042  1.00  0.00    -0.193 C  
HETATM    2  C   UNL     1      -8.409   8.478  64.613  1.00  0.00    -0.146 C  
HETATM    3  O   UNL     1      -9.018   9.552  63.869  1.00  0.00    -0.228 OA 
HETATM    4  C   UNL     1     -10.029  10.118  64.606  1.00  0.00    -0.234 C  
HETATM    5  C   UNL     1     -10.138   9.392  65.912  1.00  0.00    -0.243 C  
HETATM    6  O   UNL     1     -10.776  10.993  64.198  1.00  0.00    -0.378 OA 
HETATM    7  C   UNL     1     -10.491  10.167  67.182  1.00  0.00    -0.305 C  
HETATM    8  C   UNL     1     -10.480   8.129  72.725  1.00  0.00    -0.315 C  
HETATM    9  C   UNL     1     -10.352   9.222  68.384  1.00  0.00    -0.244 A  
HETATM   10  O   UNL     1     -11.193   9.123  71.960  1.00  0.00    -0.364 OA 
HETATM   11  C   UNL     1     -10.979   9.597  69.586  1.00  0.00    -0.253 A  
HETATM   12  C   UNL     1     -10.735   8.849  70.712  1.00  0.00    -0.233 A  
HETATM   13  C   UNL     1      -9.503   8.060  68.336  1.00  0.00    -0.148 A  
HETATM   14  C   UNL     1      -9.939   7.733  70.672  1.00  0.00    -0.186 A  
HETATM   15  C   UNL     1      -8.790   7.644  67.045  1.00  0.00    -0.128 C  
HETATM   16  H   UNL     1      -7.452   6.574  67.918  1.00  0.00     0.000 HD 
HETATM   17  O   UNL     1      -9.798   7.160  71.898  1.00  0.00    -0.161 OA 
HETATM   18  C   UNL     1      -9.338   7.296  69.507  1.00  0.00    -0.152 A  
HETATM   19  O   UNL     1      -7.435   7.287  67.291  1.00  0.00    -0.094 OA 
ENDROOT
BRANCH   7  20
HETATM   20  C   UNL     1      -9.670  11.444  67.368  1.00  0.00    -0.196 A  
HETATM   21  C   UNL     1      -9.507  13.890  67.511  1.00  0.00    -0.216 A  
HETATM   22  C   UNL     1     -10.222  12.725  67.209  1.00  0.00    -0.232 A  
HETATM   23  C   UNL     1      -7.594  12.489  68.077  1.00  0.00    -0.127 A  
HETATM   24  C   UNL     1      -8.340  11.346  67.775  1.00  0.00    -0.127 A  
HETATM   25  C   UNL     1      -8.170  13.774  67.940  1.00  0.00    -0.166 A  
BRANCH  23  26
HETATM   26  O   UNL     1      -6.279  12.425  68.482  1.00  0.00    -0.057 OA 
HETATM   27  C   UNL     1      -5.779  11.125  68.787  1.00  0.00    -0.043 C  
ENDBRANCH  23  26
BRANCH  25  28
HETATM   28  O   UNL     1      -7.360  14.813  68.339  1.00  0.00    -0.105 OA 
HETATM   29  C   UNL     1      -6.734  15.595  67.332  1.00  0.00    -0.183 C  
ENDBRANCH  25  28
BRANCH  21  30
HETATM   30  O   UNL     1     -10.083  15.132  67.445  1.00  0.00    -0.227 OA 
HETATM   31  C   UNL     1     -11.230  15.306  66.616  1.00  0.00    -0.232 C  
ENDBRANCH  21  30
ENDBRANCH   7  20
TORSDOF 4
ENDMDL
MODEL       78
REMARK 921   NORMALIZED FREE ENERGY PREDICTED BY IDOCK:   -4.78 KCAL/MOL
REMARK 922        TOTAL FREE ENERGY PREDICTED BY IDOCK:   -6.65 KCAL/MOL
REMARK 923 INTER-LIGAND FREE ENERGY PREDICTED BY IDOCK:   -6.02 KCAL/MOL
REMARK 924 INTRA-LIGAND FREE ENERGY PREDICTED BY IDOCK:   -0.63 KCAL/MOL
REMARK 927      BINDING AFFINITY PREDICTED BY RF-SCORE:    0.00 PKD
ROOT
HETATM    1  C   UNL     1     -11.540  14.831  67.472  1.00  0.00    -0.379 C  
HETATM    2  C   UNL     1     -12.535  15.705  68.184  1.00  0.00     0.945 C  
HETATM    3  O   UNL     1     -11.857  16.082  69.398  1.00  0.00    -0.325 OA 
HETATM    4  C   UNL     1     -10.859  15.180  69.676  1.00  0.00    -0.286 C  
HETATM    5  C   UNL     1     -10.858  14.121  68.615  1.00  0.00    -0.268 C  
HETATM    6  O   UNL     1     -10.173  15.196  70.685  1.00  0.00    -0.020 OA 
HETATM    7  C   UNL     1      -9.531  13.523  68.144  1.00  0.00    -0.214 C  
HETATM    8  C   UNL     1      -8.696   9.817  63.623  1.00  0.00    -0.221 C  
HETATM    9  C   UNL     1      -9.809  12.612  66.939  1.00  0.00    -0.234 A  
HETATM   10  O   UNL     1      -8.080  10.093  64.897  1.00  0.00    -0.145 OA 
HETATM   11  C   UNL     1      -8.819  11.678  66.586  1.00  0.00    -0.187 A  
HETATM   12  C   UNL     1      -8.978  10.967  65.421  1.00  0.00    -0.178 A  
HETATM   13  C   UNL     1     -10.974  12.788  66.113  1.00  0.00    -0.310 A  
HETATM   14  C   UNL     1     -10.091  11.119  64.635  1.00  0.00    -0.302 A  
HETATM   15  C   UNL     1     -12.056  13.816  66.465  1.00  0.00    -0.443 C  
HETATM   16  H   UNL     1     -12.786  13.920  64.688  1.00  0.00     0.000 HD 
HETATM   17  O   UNL     1     -10.034  10.351  63.512  1.00  0.00    -0.277 OA 
HETATM   18  C   UNL     1     -11.114  11.989  64.963  1.00  0.00    -0.368 A  
HETATM   19  O   UNL     1     -12.464  14.554  65.318  1.00  0.00    -0.369 OA 
ENDROOT
BRANCH   7  20
HETATM   20  C   UNL     1      -8.465  14.572  67.826  1.00  0.00    -0.176 A  
HETATM   21  C   UNL     1      -7.746  16.626  66.689  1.00  0.00    -0.281 A  
HETATM   22  C   UNL     1      -8.667  15.590  66.880  1.00  0.00    -0.281 A  
HETATM   23  C   UNL     1      -6.324  15.583  68.371  1.00  0.00    -0.109 A  
HETATM   24  C   UNL     1      -7.270  14.568  68.543  1.00  0.00    -0.120 A  
HETATM   25  C   UNL     1      -6.552  16.619  67.435  1.00  0.00    -0.168 A  
BRANCH  23  26
HETATM   26  O   UNL     1      -5.135  15.607  69.066  1.00  0.00    -0.095 OA 
HETATM   27  C   UNL     1      -5.188  15.158  70.418  1.00  0.00    -0.122 C  
ENDBRANCH  23  26
BRANCH  25  28
HETATM   28  O   UNL     1      -5.583  17.597  67.414  1.00  0.00    -0.130 OA 
HETATM   29  C   UNL     1      -5.646  18.619  68.399  1.00  0.00    -0.191 C  
ENDBRANCH  25  28
BRANCH  21  30
HETATM   30  O   UNL     1      -7.994  17.668  65.831  1.00  0.00    -0.531 OA 
HETATM   31  C   UNL     1      -8.851  18.718  66.269  1.00  0.00    -0.233 C  
ENDBRANCH  21  30
ENDBRANCH   7  20
TORSDOF 4
ENDMDL
MODEL       79
REMARK 921   NORMALIZED FREE ENERGY PREDICTED BY IDOCK:   -4.69 KCAL/MOL
REMARK 922        TOTAL FREE ENERGY PREDICTED BY IDOCK:   -6.54 KCAL/MOL
REMARK 923 INTER-LIGAND FREE ENERGY PREDICTED BY IDOCK:   -5.91 KCAL/MOL
REMARK 924 INTRA-LIGAND FREE ENERGY PREDICTED BY IDOCK:   -0.63 KCAL/MOL
REMARK 927      BINDING AFFINITY PREDICTED BY RF-SCORE:    0.00 PKD
ROOT
HETATM    1  C   UNL     1      -9.931  13.096  67.723  1.00  0.00    -0.227 C  
HETATM    2  C   UNL     1     -10.037  14.578  67.490  1.00  0.00    -0.228 C  
HETATM    3  O   UNL     1      -8.729  14.945  67.012  1.00  0.00    -0.210 OA 
HETATM    4  C   UNL     1      -7.807  14.002  67.397  1.00  0.00    -0.170 C  
HETATM    5  C   UNL     1      -8.506  12.944  68.195  1.00  0.00    -0.176 C  
HETATM    6  O   UNL     1      -6.605  14.092  67.207  1.00  0.00    -0.274 OA 
HETATM    7  C   UNL     1      -8.065  11.485  68.066  1.00  0.00    -0.136 C  
HETATM    8  C   UNL     1     -10.716   6.741  70.377  1.00  0.00    -0.241 C  
HETATM    9  C   UNL     1      -9.059  10.606  68.839  1.00  0.00    -0.181 A  
HETATM   10  O   UNL     1      -9.377   7.142  70.024  1.00  0.00    -0.155 OA 
HETATM   11  C   UNL     1      -8.654   9.302  69.175  1.00  0.00    -0.134 A  
HETATM   12  C   UNL     1      -9.583   8.450  69.722  1.00  0.00    -0.170 A  
HETATM   13  C   UNL     1     -10.407  11.040  69.098  1.00  0.00    -0.210 A  
HETATM   14  C   UNL     1     -10.864   8.859  69.984  1.00  0.00    -0.227 A  
HETATM   15  C   UNL     1     -10.879  12.449  68.720  1.00  0.00    -0.226 C  
HETATM   16  H   UNL     1     -12.753  12.014  68.724  1.00  0.00     0.000 HD 
HETATM   17  O   UNL     1     -11.630   7.854  70.491  1.00  0.00    -0.247 OA 
HETATM   18  C   UNL     1     -11.299  10.144  69.717  1.00  0.00    -0.312 A  
HETATM   19  O   UNL     1     -12.161  12.419  68.101  1.00  0.00    -0.362 OA 
ENDROOT
BRANCH   7  20
HETATM   20  C   UNL     1      -7.904  11.019  66.619  1.00  0.00    -0.153 A  
HETATM   21  C   UNL     1      -6.613   9.899  64.855  1.00  0.00    -0.119 A  
HETATM   22  C   UNL     1      -6.715  10.447  66.140  1.00  0.00    -0.117 A  
HETATM   23  C   UNL     1      -8.923  10.570  64.459  1.00  0.00    -0.209 A  
HETATM   24  C   UNL     1      -8.992  11.100  65.751  1.00  0.00    -0.207 A  
HETATM   25  C   UNL     1      -7.728   9.970  63.997  1.00  0.00    -0.143 A  
BRANCH  23  26
HETATM   26  O   UNL     1      -9.981  10.633  63.580  1.00  0.00    -0.321 OA 
HETATM   27  C   UNL     1     -11.020  11.550  63.912  1.00  0.00    -0.401 C  
ENDBRANCH  23  26
BRANCH  25  28
HETATM   28  O   UNL     1      -7.810   9.420  62.738  1.00  0.00    -0.115 OA 
HETATM   29  C   UNL     1      -8.131   8.040  62.634  1.00  0.00    -0.152 C  
ENDBRANCH  25  28
BRANCH  21  30
HETATM   30  O   UNL     1      -5.479   9.257  64.428  1.00  0.00    -0.057 OA 
HETATM   31  C   UNL     1      -5.225   7.938  64.904  1.00  0.00    -0.029 C  
ENDBRANCH  21  30
ENDBRANCH   7  20
TORSDOF 4
ENDMDL
MODEL       80
REMARK 921   NORMALIZED FREE ENERGY PREDICTED BY IDOCK:   -4.69 KCAL/MOL
REMARK 922        TOTAL FREE ENERGY PREDICTED BY IDOCK:   -6.54 KCAL/MOL
REMARK 923 INTER-LIGAND FREE ENERGY PREDICTED BY IDOCK:   -6.83 KCAL/MOL
REMARK 924 INTRA-LIGAND FREE ENERGY PREDICTED BY IDOCK:    0.29 KCAL/MOL
REMARK 927      BINDING AFFINITY PREDICTED BY RF-SCORE:    0.00 PKD
ROOT
HETATM    1  C   UNL     1      -7.446  11.831  68.841  1.00  0.00    -0.080 C  
HETATM    2  C   UNL     1      -6.397  12.901  68.977  1.00  0.00    -0.100 C  
HETATM    3  O   UNL     1      -7.074  14.101  68.558  1.00  0.00    -0.089 OA 
HETATM    4  C   UNL     1      -8.157  13.780  67.777  1.00  0.00    -0.176 C  
HETATM    5  C   UNL     1      -8.223  12.290  67.632  1.00  0.00    -0.166 C  
HETATM    6  O   UNL     1      -8.868  14.595  67.212  1.00  0.00    -0.184 OA 
HETATM    7  C   UNL     1      -9.582  11.593  67.588  1.00  0.00    -0.184 C  
HETATM    8  C   UNL     1     -10.614   5.779  67.669  1.00  0.00    -0.239 C  
HETATM    9  C   UNL     1      -9.353  10.075  67.624  1.00  0.00    -0.159 A  
HETATM   10  O   UNL     1     -11.240   6.960  67.129  1.00  0.00    -0.352 OA 
HETATM   11  C   UNL     1     -10.412   9.244  67.216  1.00  0.00    -0.334 A  
HETATM   12  C   UNL     1     -10.284   7.888  67.392  1.00  0.00    -0.251 A  
HETATM   13  C   UNL     1      -8.152   9.506  68.180  1.00  0.00    -0.102 A  
HETATM   14  C   UNL     1      -9.138   7.338  67.907  1.00  0.00    -0.132 A  
HETATM   15  C   UNL     1      -6.994  10.392  68.652  1.00  0.00    -0.066 C  
HETATM   16  H   UNL     1      -6.205   9.057  69.791  1.00  0.00     0.000 HD 
HETATM   17  O   UNL     1      -9.231   5.985  68.031  1.00  0.00    -0.117 OA 
HETATM   18  C   UNL     1      -8.051   8.106  68.279  1.00  0.00    -0.128 A  
HETATM   19  O   UNL     1      -6.487   9.957  69.909  1.00  0.00    -0.052 OA 
ENDROOT
BRANCH   7  20
HETATM   20  C   UNL     1     -10.540  12.046  68.690  1.00  0.00    -0.253 A  
HETATM   21  C   UNL     1     -11.918  13.775  69.760  1.00  0.00    -0.344 A  
HETATM   22  C   UNL     1     -10.939  13.384  68.838  1.00  0.00    -0.284 A  
HETATM   23  C   UNL     1     -12.069  11.452  70.484  1.00  0.00    -0.394 A  
HETATM   24  C   UNL     1     -11.095  11.095  69.546  1.00  0.00    -0.311 A  
HETATM   25  C   UNL     1     -12.484  12.799  70.604  1.00  0.00    -0.246 A  
BRANCH  23  26
HETATM   26  O   UNL     1     -12.636  10.535  71.341  1.00  0.00    -0.369 OA 
HETATM   27  C   UNL     1     -11.955   9.290  71.468  1.00  0.00    -0.368 C  
ENDBRANCH  23  26
BRANCH  25  28
HETATM   28  O   UNL     1     -13.500  13.009  71.508  1.00  0.00    -0.273 OA 
HETATM   29  C   UNL     1     -13.227  13.822  72.641  1.00  0.00    -0.470 C  
ENDBRANCH  25  28
BRANCH  21  30
HETATM   30  O   UNL     1     -12.371  15.067  69.833  1.00  0.00    -0.312 OA 
HETATM   31  C   UNL     1     -11.514  16.114  69.383  1.00  0.00    -0.296 C  
ENDBRANCH  21  30
ENDBRANCH   7  20
TORSDOF 4
ENDMDL
MODEL       81
REMARK 921   NORMALIZED FREE ENERGY PREDICTED BY IDOCK:   -4.65 KCAL/MOL
REMARK 922        TOTAL FREE ENERGY PREDICTED BY IDOCK:   -6.49 KCAL/MOL
REMARK 923 INTER-LIGAND FREE ENERGY PREDICTED BY IDOCK:   -5.94 KCAL/MOL
REMARK 924 INTRA-LIGAND FREE ENERGY PREDICTED BY IDOCK:   -0.55 KCAL/MOL
REMARK 927      BINDING AFFINITY PREDICTED BY RF-SCORE:    0.00 PKD
ROOT
HETATM    1  C   UNL     1     -11.179  15.478  67.032  1.00  0.00    -0.177 C  
HETATM    2  C   UNL     1     -11.290  15.514  65.533  1.00  0.00    -0.095 C  
HETATM    3  O   UNL     1     -10.255  16.434  65.134  1.00  0.00    -0.582 OA 
HETATM    4  C   UNL     1      -9.925  17.253  66.186  1.00  0.00    -0.275 C  
HETATM    5  C   UNL     1     -10.782  16.895  67.362  1.00  0.00    -0.241 C  
HETATM    6  O   UNL     1      -9.139  18.184  66.118  1.00  0.00    -0.478 OA 
HETATM    7  C   UNL     1     -10.196  16.960  68.773  1.00  0.00    -0.311 C  
HETATM    8  C   UNL     1     -12.734  15.119  73.778  1.00  0.00    -0.525 C  
HETATM    9  C   UNL     1     -11.220  16.371  69.754  1.00  0.00    -0.252 A  
HETATM   10  O   UNL     1     -11.792  16.135  73.376  1.00  0.00    -0.401 OA 
HETATM   11  C   UNL     1     -11.064  16.668  71.119  1.00  0.00     0.323 A  
HETATM   12  C   UNL     1     -11.871  16.023  72.025  1.00  0.00    -0.533 A  
HETATM   13  C   UNL     1     -12.228  15.438  69.321  1.00  0.00    -0.219 A  
HETATM   14  C   UNL     1     -12.842  15.145  71.621  1.00  0.00    -0.364 A  
HETATM   15  C   UNL     1     -12.403  15.080  67.841  1.00  0.00     0.381 C  
HETATM   16  H   UNL     1     -13.336  13.430  68.167  1.00  0.00     0.000 HD 
HETATM   17  O   UNL     1     -13.503  14.591  72.674  1.00  0.00    -0.437 OA 
HETATM   18  C   UNL     1     -13.068  14.854  70.288  1.00  0.00    -0.112 A  
HETATM   19  O   UNL     1     -12.570  13.678  67.662  1.00  0.00     0.034 OA 
ENDROOT
BRANCH   7  20
HETATM   20  C   UNL     1      -8.833  16.279  68.902  1.00  0.00    -0.253 A  
HETATM   21  C   UNL     1      -6.459  16.329  69.530  1.00  0.00    -0.203 A  
HETATM   22  C   UNL     1      -7.675  16.977  69.282  1.00  0.00    -0.019 A  
HETATM   23  C   UNL     1      -7.535  14.225  68.932  1.00  0.00    -0.123 A  
HETATM   24  C   UNL     1      -8.736  14.903  68.701  1.00  0.00    -0.177 A  
HETATM   25  C   UNL     1      -6.382  14.935  69.343  1.00  0.00    -0.124 A  
BRANCH  23  26
HETATM   26  O   UNL     1      -7.409  12.866  68.745  1.00  0.00    -0.109 OA 
HETATM   27  C   UNL     1      -7.854  12.362  67.488  1.00  0.00    -0.169 C  
ENDBRANCH  23  26
BRANCH  25  28
HETATM   28  O   UNL     1      -5.286  14.146  69.610  1.00  0.00    -0.090 OA 
HETATM   29  C   UNL     1      -5.243  13.464  70.855  1.00  0.00    -0.143 C  
ENDBRANCH  25  28
BRANCH  21  30
HETATM   30  O   UNL     1      -5.358  17.004  69.993  1.00  0.00    -0.172 OA 
HETATM   31  C   UNL     1      -5.560  18.140  70.829  1.00  0.00    -0.094 C  
ENDBRANCH  21  30
ENDBRANCH   7  20
TORSDOF 4
ENDMDL
MODEL       82
REMARK 921   NORMALIZED FREE ENERGY PREDICTED BY IDOCK:   -4.64 KCAL/MOL
REMARK 922        TOTAL FREE ENERGY PREDICTED BY IDOCK:   -6.48 KCAL/MOL
REMARK 923 INTER-LIGAND FREE ENERGY PREDICTED BY IDOCK:   -5.69 KCAL/MOL
REMARK 924 INTRA-LIGAND FREE ENERGY PREDICTED BY IDOCK:   -0.79 KCAL/MOL
REMARK 927      BINDING AFFINITY PREDICTED BY RF-SCORE:    0.00 PKD
ROOT
HETATM    1  C   UNL     1     -10.482   7.614  69.937  1.00  0.00    -0.231 C  
HETATM    2  C   UNL     1     -10.468   6.199  70.448  1.00  0.00    -0.230 C  
HETATM    3  O   UNL     1     -10.244   5.408  69.265  1.00  0.00    -0.208 OA 
HETATM    4  C   UNL     1     -10.607   6.121  68.149  1.00  0.00    -0.264 C  
HETATM    5  C   UNL     1     -11.123   7.460  68.579  1.00  0.00     0.129 C  
HETATM    6  O   UNL     1     -10.606   5.675  67.013  1.00  0.00    -0.249 OA 
HETATM    7  C   UNL     1     -10.835   8.693  67.722  1.00  0.00    -0.075 C  
HETATM    8  C   UNL     1     -11.982  14.326  69.076  1.00  0.00    -0.325 C  
HETATM    9  C   UNL     1     -11.312   9.938  68.484  1.00  0.00    -0.049 A  
HETATM   10  O   UNL     1     -11.890  13.518  67.885  1.00  0.00    -0.339 OA 
HETATM   11  C   UNL     1     -11.497  11.123  67.749  1.00  0.00    -0.349 A  
HETATM   12  C   UNL     1     -11.767  12.282  68.434  1.00  0.00    -0.337 A  
HETATM   13  C   UNL     1     -11.440   9.942  69.918  1.00  0.00    -0.234 A  
HETATM   14  C   UNL     1     -11.904  12.292  69.798  1.00  0.00    -0.318 A  
HETATM   15  C   UNL     1     -11.221   8.669  70.743  1.00  0.00    -0.261 C  
HETATM   16  H   UNL     1     -10.890   9.588  72.400  1.00  0.00     0.000 HD 
HETATM   17  O   UNL     1     -12.135  13.544  70.281  1.00  0.00    -0.335 OA 
HETATM   18  C   UNL     1     -11.779  11.147  70.562  1.00  0.00    -0.392 A  
HETATM   19  O   UNL     1     -10.428   8.928  71.896  1.00  0.00    -0.326 OA 
ENDROOT
BRANCH   7  20
HETATM   20  C   UNL     1      -9.371   8.816  67.298  1.00  0.00    -0.181 A  
HETATM   21  C   UNL     1      -7.635   8.850  65.562  1.00  0.00    -0.087 A  
HETATM   22  C   UNL     1      -8.950   8.606  65.975  1.00  0.00    -0.227 A  
HETATM   23  C   UNL     1      -7.096   9.461  67.859  1.00  0.00    -0.081 A  
HETATM   24  C   UNL     1      -8.420   9.215  68.236  1.00  0.00    -0.125 A  
HETATM   25  C   UNL     1      -6.690   9.272  66.517  1.00  0.00    -0.072 A  
BRANCH  23  26
HETATM   26  O   UNL     1      -6.135   9.857  68.762  1.00  0.00    -0.041 OA 
HETATM   27  C   UNL     1      -6.352  11.115  69.398  1.00  0.00    -0.088 C  
ENDBRANCH  23  26
BRANCH  25  28
HETATM   28  O   UNL     1      -5.383   9.619  66.258  1.00  0.00    -0.042 OA 
HETATM   29  C   UNL     1      -5.126  10.924  65.759  1.00  0.00    -0.129 C  
ENDBRANCH  25  28
BRANCH  21  30
HETATM   30  O   UNL     1      -7.253   8.733  64.249  1.00  0.00    -0.088 OA 
HETATM   31  C   UNL     1      -8.265   8.552  63.262  1.00  0.00    -0.141 C  
ENDBRANCH  21  30
ENDBRANCH   7  20
TORSDOF 4
ENDMDL
MODEL       83
REMARK 921   NORMALIZED FREE ENERGY PREDICTED BY IDOCK:   -4.64 KCAL/MOL
REMARK 922        TOTAL FREE ENERGY PREDICTED BY IDOCK:   -6.48 KCAL/MOL
REMARK 923 INTER-LIGAND FREE ENERGY PREDICTED BY IDOCK:   -6.27 KCAL/MOL
REMARK 924 INTRA-LIGAND FREE ENERGY PREDICTED BY IDOCK:   -0.21 KCAL/MOL
REMARK 927      BINDING AFFINITY PREDICTED BY RF-SCORE:    0.00 PKD
ROOT
HETATM    1  C   UNL     1      -9.001  12.611  68.271  1.00  0.00    -0.176 C  
HETATM    2  C   UNL     1      -9.041  14.069  68.638  1.00  0.00    -0.107 C  
HETATM    3  O   UNL     1     -10.322  14.228  69.279  1.00  0.00    -0.176 OA 
HETATM    4  C   UNL     1     -11.166  13.214  68.897  1.00  0.00    -0.277 C  
HETATM    5  C   UNL     1     -10.443  12.323  67.933  1.00  0.00    -0.227 C  
HETATM    6  O   UNL     1     -12.341  13.136  69.216  1.00  0.00    -0.177 OA 
HETATM    7  C   UNL     1     -10.696  10.815  67.961  1.00  0.00    -0.270 C  
HETATM    8  C   UNL     1      -7.792   6.655  64.938  1.00  0.00    -0.115 C  
HETATM    9  C   UNL     1      -9.700  10.137  67.009  1.00  0.00    -0.224 A  
HETATM   10  O   UNL     1      -9.121   6.854  65.462  1.00  0.00     0.034 OA 
HETATM   11  C   UNL     1      -9.987   8.826  66.589  1.00  0.00    -0.355 A  
HETATM   12  C   UNL     1      -9.035   8.146  65.869  1.00  0.00    -0.151 A  
HETATM   13  C   UNL     1      -8.449  10.757  66.660  1.00  0.00    -0.142 A  
HETATM   14  C   UNL     1      -7.846   8.734  65.521  1.00  0.00    -0.098 A  
HETATM   15  C   UNL     1      -8.103  12.176  67.124  1.00  0.00    -0.175 C  
HETATM   16  H   UNL     1      -6.204  11.981  66.889  1.00  0.00     0.000 HD 
HETATM   17  O   UNL     1      -7.031   7.880  64.842  1.00  0.00    -0.057 OA 
HETATM   18  C   UNL     1      -7.535  10.035  65.868  1.00  0.00    -0.115 A  
HETATM   19  O   UNL     1      -6.765  12.253  67.605  1.00  0.00    -0.097 OA 
ENDROOT
BRANCH   7  20
HETATM   20  C   UNL     1     -10.640  10.210  69.364  1.00  0.00    -0.261 A  
HETATM   21  C   UNL     1     -11.697   9.671  71.514  1.00  0.00    -0.400 A  
HETATM   22  C   UNL     1     -11.694  10.337  70.282  1.00  0.00    -0.388 A  
HETATM   23  C   UNL     1      -9.500   8.773  70.958  1.00  0.00    -0.228 A  
HETATM   24  C   UNL     1      -9.533   9.446  69.733  1.00  0.00    -0.216 A  
HETATM   25  C   UNL     1     -10.581   8.886  71.864  1.00  0.00    -0.349 A  
BRANCH  23  26
HETATM   26  O   UNL     1      -8.423   8.010  71.350  1.00  0.00    -0.108 OA 
HETATM   27  C   UNL     1      -7.343   7.924  70.423  1.00  0.00    -0.068 C  
ENDBRANCH  23  26
BRANCH  25  28
HETATM   28  O   UNL     1     -10.462   8.118  72.999  1.00  0.00    -0.325 OA 
HETATM   29  C   UNL     1     -10.884   6.762  72.934  1.00  0.00    -0.272 C  
ENDBRANCH  25  28
BRANCH  21  30
HETATM   30  O   UNL     1     -12.772   9.724  72.364  1.00  0.00    -0.294 OA 
HETATM   31  C   UNL     1     -13.821   8.775  72.193  1.00  0.00    -0.457 C  
ENDBRANCH  21  30
ENDBRANCH   7  20
TORSDOF 4
ENDMDL
MODEL       84
REMARK 921   NORMALIZED FREE ENERGY PREDICTED BY IDOCK:   -4.60 KCAL/MOL
REMARK 922        TOTAL FREE ENERGY PREDICTED BY IDOCK:   -6.43 KCAL/MOL
REMARK 923 INTER-LIGAND FREE ENERGY PREDICTED BY IDOCK:   -5.78 KCAL/MOL
REMARK 924 INTRA-LIGAND FREE ENERGY PREDICTED BY IDOCK:   -0.66 KCAL/MOL
REMARK 927      BINDING AFFINITY PREDICTED BY RF-SCORE:    0.00 PKD
ROOT
HETATM    1  C   UNL     1      -6.592   8.934  70.709  1.00  0.00    -0.056 C  
HETATM    2  C   UNL     1      -5.624   9.723  71.547  1.00  0.00    -0.055 C  
HETATM    3  O   UNL     1      -5.871  11.090  71.163  1.00  0.00    -0.348 OA 
HETATM    4  C   UNL     1      -6.470  11.128  69.928  1.00  0.00    -0.142 C  
HETATM    5  C   UNL     1      -6.628   9.726  69.425  1.00  0.00    -0.049 C  
HETATM    6  O   UNL     1      -6.720  12.152  69.312  1.00  0.00    -0.105 OA 
HETATM    7  C   UNL     1      -7.867   9.348  68.612  1.00  0.00    -0.088 C  
HETATM    8  C   UNL     1      -9.470   3.942  66.856  1.00  0.00    -0.202 C  
HETATM    9  C   UNL     1      -7.860   7.828  68.390  1.00  0.00    -0.121 A  
HETATM   10  O   UNL     1      -9.616   5.298  66.387  1.00  0.00    -0.143 OA 
HETATM   11  C   UNL     1      -8.677   7.313  67.369  1.00  0.00    -0.121 A  
HETATM   12  C   UNL     1      -8.806   5.950  67.260  1.00  0.00    -0.106 A  
HETATM   13  C   UNL     1      -7.152   6.941  69.276  1.00  0.00    -0.084 A  
HETATM   14  C   UNL     1      -8.125   5.097  68.090  1.00  0.00    -0.094 A  
HETATM   15  C   UNL     1      -6.274   7.477  70.412  1.00  0.00    -0.034 C  
HETATM   16  H   UNL     1      -6.293   5.849  71.435  1.00  0.00     0.000 HD 
HETATM   17  O   UNL     1      -8.421   3.792  67.839  1.00  0.00    -0.091 OA 
HETATM   18  C   UNL     1      -7.274   5.552  69.079  1.00  0.00    -0.069 A  
HETATM   19  O   UNL     1      -6.492   6.759  71.621  1.00  0.00    -0.044 OA 
ENDROOT
BRANCH   7  20
HETATM   20  C   UNL     1      -9.179   9.822  69.238  1.00  0.00    -0.197 A  
HETATM   21  C   UNL     1     -11.316  11.023  69.094  1.00  0.00    -0.280 A  
HETATM   22  C   UNL     1     -10.056  10.697  68.578  1.00  0.00    -0.185 A  
HETATM   23  C   UNL     1     -10.808   9.634  71.032  1.00  0.00    -0.342 A  
HETATM   24  C   UNL     1      -9.559   9.323  70.483  1.00  0.00    -0.317 A  
HETATM   25  C   UNL     1     -11.695  10.495  70.343  1.00  0.00    -0.344 A  
BRANCH  23  26
HETATM   26  O   UNL     1     -11.213   9.156  72.258  1.00  0.00    -0.249 OA 
HETATM   27  C   UNL     1     -11.178   7.740  72.422  1.00  0.00    -0.337 C  
ENDBRANCH  23  26
BRANCH  25  28
HETATM   28  O   UNL     1     -12.919  10.662  70.950  1.00  0.00    -0.370 OA 
HETATM   29  C   UNL     1     -13.098  11.796  71.788  1.00  0.00    -0.375 C  
ENDBRANCH  25  28
BRANCH  21  30
HETATM   30  O   UNL     1     -12.206  11.801  68.399  1.00  0.00    -0.467 OA 
HETATM   31  C   UNL     1     -11.732  12.529  67.268  1.00  0.00    -0.362 C  
ENDBRANCH  21  30
ENDBRANCH   7  20
TORSDOF 4
ENDMDL
MODEL       85
REMARK 921   NORMALIZED FREE ENERGY PREDICTED BY IDOCK:   -4.59 KCAL/MOL
REMARK 922        TOTAL FREE ENERGY PREDICTED BY IDOCK:   -6.42 KCAL/MOL
REMARK 923 INTER-LIGAND FREE ENERGY PREDICTED BY IDOCK:   -5.85 KCAL/MOL
REMARK 924 INTRA-LIGAND FREE ENERGY PREDICTED BY IDOCK:   -0.57 KCAL/MOL
REMARK 927      BINDING AFFINITY PREDICTED BY RF-SCORE:    0.00 PKD
ROOT
HETATM    1  C   UNL     1      -8.373  16.584  67.009  1.00  0.00    -0.220 C  
HETATM    2  C   UNL     1      -7.393  17.446  66.260  1.00  0.00    -0.312 C  
HETATM    3  O   UNL     1      -6.184  16.663  66.248  1.00  0.00    -0.189 OA 
HETATM    4  C   UNL     1      -6.213  15.741  67.266  1.00  0.00    -0.033 C  
HETATM    5  C   UNL     1      -7.492  15.906  68.029  1.00  0.00    -0.135 C  
HETATM    6  O   UNL     1      -5.289  14.998  67.553  1.00  0.00    -0.328 OA 
HETATM    7  C   UNL     1      -8.200  14.675  68.596  1.00  0.00    -0.159 C  
HETATM    8  C   UNL     1     -13.529  14.474  71.132  1.00  0.00    -0.336 C  
HETATM    9  C   UNL     1      -9.561  15.110  69.158  1.00  0.00    -0.232 A  
HETATM   10  O   UNL     1     -12.280  13.759  71.227  1.00  0.00    -0.340 OA 
HETATM   11  C   UNL     1     -10.207  14.239  70.052  1.00  0.00     0.649 A  
HETATM   12  C   UNL     1     -11.491  14.535  70.440  1.00  0.00    -0.203 A  
HETATM   13  C   UNL     1     -10.223  16.301  68.693  1.00  0.00    -0.254 A  
HETATM   14  C   UNL     1     -12.124  15.673  70.012  1.00  0.00    -0.359 A  
HETATM   15  C   UNL     1      -9.548  17.255  67.701  1.00  0.00    -0.256 C  
HETATM   16  H   UNL     1     -11.182  18.077  67.106  1.00  0.00     0.000 HD 
HETATM   17  O   UNL     1     -13.399  15.759  70.483  1.00  0.00    -0.418 OA 
HETATM   18  C   UNL     1     -11.516  16.586  69.172  1.00  0.00    -0.084 A  
HETATM   19  O   UNL     1     -10.448  17.658  66.674  1.00  0.00    -0.335 OA 
ENDROOT
BRANCH   7  20
HETATM   20  C   UNL     1      -8.343  13.533  67.588  1.00  0.00    -0.179 A  
HETATM   21  C   UNL     1      -7.645  11.353  66.701  1.00  0.00    -0.119 A  
HETATM   22  C   UNL     1      -7.438  12.462  67.529  1.00  0.00    -0.150 A  
HETATM   23  C   UNL     1      -9.679  12.422  65.889  1.00  0.00    -0.228 A  
HETATM   24  C   UNL     1      -9.446  13.511  66.736  1.00  0.00    -0.272 A  
HETATM   25  C   UNL     1      -8.774  11.335  65.860  1.00  0.00    -0.145 A  
BRANCH  23  26
HETATM   26  O   UNL     1     -10.760  12.370  65.037  1.00  0.00    -0.277 OA 
HETATM   27  C   UNL     1     -11.919  13.091  65.449  1.00  0.00    -0.414 C  
ENDBRANCH  23  26
BRANCH  25  28
HETATM   28  O   UNL     1      -9.154  10.294  65.043  1.00  0.00    -0.176 OA 
HETATM   29  C   UNL     1      -9.529   9.069  65.656  1.00  0.00    -0.203 C  
ENDBRANCH  25  28
BRANCH  21  30
HETATM   30  O   UNL     1      -6.806  10.267  66.718  1.00  0.00    -0.082 OA 
HETATM   31  C   UNL     1      -5.416  10.480  66.491  1.00  0.00    -0.061 C  
ENDBRANCH  21  30
ENDBRANCH   7  20
TORSDOF 4
ENDMDL
MODEL       86
REMARK 921   NORMALIZED FREE ENERGY PREDICTED BY IDOCK:   -4.58 KCAL/MOL
REMARK 922        TOTAL FREE ENERGY PREDICTED BY IDOCK:   -6.41 KCAL/MOL
REMARK 923 INTER-LIGAND FREE ENERGY PREDICTED BY IDOCK:   -5.66 KCAL/MOL
REMARK 924 INTRA-LIGAND FREE ENERGY PREDICTED BY IDOCK:   -0.75 KCAL/MOL
REMARK 927      BINDING AFFINITY PREDICTED BY RF-SCORE:    0.00 PKD
ROOT
HETATM    1  C   UNL     1      -9.517   7.427  70.690  1.00  0.00    -0.164 C  
HETATM    2  C   UNL     1      -9.494   7.637  72.179  1.00  0.00    -0.155 C  
HETATM    3  O   UNL     1      -8.702   8.829  72.346  1.00  0.00    -0.392 OA 
HETATM    4  C   UNL     1      -7.908   9.022  71.242  1.00  0.00    -0.085 C  
HETATM    5  C   UNL     1      -8.147   7.903  70.275  1.00  0.00    -0.115 C  
HETATM    6  O   UNL     1      -7.071   9.904  71.138  1.00  0.00    -0.327 OA 
HETATM    7  C   UNL     1      -8.124   8.184  68.772  1.00  0.00    -0.120 C  
HETATM    8  C   UNL     1      -9.585   4.464  64.424  1.00  0.00    -0.091 C  
HETATM    9  C   UNL     1      -8.578   6.917  68.032  1.00  0.00    -0.123 A  
HETATM   10  O   UNL     1      -8.687   5.577  64.612  1.00  0.00    -0.117 OA 
HETATM   11  C   UNL     1      -8.277   6.817  66.662  1.00  0.00    -0.115 A  
HETATM   12  C   UNL     1      -8.812   5.771  65.950  1.00  0.00    -0.150 A  
HETATM   13  C   UNL     1      -9.401   5.924  68.673  1.00  0.00    -0.126 A  
HETATM   14  C   UNL     1      -9.584   4.814  66.555  1.00  0.00    -0.175 A  
HETATM   15  C   UNL     1      -9.762   6.024  70.159  1.00  0.00    -0.167 C  
HETATM   16  H   UNL     1     -11.293   4.864  70.047  1.00  0.00     0.000 HD 
HETATM   17  O   UNL     1     -10.043   3.889  65.668  1.00  0.00    -0.149 OA 
HETATM   18  C   UNL     1      -9.871   4.841  67.907  1.00  0.00    -0.191 A  
HETATM   19  O   UNL     1     -11.140   5.741  70.379  1.00  0.00    -0.298 OA 
ENDROOT
BRANCH   7  20
HETATM   20  C   UNL     1      -8.950   9.405  68.364  1.00  0.00    -0.128 A  
HETATM   21  C   UNL     1     -11.063  10.656  68.337  1.00  0.00    -0.272 A  
HETATM   22  C   UNL     1     -10.333   9.487  68.586  1.00  0.00    -0.229 A  
HETATM   23  C   UNL     1      -9.004  11.690  67.540  1.00  0.00    -0.165 A  
HETATM   24  C   UNL     1      -8.305  10.510  67.810  1.00  0.00    -0.111 A  
HETATM   25  C   UNL     1     -10.393  11.771  67.795  1.00  0.00    -0.194 A  
BRANCH  23  26
HETATM   26  O   UNL     1      -8.395  12.799  66.994  1.00  0.00    -0.178 OA 
HETATM   27  C   UNL     1      -7.314  13.353  67.741  1.00  0.00    -0.157 C  
ENDBRANCH  23  26
BRANCH  25  28
HETATM   28  O   UNL     1     -10.950  13.007  67.560  1.00  0.00    -0.248 OA 
HETATM   29  C   UNL     1     -11.713  13.180  66.374  1.00  0.00    -0.379 C  
ENDBRANCH  25  28
BRANCH  21  30
HETATM   30  O   UNL     1     -12.395  10.760  68.645  1.00  0.00    -0.430 OA 
HETATM   31  C   UNL     1     -12.763  10.944  70.010  1.00  0.00    -0.109 C  
ENDBRANCH  21  30
ENDBRANCH   7  20
TORSDOF 4
ENDMDL
MODEL       87
REMARK 921   NORMALIZED FREE ENERGY PREDICTED BY IDOCK:   -4.57 KCAL/MOL
REMARK 922        TOTAL FREE ENERGY PREDICTED BY IDOCK:   -6.39 KCAL/MOL
REMARK 923 INTER-LIGAND FREE ENERGY PREDICTED BY IDOCK:   -5.84 KCAL/MOL
REMARK 924 INTRA-LIGAND FREE ENERGY PREDICTED BY IDOCK:   -0.54 KCAL/MOL
REMARK 927      BINDING AFFINITY PREDICTED BY RF-SCORE:    0.00 PKD
ROOT
HETATM    1  C   UNL     1     -11.837   9.386  70.839  1.00  0.00    -0.365 C  
HETATM    2  C   UNL     1     -13.012  10.290  70.588  1.00  0.00    -0.266 C  
HETATM    3  O   UNL     1     -12.608  11.071  69.446  1.00  0.00    -0.331 OA 
HETATM    4  C   UNL     1     -11.238  11.067  69.337  1.00  0.00    -0.268 C  
HETATM    5  C   UNL     1     -10.667  10.263  70.465  1.00  0.00    -0.212 C  
HETATM    6  O   UNL     1     -10.609  11.712  68.515  1.00  0.00    -0.200 OA 
HETATM    7  C   UNL     1      -9.424   9.405  70.229  1.00  0.00    -0.294 C  
HETATM    8  C   UNL     1      -7.003   5.528  73.968  1.00  0.00    -0.082 C  
HETATM    9  C   UNL     1      -9.172   8.556  71.484  1.00  0.00    -0.288 A  
HETATM   10  O   UNL     1      -6.559   6.403  72.912  1.00  0.00    -0.063 OA 
HETATM   11  C   UNL     1      -7.896   7.987  71.643  1.00  0.00    -0.116 A  
HETATM   12  C   UNL     1      -7.700   7.098  72.672  1.00  0.00    -0.088 A  
HETATM   13  C   UNL     1     -10.233   8.235  72.403  1.00  0.00    -0.397 A  
HETATM   14  C   UNL     1      -8.701   6.798  73.559  1.00  0.00    -0.127 A  
HETATM   15  C   UNL     1     -11.639   8.824  72.238  1.00  0.00    -0.321 C  
HETATM   16  H   UNL     1     -12.519   7.482  73.297  1.00  0.00     0.000 HD 
HETATM   17  O   UNL     1      -8.311   5.871  74.477  1.00  0.00    -0.111 OA 
HETATM   18  C   UNL     1      -9.959   7.366  73.475  1.00  0.00    -0.377 A  
HETATM   19  O   UNL     1     -12.643   7.833  72.423  1.00  0.00    -0.199 OA 
ENDROOT
BRANCH   7  20
HETATM   20  C   UNL     1      -9.505   8.542  68.969  1.00  0.00    -0.150 A  
HETATM   21  C   UNL     1      -9.059   8.182  66.581  1.00  0.00    -0.165 A  
HETATM   22  C   UNL     1      -9.112   9.014  67.707  1.00  0.00    -0.143 A  
HETATM   23  C   UNL     1      -9.887   6.359  67.972  1.00  0.00    -0.123 A  
HETATM   24  C   UNL     1      -9.920   7.216  69.077  1.00  0.00    -0.174 A  
HETATM   25  C   UNL     1      -9.463   6.839  66.710  1.00  0.00    -0.162 A  
BRANCH  23  26
HETATM   26  O   UNL     1     -10.289   5.044  68.047  1.00  0.00    -0.119 OA 
HETATM   27  C   UNL     1      -9.491   4.189  68.862  1.00  0.00    -0.169 C  
ENDBRANCH  23  26
BRANCH  25  28
HETATM   28  O   UNL     1      -9.404   5.883  65.722  1.00  0.00    -0.113 OA 
HETATM   29  C   UNL     1      -8.136   5.321  65.413  1.00  0.00    -0.121 C  
ENDBRANCH  25  28
BRANCH  21  30
HETATM   30  O   UNL     1      -8.585   8.626  65.374  1.00  0.00    -0.165 OA 
HETATM   31  C   UNL     1      -9.375   9.550  64.631  1.00  0.00    -0.134 C  
ENDBRANCH  21  30
ENDBRANCH   7  20
TORSDOF 4
ENDMDL
MODEL       88
REMARK 921   NORMALIZED FREE ENERGY PREDICTED BY IDOCK:   -4.57 KCAL/MOL
REMARK 922        TOTAL FREE ENERGY PREDICTED BY IDOCK:   -6.39 KCAL/MOL
REMARK 923 INTER-LIGAND FREE ENERGY PREDICTED BY IDOCK:   -5.78 KCAL/MOL
REMARK 924 INTRA-LIGAND FREE ENERGY PREDICTED BY IDOCK:   -0.61 KCAL/MOL
REMARK 927      BINDING AFFINITY PREDICTED BY RF-SCORE:    0.00 PKD
ROOT
HETATM    1  C   UNL     1     -10.828  11.322  68.109  1.00  0.00    -0.263 C  
HETATM    2  C   UNL     1     -11.197  12.469  67.209  1.00  0.00    -0.295 C  
HETATM    3  O   UNL     1      -9.982  12.742  66.484  1.00  0.00    -0.241 OA 
HETATM    4  C   UNL     1      -8.903  12.251  67.177  1.00  0.00    -0.194 C  
HETATM    5  C   UNL     1      -9.390  11.627  68.449  1.00  0.00    -0.191 C  
HETATM    6  O   UNL     1      -7.739  12.410  66.846  1.00  0.00    -0.099 OA 
HETATM    7  C   UNL     1      -8.702  10.372  68.988  1.00  0.00    -0.170 C  
HETATM    8  C   UNL     1     -10.434   7.027  73.536  1.00  0.00    -0.375 C  
HETATM    9  C   UNL     1      -9.511   9.847  70.182  1.00  0.00    -0.214 A  
HETATM   10  O   UNL     1      -9.193   7.395  72.901  1.00  0.00    -0.135 OA 
HETATM   11  C   UNL     1      -8.877   8.946  71.056  1.00  0.00    -0.285 A  
HETATM   12  C   UNL     1      -9.631   8.344  72.034  1.00  0.00    -0.274 A  
HETATM   13  C   UNL     1     -10.910  10.152  70.337  1.00  0.00    -0.365 A  
HETATM   14  C   UNL     1     -10.960   8.639  72.198  1.00  0.00    -0.364 A  
HETATM   15  C   UNL     1     -11.629  11.113  69.384  1.00  0.00    -0.318 C  
HETATM   16  H   UNL     1     -13.397  10.469  69.785  1.00  0.00     0.000 HD 
HETATM   17  O   UNL     1     -11.528   7.910  73.197  1.00  0.00    -0.323 OA 
HETATM   18  C   UNL     1     -11.618   9.553  71.396  1.00  0.00    -0.466 A  
HETATM   19  O   UNL     1     -12.896  10.600  68.988  1.00  0.00     0.033 OA 
ENDROOT
BRANCH   7  20
HETATM   20  C   UNL     1      -8.487   9.289  67.930  1.00  0.00    -0.117 A  
HETATM   21  C   UNL     1      -9.316   7.414  66.578  1.00  0.00    -0.173 A  
HETATM   22  C   UNL     1      -9.459   8.319  67.636  1.00  0.00    -0.176 A  
HETATM   23  C   UNL     1      -7.135   8.400  66.117  1.00  0.00    -0.076 A  
HETATM   24  C   UNL     1      -7.314   9.295  67.176  1.00  0.00    -0.091 A  
HETATM   25  C   UNL     1      -8.134   7.445  65.813  1.00  0.00    -0.129 A  
BRANCH  23  26
HETATM   26  O   UNL     1      -5.989   8.383  65.353  1.00  0.00    -0.044 OA 
HETATM   27  C   UNL     1      -5.396   9.650  65.082  1.00  0.00    -0.046 C  
ENDBRANCH  23  26
BRANCH  25  28
HETATM   28  O   UNL     1      -7.873   6.674  64.703  1.00  0.00    -0.106 OA 
HETATM   29  C   UNL     1      -7.501   5.318  64.906  1.00  0.00    -0.069 C  
ENDBRANCH  25  28
BRANCH  21  30
HETATM   30  O   UNL     1     -10.310   6.532  66.238  1.00  0.00    -0.005 OA 
HETATM   31  C   UNL     1     -10.559   5.424  67.098  1.00  0.00    -0.201 C  
ENDBRANCH  21  30
ENDBRANCH   7  20
TORSDOF 4
ENDMDL
MODEL       89
REMARK 921   NORMALIZED FREE ENERGY PREDICTED BY IDOCK:   -4.56 KCAL/MOL
REMARK 922        TOTAL FREE ENERGY PREDICTED BY IDOCK:   -6.38 KCAL/MOL
REMARK 923 INTER-LIGAND FREE ENERGY PREDICTED BY IDOCK:   -5.64 KCAL/MOL
REMARK 924 INTRA-LIGAND FREE ENERGY PREDICTED BY IDOCK:   -0.73 KCAL/MOL
REMARK 927      BINDING AFFINITY PREDICTED BY RF-SCORE:    0.00 PKD
ROOT
HETATM    1  C   UNL     1      -9.057   6.177  67.738  1.00  0.00    -0.117 C  
HETATM    2  C   UNL     1      -8.516   4.908  67.140  1.00  0.00    -0.105 C  
HETATM    3  O   UNL     1      -7.436   4.545  68.022  1.00  0.00    -0.068 OA 
HETATM    4  C   UNL     1      -7.007   5.650  68.716  1.00  0.00    -0.064 C  
HETATM    5  C   UNL     1      -7.813   6.836  68.281  1.00  0.00    -0.110 C  
HETATM    6  O   UNL     1      -6.050   5.662  69.473  1.00  0.00    -0.022 OA 
HETATM    7  C   UNL     1      -8.192   7.909  69.301  1.00  0.00    -0.128 C  
HETATM    8  C   UNL     1     -11.836  12.484  68.482  1.00  0.00    -0.295 C  
HETATM    9  C   UNL     1      -9.161   8.896  68.634  1.00  0.00    -0.137 A  
HETATM   10  O   UNL     1     -10.673  12.182  69.280  1.00  0.00    -0.124 OA 
HETATM   11  C   UNL     1      -9.340  10.150  69.245  1.00  0.00    -0.227 A  
HETATM   12  C   UNL     1     -10.319  10.981  68.755  1.00  0.00    -0.199 A  
HETATM   13  C   UNL     1      -9.964   8.514  67.502  1.00  0.00    -0.258 A  
HETATM   14  C   UNL     1     -11.078  10.631  67.669  1.00  0.00    -0.319 A  
HETATM   15  C   UNL     1      -9.804   7.144  66.833  1.00  0.00    -0.208 C  
HETATM   16  H   UNL     1     -11.534   7.154  65.992  1.00  0.00     0.000 HD 
HETATM   17  O   UNL     1     -12.011  11.577  67.370  1.00  0.00    -0.623 OA 
HETATM   18  C   UNL     1     -10.909   9.431  67.004  1.00  0.00    -0.096 A  
HETATM   19  O   UNL     1     -11.067   6.550  66.557  1.00  0.00    -0.169 OA 
ENDROOT
BRANCH   7  20
HETATM   20  C   UNL     1      -8.766   7.344  70.601  1.00  0.00    -0.142 A  
HETATM   21  C   UNL     1      -8.584   6.880  73.006  1.00  0.00    -0.118 A  
HETATM   22  C   UNL     1      -8.017   7.271  71.787  1.00  0.00    -0.095 A  
HETATM   23  C   UNL     1     -10.696   6.539  71.838  1.00  0.00    -0.219 A  
HETATM   24  C   UNL     1     -10.100   6.943  70.639  1.00  0.00    -0.208 A  
HETATM   25  C   UNL     1      -9.939   6.497  73.033  1.00  0.00    -0.172 A  
BRANCH  23  26
HETATM   26  O   UNL     1     -12.012   6.139  71.908  1.00  0.00    -0.312 OA 
HETATM   27  C   UNL     1     -12.982   7.093  71.482  1.00  0.00    -0.383 C  
ENDBRANCH  23  26
BRANCH  25  28
HETATM   28  O   UNL     1     -10.657   6.157  74.156  1.00  0.00    -0.260 OA 
HETATM   29  C   UNL     1     -10.650   4.796  74.565  1.00  0.00    -0.173 C  
ENDBRANCH  25  28
BRANCH  21  30
HETATM   30  O   UNL     1      -7.871   6.903  74.177  1.00  0.00    -0.105 OA 
HETATM   31  C   UNL     1      -7.192   8.103  74.535  1.00  0.00    -0.185 C  
ENDBRANCH  21  30
ENDBRANCH   7  20
TORSDOF 4
ENDMDL
MODEL       90
REMARK 921   NORMALIZED FREE ENERGY PREDICTED BY IDOCK:   -4.56 KCAL/MOL
REMARK 922        TOTAL FREE ENERGY PREDICTED BY IDOCK:   -6.37 KCAL/MOL
REMARK 923 INTER-LIGAND FREE ENERGY PREDICTED BY IDOCK:   -6.67 KCAL/MOL
REMARK 924 INTRA-LIGAND FREE ENERGY PREDICTED BY IDOCK:    0.30 KCAL/MOL
REMARK 927      BINDING AFFINITY PREDICTED BY RF-SCORE:    0.00 PKD
ROOT
HETATM    1  C   UNL     1     -12.300   9.085  71.317  1.00  0.00    -0.361 C  
HETATM    2  C   UNL     1     -13.223   8.077  71.945  1.00  0.00    -0.301 C  
HETATM    3  O   UNL     1     -12.566   6.817  71.712  1.00  0.00    -0.357 OA 
HETATM    4  C   UNL     1     -11.691   6.932  70.659  1.00  0.00    -0.367 C  
HETATM    5  C   UNL     1     -11.758   8.332  70.128  1.00  0.00     0.207 C  
HETATM    6  O   UNL     1     -11.057   6.005  70.182  1.00  0.00    -0.338 OA 
HETATM    7  C   UNL     1     -10.487   9.008  69.614  1.00  0.00    -0.227 C  
HETATM    8  C   UNL     1      -9.859  14.648  67.980  1.00  0.00    -0.216 C  
HETATM    9  C   UNL     1     -10.807  10.479  69.309  1.00  0.00    -0.284 A  
HETATM   10  O   UNL     1      -9.278  13.373  67.638  1.00  0.00    -0.194 OA 
HETATM   11  C   UNL     1      -9.914  11.184  68.484  1.00  0.00    -0.204 A  
HETATM   12  C   UNL     1     -10.095  12.537  68.330  1.00  0.00    -0.228 A  
HETATM   13  C   UNL     1     -11.904  11.160  69.946  1.00  0.00    -0.439 A  
HETATM   14  C   UNL     1     -11.145  13.191  68.922  1.00  0.00    -0.266 A  
HETATM   15  C   UNL     1     -12.878  10.418  70.868  1.00  0.00    -0.392 C  
HETATM   16  H   UNL     1     -13.505  11.997  71.770  1.00  0.00     0.000 HD 
HETATM   17  O   UNL     1     -11.122  14.529  68.673  1.00  0.00    -0.237 OA 
HETATM   18  C   UNL     1     -12.078  12.535  69.703  1.00  0.00    -0.272 A  
HETATM   19  O   UNL     1     -13.144  11.164  72.051  1.00  0.00    -0.492 OA 
ENDROOT
BRANCH   7  20
HETATM   20  C   UNL     1      -9.295   8.873  70.562  1.00  0.00    -0.240 A  
HETATM   21  C   UNL     1      -6.909   9.163  71.066  1.00  0.00    -0.095 A  
HETATM   22  C   UNL     1      -7.979   9.157  70.164  1.00  0.00    -0.124 A  
HETATM   23  C   UNL     1      -8.472   8.508  72.819  1.00  0.00    -0.087 A  
HETATM   24  C   UNL     1      -9.519   8.520  71.892  1.00  0.00    -0.350 A  
HETATM   25  C   UNL     1      -7.154   8.824  72.411  1.00  0.00     0.084 A  
BRANCH  23  26
HETATM   26  O   UNL     1      -8.661   8.165  74.139  1.00  0.00    -0.234 OA 
HETATM   27  C   UNL     1      -9.377   6.955  74.377  1.00  0.00    -0.219 C  
ENDBRANCH  23  26
BRANCH  25  28
HETATM   28  O   UNL     1      -6.229   8.851  73.430  1.00  0.00    -0.253 OA 
HETATM   29  C   UNL     1      -5.417   7.702  73.623  1.00  0.00    -0.045 C  
ENDBRANCH  25  28
BRANCH  21  30
HETATM   30  O   UNL     1      -5.644   9.534  70.689  1.00  0.00    -0.039 OA 
HETATM   31  C   UNL     1      -5.340  10.924  70.606  1.00  0.00    -0.102 C  
ENDBRANCH  21  30
ENDBRANCH   7  20
TORSDOF 4
ENDMDL
MODEL       91
REMARK 921   NORMALIZED FREE ENERGY PREDICTED BY IDOCK:   -4.55 KCAL/MOL
REMARK 922        TOTAL FREE ENERGY PREDICTED BY IDOCK:   -6.36 KCAL/MOL
REMARK 923 INTER-LIGAND FREE ENERGY PREDICTED BY IDOCK:   -6.48 KCAL/MOL
REMARK 924 INTRA-LIGAND FREE ENERGY PREDICTED BY IDOCK:    0.12 KCAL/MOL
REMARK 927      BINDING AFFINITY PREDICTED BY RF-SCORE:    0.00 PKD
ROOT
HETATM    1  C   UNL     1     -10.751   7.216  68.700  1.00  0.00    -0.198 C  
HETATM    2  C   UNL     1     -11.571   6.575  69.786  1.00  0.00    -0.327 C  
HETATM    3  O   UNL     1     -11.572   7.556  70.841  1.00  0.00    -0.282 OA 
HETATM    4  C   UNL     1     -10.505   8.407  70.690  1.00  0.00    -0.200 C  
HETATM    5  C   UNL     1      -9.719   7.986  69.487  1.00  0.00    -0.170 C  
HETATM    6  O   UNL     1     -10.204   9.285  71.483  1.00  0.00    -0.330 OA 
HETATM    7  C   UNL     1      -9.068   9.047  68.598  1.00  0.00    -0.137 C  
HETATM    8  C   UNL     1      -6.384   8.197  63.407  1.00  0.00    -0.072 C  
HETATM    9  C   UNL     1      -8.494   8.355  67.354  1.00  0.00    -0.124 A  
HETATM   10  O   UNL     1      -6.284   9.112  64.517  1.00  0.00    -0.069 OA 
HETATM   11  C   UNL     1      -7.537   9.057  66.599  1.00  0.00    -0.089 A  
HETATM   12  C   UNL     1      -7.132   8.524  65.399  1.00  0.00    -0.082 A  
HETATM   13  C   UNL     1      -9.006   7.092  66.890  1.00  0.00    -0.145 A  
HETATM   14  C   UNL     1      -7.604   7.315  64.957  1.00  0.00    -0.107 A  
HETATM   15  C   UNL     1     -10.065   6.319  67.683  1.00  0.00    -0.150 C  
HETATM   16  H   UNL     1     -10.659   5.256  66.194  1.00  0.00     0.000 HD 
HETATM   17  O   UNL     1      -7.105   6.987  63.733  1.00  0.00    -0.054 OA 
HETATM   18  C   UNL     1      -8.508   6.564  65.683  1.00  0.00    -0.146 A  
HETATM   19  O   UNL     1     -11.088   5.816  66.830  1.00  0.00    -0.222 OA 
ENDROOT
BRANCH   7  20
HETATM   20  C   UNL     1     -10.008  10.194  68.225  1.00  0.00    -0.168 A  
HETATM   21  C   UNL     1     -11.304  12.190  68.829  1.00  0.00    -0.288 A  
HETATM   22  C   UNL     1     -10.555  11.062  69.183  1.00  0.00    -0.253 A  
HETATM   23  C   UNL     1     -11.040  11.550  66.492  1.00  0.00    -0.282 A  
HETATM   24  C   UNL     1     -10.288  10.437  66.881  1.00  0.00    -0.297 A  
HETATM   25  C   UNL     1     -11.561  12.434  67.466  1.00  0.00    -0.365 A  
BRANCH  23  26
HETATM   26  O   UNL     1     -11.331  11.817  65.173  1.00  0.00    -0.293 OA 
HETATM   27  C   UNL     1     -10.605  11.063  64.204  1.00  0.00    -0.342 C  
ENDBRANCH  23  26
BRANCH  25  28
HETATM   28  O   UNL     1     -12.218  13.530  66.954  1.00  0.00    -0.386 OA 
HETATM   29  C   UNL     1     -11.483  14.736  66.801  1.00  0.00    -0.338 C  
ENDBRANCH  25  28
BRANCH  21  30
HETATM   30  O   UNL     1     -11.754  13.086  69.765  1.00  0.00    -0.300 OA 
HETATM   31  C   UNL     1     -12.424  12.584  70.918  1.00  0.00    -0.269 C  
ENDBRANCH  21  30
ENDBRANCH   7  20
TORSDOF 4
ENDMDL
MODEL       92
REMARK 921   NORMALIZED FREE ENERGY PREDICTED BY IDOCK:   -4.54 KCAL/MOL
REMARK 922        TOTAL FREE ENERGY PREDICTED BY IDOCK:   -6.35 KCAL/MOL
REMARK 923 INTER-LIGAND FREE ENERGY PREDICTED BY IDOCK:   -7.31 KCAL/MOL
REMARK 924 INTRA-LIGAND FREE ENERGY PREDICTED BY IDOCK:    0.96 KCAL/MOL
REMARK 927      BINDING AFFINITY PREDICTED BY RF-SCORE:    0.00 PKD
ROOT
HETATM    1  C   UNL     1      -9.034  10.905  65.647  1.00  0.00    -0.209 C  
HETATM    2  C   UNL     1      -8.535  10.957  64.229  1.00  0.00     0.108 C  
HETATM    3  O   UNL     1      -9.609  11.591  63.509  1.00  0.00    -0.287 OA 
HETATM    4  C   UNL     1     -10.784  11.459  64.208  1.00  0.00    -0.356 C  
HETATM    5  C   UNL     1     -10.515  10.682  65.461  1.00  0.00    -0.246 C  
HETATM    6  O   UNL     1     -11.875  11.824  63.801  1.00  0.00    -0.422 OA 
HETATM    7  C   UNL     1     -11.263  11.036  66.746  1.00  0.00    -0.163 C  
HETATM    8  C   UNL     1     -10.291   8.870  72.153  1.00  0.00    -0.243 C  
HETATM    9  C   UNL     1     -10.665  10.218  67.899  1.00  0.00    -0.310 A  
HETATM   10  O   UNL     1     -11.408   9.382  71.400  1.00  0.00    -0.327 OA 
HETATM   11  C   UNL     1     -11.426  10.094  69.076  1.00  0.00    -0.138 A  
HETATM   12  C   UNL     1     -10.843   9.504  70.171  1.00  0.00    -0.258 A  
HETATM   13  C   UNL     1      -9.321   9.706  67.842  1.00  0.00    -0.141 A  
HETATM   14  C   UNL     1      -9.569   9.001  70.121  1.00  0.00    -0.193 A  
HETATM   15  C   UNL     1      -8.464   9.849  66.580  1.00  0.00    -0.125 C  
HETATM   16  H   UNL     1      -6.782   9.599  67.479  1.00  0.00     0.000 HD 
HETATM   17  O   UNL     1      -9.171   8.493  71.320  1.00  0.00    -0.164 OA 
HETATM   18  C   UNL     1      -8.797   9.056  68.976  1.00  0.00    -0.136 A  
HETATM   19  O   UNL     1      -7.138  10.259  66.895  1.00  0.00    -0.087 OA 
ENDROOT
BRANCH   7  20
HETATM   20  C   UNL     1     -11.271  12.533  67.058  1.00  0.00    -0.353 A  
HETATM   21  C   UNL     1     -11.432  14.392  68.654  1.00  0.00    -0.287 A  
HETATM   22  C   UNL     1     -11.557  13.034  68.338  1.00  0.00    -0.370 A  
HETATM   23  C   UNL     1     -10.792  14.804  66.339  1.00  0.00    -0.322 A  
HETATM   24  C   UNL     1     -10.919  13.439  66.060  1.00  0.00    -0.281 A  
HETATM   25  C   UNL     1     -11.055  15.293  67.640  1.00  0.00    -0.323 A  
BRANCH  23  26
HETATM   26  O   UNL     1     -10.443  15.723  65.374  1.00  0.00    -0.368 OA 
HETATM   27  C   UNL     1     -11.304  15.800  64.240  1.00  0.00    -0.179 C  
ENDBRANCH  23  26
BRANCH  25  28
HETATM   28  O   UNL     1     -10.822  16.640  67.805  1.00  0.00    -0.340 OA 
HETATM   29  C   UNL     1      -9.599  17.035  68.409  1.00  0.00    -0.277 C  
ENDBRANCH  25  28
BRANCH  21  30
HETATM   30  O   UNL     1     -11.621  14.861  69.929  1.00  0.00    -0.257 OA 
HETATM   31  C   UNL     1     -12.940  15.215  70.334  1.00  0.00    -0.256 C  
ENDBRANCH  21  30
ENDBRANCH   7  20
TORSDOF 4
ENDMDL
MODEL       93
REMARK 921   NORMALIZED FREE ENERGY PREDICTED BY IDOCK:   -4.53 KCAL/MOL
REMARK 922        TOTAL FREE ENERGY PREDICTED BY IDOCK:   -6.34 KCAL/MOL
REMARK 923 INTER-LIGAND FREE ENERGY PREDICTED BY IDOCK:   -7.21 KCAL/MOL
REMARK 924 INTRA-LIGAND FREE ENERGY PREDICTED BY IDOCK:    0.87 KCAL/MOL
REMARK 927      BINDING AFFINITY PREDICTED BY RF-SCORE:    0.00 PKD
ROOT
HETATM    1  C   UNL     1     -11.605  13.197  70.011  1.00  0.00    -0.202 C  
HETATM    2  C   UNL     1     -12.351  12.271  70.932  1.00  0.00    -0.267 C  
HETATM    3  O   UNL     1     -12.241  10.985  70.292  1.00  0.00    -0.312 OA 
HETATM    4  C   UNL     1     -11.971  11.150  68.955  1.00  0.00    -0.298 C  
HETATM    5  C   UNL     1     -11.910  12.616  68.652  1.00  0.00    -0.342 C  
HETATM    6  O   UNL     1     -11.908  10.239  68.145  1.00  0.00    -0.238 OA 
HETATM    7  C   UNL     1     -10.905  13.135  67.623  1.00  0.00    -0.269 C  
HETATM    8  C   UNL     1      -9.661  18.772  66.380  1.00  0.00    -0.335 C  
HETATM    9  C   UNL     1     -10.930  14.670  67.648  1.00  0.00    -0.296 A  
HETATM   10  O   UNL     1      -9.670  17.509  65.685  1.00  0.00    -0.532 OA 
HETATM   11  C   UNL     1     -10.382  15.351  66.547  1.00  0.00    -0.293 A  
HETATM   12  C   UNL     1     -10.251  16.716  66.622  1.00  0.00    -0.303 A  
HETATM   13  C   UNL     1     -11.372  15.398  68.810  1.00  0.00    -0.328 A  
HETATM   14  C   UNL     1     -10.682  17.418  67.718  1.00  0.00    -0.332 A  
HETATM   15  C   UNL     1     -11.952  14.677  70.032  1.00  0.00    -0.320 C  
HETATM   16  H   UNL     1     -11.637  16.126  71.257  1.00  0.00     0.000 HD 
HETATM   17  O   UNL     1     -10.427  18.751  67.606  1.00  0.00    -0.398 OA 
HETATM   18  C   UNL     1     -11.270  16.802  68.806  1.00  0.00    -0.148 A  
HETATM   19  O   UNL     1     -11.421  15.201  71.244  1.00  0.00    -0.327 OA 
ENDROOT
BRANCH   7  20
HETATM   20  C   UNL     1      -9.490  12.589  67.819  1.00  0.00    -0.197 A  
HETATM   21  C   UNL     1      -7.951  10.738  68.304  1.00  0.00    -0.118 A  
HETATM   22  C   UNL     1      -9.242  11.278  68.255  1.00  0.00    -0.176 A  
HETATM   23  C   UNL     1      -7.094  12.888  67.540  1.00  0.00    -0.152 A  
HETATM   24  C   UNL     1      -8.398  13.393  67.494  1.00  0.00    -0.190 A  
HETATM   25  C   UNL     1      -6.859  11.556  67.953  1.00  0.00    -0.073 A  
BRANCH  23  26
HETATM   26  O   UNL     1      -5.996  13.657  67.223  1.00  0.00    -0.332 OA 
HETATM   27  C   UNL     1      -5.900  14.917  67.882  1.00  0.00    -0.136 C  
ENDBRANCH  23  26
BRANCH  25  28
HETATM   28  O   UNL     1      -5.544  11.156  67.883  1.00  0.00    -0.043 OA 
HETATM   29  C   UNL     1      -5.215  10.101  66.991  1.00  0.00    -0.041 C  
ENDBRANCH  25  28
BRANCH  21  30
HETATM   30  O   UNL     1      -7.725   9.427  68.639  1.00  0.00    -0.083 OA 
HETATM   31  C   UNL     1      -8.472   8.416  67.968  1.00  0.00    -0.132 C  
ENDBRANCH  21  30
ENDBRANCH   7  20
TORSDOF 4
ENDMDL
MODEL       94
REMARK 921   NORMALIZED FREE ENERGY PREDICTED BY IDOCK:   -4.52 KCAL/MOL
REMARK 922        TOTAL FREE ENERGY PREDICTED BY IDOCK:   -6.33 KCAL/MOL
REMARK 923 INTER-LIGAND FREE ENERGY PREDICTED BY IDOCK:   -5.50 KCAL/MOL
REMARK 924 INTRA-LIGAND FREE ENERGY PREDICTED BY IDOCK:   -0.82 KCAL/MOL
REMARK 927      BINDING AFFINITY PREDICTED BY RF-SCORE:    0.00 PKD
ROOT
HETATM    1  C   UNL     1     -10.626   9.221  69.759  1.00  0.00    -0.244 C  
HETATM    2  C   UNL     1     -11.075  10.560  70.278  1.00  0.00    -0.285 C  
HETATM    3  O   UNL     1     -11.809  10.236  71.474  1.00  0.00    -0.336 OA 
HETATM    4  C   UNL     1     -12.230   8.929  71.427  1.00  0.00    -0.318 C  
HETATM    5  C   UNL     1     -11.783   8.326  70.130  1.00  0.00     0.207 C  
HETATM    6  O   UNL     1     -12.946   8.403  72.263  1.00  0.00    -0.336 OA 
HETATM    7  C   UNL     1     -11.346   6.861  70.088  1.00  0.00    -0.364 C  
HETATM    8  C   UNL     1      -8.891   4.001  65.542  1.00  0.00    -0.123 C  
HETATM    9  C   UNL     1     -10.769   6.565  68.696  1.00  0.00    -0.323 A  
HETATM   10  O   UNL     1      -9.737   3.681  66.665  1.00  0.00    -0.182 OA 
HETATM   11  C   UNL     1     -10.659   5.218  68.308  1.00  0.00    -0.074 A  
HETATM   12  C   UNL     1     -10.000   4.927  67.138  1.00  0.00    -0.197 A  
HETATM   13  C   UNL     1     -10.232   7.610  67.864  1.00  0.00    -0.250 A  
HETATM   14  C   UNL     1      -9.499   5.917  66.333  1.00  0.00    -0.155 A  
HETATM   15  C   UNL     1     -10.319   9.084  68.276  1.00  0.00    -0.209 C  
HETATM   16  H   UNL     1      -8.894   9.674  67.126  1.00  0.00     0.000 HD 
HETATM   17  O   UNL     1      -8.854   5.414  65.244  1.00  0.00    -0.157 OA 
HETATM   18  C   UNL     1      -9.622   7.257  66.645  1.00  0.00    -0.236 A  
HETATM   19  O   UNL     1      -9.087   9.760  68.053  1.00  0.00    -0.125 OA 
ENDROOT
BRANCH   7  20
HETATM   20  C   UNL     1     -10.366   6.482  71.199  1.00  0.00    -0.237 A  
HETATM   21  C   UNL     1      -8.178   6.687  72.294  1.00  0.00    -0.104 A  
HETATM   22  C   UNL     1      -9.033   6.922  71.211  1.00  0.00    -0.142 A  
HETATM   23  C   UNL     1      -9.990   5.465  73.374  1.00  0.00    -0.173 A  
HETATM   24  C   UNL     1     -10.820   5.726  72.279  1.00  0.00    -0.298 A  
HETATM   25  C   UNL     1      -8.657   5.939  73.387  1.00  0.00    -0.120 A  
BRANCH  23  26
HETATM   26  O   UNL     1     -10.409   4.723  74.456  1.00  0.00    -0.245 OA 
HETATM   27  C   UNL     1     -10.732   3.360  74.194  1.00  0.00    -0.185 C  
ENDBRANCH  23  26
BRANCH  25  28
HETATM   28  O   UNL     1      -7.967   5.682  74.551  1.00  0.00    -0.103 OA 
HETATM   29  C   UNL     1      -7.036   4.610  74.551  1.00  0.00    -0.068 C  
ENDBRANCH  25  28
BRANCH  21  30
HETATM   30  O   UNL     1      -6.907   7.202  72.340  1.00  0.00    -0.063 OA 
HETATM   31  C   UNL     1      -6.744   8.581  72.657  1.00  0.00    -0.058 C  
ENDBRANCH  21  30
ENDBRANCH   7  20
TORSDOF 4
ENDMDL
MODEL       95
REMARK 921   NORMALIZED FREE ENERGY PREDICTED BY IDOCK:   -4.50 KCAL/MOL
REMARK 922        TOTAL FREE ENERGY PREDICTED BY IDOCK:   -6.31 KCAL/MOL
REMARK 923 INTER-LIGAND FREE ENERGY PREDICTED BY IDOCK:   -5.60 KCAL/MOL
REMARK 924 INTRA-LIGAND FREE ENERGY PREDICTED BY IDOCK:   -0.70 KCAL/MOL
REMARK 927      BINDING AFFINITY PREDICTED BY RF-SCORE:    0.00 PKD
ROOT
HETATM    1  C   UNL     1     -11.361  11.034  68.922  1.00  0.00    -0.346 C  
HETATM    2  C   UNL     1     -12.346  11.018  70.059  1.00  0.00    -0.305 C  
HETATM    3  O   UNL     1     -11.676  10.259  71.085  1.00  0.00    -0.358 OA 
HETATM    4  C   UNL     1     -10.703   9.470  70.522  1.00  0.00    -0.298 C  
HETATM    5  C   UNL     1     -10.711   9.677  69.038  1.00  0.00    -0.232 C  
HETATM    6  O   UNL     1     -10.031   8.657  71.137  1.00  0.00    -0.192 OA 
HETATM    7  C   UNL     1      -9.393   9.660  68.264  1.00  0.00    -0.138 C  
HETATM    8  C   UNL     1      -8.580  11.011  62.573  1.00  0.00    -0.258 C  
HETATM    9  C   UNL     1      -9.674  10.078  66.814  1.00  0.00    -0.239 A  
HETATM   10  O   UNL     1      -7.976  10.145  63.555  1.00  0.00    -0.155 OA 
HETATM   11  C   UNL     1      -8.702   9.772  65.845  1.00  0.00    -0.156 A  
HETATM   12  C   UNL     1      -8.860  10.277  64.578  1.00  0.00    -0.203 A  
HETATM   13  C   UNL     1     -10.824  10.873  66.468  1.00  0.00    -0.234 A  
HETATM   14  C   UNL     1      -9.958  11.023  64.236  1.00  0.00    -0.317 A  
HETATM   15  C   UNL     1     -11.886  11.239  67.510  1.00  0.00     0.055 C  
HETATM   16  H   UNL     1     -12.588  12.737  66.529  1.00  0.00     0.000 HD 
HETATM   17  O   UNL     1      -9.904  11.455  62.946  1.00  0.00    -0.342 OA 
HETATM   18  C   UNL     1     -10.966  11.312  65.138  1.00  0.00    -0.216 A  
HETATM   19  O   UNL     1     -12.261  12.608  67.412  1.00  0.00    -0.406 OA 
ENDROOT
BRANCH   7  20
HETATM   20  C   UNL     1      -8.298  10.519  68.899  1.00  0.00    -0.147 A  
HETATM   21  C   UNL     1      -6.223  10.740  70.192  1.00  0.00    -0.136 A  
HETATM   22  C   UNL     1      -7.299   9.977  69.723  1.00  0.00    -0.141 A  
HETATM   23  C   UNL     1      -7.186  12.673  69.062  1.00  0.00     0.009 A  
HETATM   24  C   UNL     1      -8.243  11.880  68.603  1.00  0.00    -0.072 A  
HETATM   25  C   UNL     1      -6.169  12.110  69.868  1.00  0.00    -0.120 A  
BRANCH  23  26
HETATM   26  O   UNL     1      -7.103  14.020  68.785  1.00  0.00    -0.099 OA 
HETATM   27  C   UNL     1      -8.336  14.735  68.766  1.00  0.00    -0.168 C  
ENDBRANCH  23  26
BRANCH  25  28
HETATM   28  O   UNL     1      -5.148  12.974  70.191  1.00  0.00    -0.084 OA 
HETATM   29  C   UNL     1      -5.189  13.609  71.462  1.00  0.00    -0.190 C  
ENDBRANCH  25  28
BRANCH  21  30
HETATM   30  O   UNL     1      -5.200  10.183  70.916  1.00  0.00    -0.053 OA 
HETATM   31  C   UNL     1      -5.524   9.443  72.090  1.00  0.00    -0.063 C  
ENDBRANCH  21  30
ENDBRANCH   7  20
TORSDOF 4
ENDMDL
MODEL       96
REMARK 921   NORMALIZED FREE ENERGY PREDICTED BY IDOCK:   -4.48 KCAL/MOL
REMARK 922        TOTAL FREE ENERGY PREDICTED BY IDOCK:   -6.28 KCAL/MOL
REMARK 923 INTER-LIGAND FREE ENERGY PREDICTED BY IDOCK:   -7.75 KCAL/MOL
REMARK 924 INTRA-LIGAND FREE ENERGY PREDICTED BY IDOCK:    1.47 KCAL/MOL
REMARK 927      BINDING AFFINITY PREDICTED BY RF-SCORE:    0.00 PKD
ROOT
HETATM    1  C   UNL     1     -10.447  10.964  66.300  1.00  0.00    -0.304 C  
HETATM    2  C   UNL     1     -10.204   9.498  66.066  1.00  0.00    -0.172 C  
HETATM    3  O   UNL     1      -9.661   9.035  67.318  1.00  0.00    -0.160 OA 
HETATM    4  C   UNL     1      -9.134  10.092  68.019  1.00  0.00    -0.131 C  
HETATM    5  C   UNL     1      -9.303  11.341  67.208  1.00  0.00    -0.173 C  
HETATM    6  O   UNL     1      -8.531   9.989  69.075  1.00  0.00    -0.127 OA 
HETATM    7  C   UNL     1      -9.606  12.664  67.911  1.00  0.00    -0.211 C  
HETATM    8  C   UNL     1     -11.008  17.811  65.377  1.00  0.00     0.295 C  
HETATM    9  C   UNL     1      -9.910  13.725  66.843  1.00  0.00    -0.264 A  
HETATM   10  O   UNL     1     -10.343  17.364  66.576  1.00  0.00    -0.325 OA 
HETATM   11  C   UNL     1      -9.843  15.076  67.226  1.00  0.00    -0.228 A  
HETATM   12  C   UNL     1     -10.266  16.030  66.333  1.00  0.00    -0.305 A  
HETATM   13  C   UNL     1     -10.380  13.361  65.532  1.00  0.00    -0.302 A  
HETATM   14  C   UNL     1     -10.702  15.694  65.078  1.00  0.00    -0.436 A  
HETATM   15  C   UNL     1     -10.485  11.894  65.098  1.00  0.00    -0.287 C  
HETATM   16  H   UNL     1     -11.735  12.219  63.673  1.00  0.00     0.000 HD 
HETATM   17  O   UNL     1     -11.107  16.782  64.367  1.00  0.00    -1.072 OA 
HETATM   18  C   UNL     1     -10.742  14.385  64.636  1.00  0.00    -0.357 A  
HETATM   19  O   UNL     1     -11.711  11.638  64.424  1.00  0.00    -0.257 OA 
ENDROOT
BRANCH   7  20
HETATM   20  C   UNL     1     -10.727  12.565  68.946  1.00  0.00    -0.202 A  
HETATM   21  C   UNL     1     -12.346  11.246  70.239  1.00  0.00    -0.307 A  
HETATM   22  C   UNL     1     -11.416  11.368  69.199  1.00  0.00    -0.365 A  
HETATM   23  C   UNL     1     -11.971  13.598  70.760  1.00  0.00    -0.206 A  
HETATM   24  C   UNL     1     -11.041  13.682  69.719  1.00  0.00     0.006 A  
HETATM   25  C   UNL     1     -12.638  12.378  71.024  1.00  0.00    -0.254 A  
BRANCH  23  26
HETATM   26  O   UNL     1     -12.302  14.682  71.542  1.00  0.00    -0.320 OA 
HETATM   27  C   UNL     1     -11.290  15.675  71.699  1.00  0.00    -0.368 C  
ENDBRANCH  23  26
BRANCH  25  28
HETATM   28  O   UNL     1     -13.471  12.404  72.120  1.00  0.00    -0.525 OA 
HETATM   29  C   UNL     1     -14.385  13.485  72.237  1.00  0.00    -0.250 C  
ENDBRANCH  25  28
BRANCH  21  30
HETATM   30  O   UNL     1     -12.943  10.049  70.540  1.00  0.00    -0.235 OA 
HETATM   31  C   UNL     1     -12.138   8.874  70.558  1.00  0.00     0.093 C  
ENDBRANCH  21  30
ENDBRANCH   7  20
TORSDOF 4
ENDMDL
MODEL       97
REMARK 921   NORMALIZED FREE ENERGY PREDICTED BY IDOCK:   -4.46 KCAL/MOL
REMARK 922        TOTAL FREE ENERGY PREDICTED BY IDOCK:   -6.25 KCAL/MOL
REMARK 923 INTER-LIGAND FREE ENERGY PREDICTED BY IDOCK:   -5.48 KCAL/MOL
REMARK 924 INTRA-LIGAND FREE ENERGY PREDICTED BY IDOCK:   -0.77 KCAL/MOL
REMARK 927      BINDING AFFINITY PREDICTED BY RF-SCORE:    0.00 PKD
ROOT
HETATM    1  C   UNL     1     -11.145   8.785  70.525  1.00  0.00    -0.278 C  
HETATM    2  C   UNL     1     -11.970   9.589  71.492  1.00  0.00    -0.399 C  
HETATM    3  O   UNL     1     -12.566   8.594  72.347  1.00  0.00    -0.383 OA 
HETATM    4  C   UNL     1     -12.577   7.376  71.710  1.00  0.00    -0.335 C  
HETATM    5  C   UNL     1     -11.978   7.540  70.346  1.00  0.00     0.004 C  
HETATM    6  O   UNL     1     -13.097   6.367  72.158  1.00  0.00    -0.130 OA 
HETATM    7  C   UNL     1     -11.124   6.418  69.755  1.00  0.00    -0.459 C  
HETATM    8  C   UNL     1      -7.957   6.593  64.774  1.00  0.00    -0.118 C  
HETATM    9  C   UNL     1     -10.494   6.922  68.448  1.00  0.00    -0.235 A  
HETATM   10  O   UNL     1      -8.661   5.602  65.550  1.00  0.00    -0.152 OA 
HETATM   11  C   UNL     1      -9.989   5.962  67.554  1.00  0.00    -0.163 A  
HETATM   12  C   UNL     1      -9.282   6.397  66.460  1.00  0.00    -0.155 A  
HETATM   13  C   UNL     1     -10.300   8.327  68.198  1.00  0.00    -0.253 A  
HETATM   14  C   UNL     1      -9.104   7.732  66.206  1.00  0.00    -0.178 A  
HETATM   15  C   UNL     1     -10.821   9.392  69.169  1.00  0.00    -0.155 C  
HETATM   16  H   UNL     1      -9.646  10.784  68.552  1.00  0.00     0.000 HD 
HETATM   17  O   UNL     1      -8.347   7.947  65.095  1.00  0.00    -0.146 OA 
HETATM   18  C   UNL     1      -9.621   8.716  67.028  1.00  0.00    -0.240 A  
HETATM   19  O   UNL     1      -9.849  10.405  69.400  1.00  0.00    -0.220 OA 
ENDROOT
BRANCH   7  20
HETATM   20  C   UNL     1     -10.068   5.879  70.721  1.00  0.00    -0.253 A  
HETATM   21  C   UNL     1      -9.120   4.056  72.066  1.00  0.00    -0.120 A  
HETATM   22  C   UNL     1     -10.152   4.599  71.291  1.00  0.00    -0.245 A  
HETATM   23  C   UNL     1      -7.897   6.145  71.779  1.00  0.00    -0.102 A  
HETATM   24  C   UNL     1      -8.943   6.653  71.002  1.00  0.00    -0.146 A  
HETATM   25  C   UNL     1      -7.980   4.842  72.325  1.00  0.00    -0.110 A  
BRANCH  23  26
HETATM   26  O   UNL     1      -6.772   6.884  72.073  1.00  0.00    -0.057 OA 
HETATM   27  C   UNL     1      -6.943   7.942  73.013  1.00  0.00    -0.088 C  
ENDBRANCH  23  26
BRANCH  25  28
HETATM   28  O   UNL     1      -6.857   4.431  73.005  1.00  0.00    -0.053 OA 
HETATM   29  C   UNL     1      -6.895   4.448  74.426  1.00  0.00    -0.065 C  
ENDBRANCH  25  28
BRANCH  21  30
HETATM   30  O   UNL     1      -9.167   2.770  72.539  1.00  0.00    -0.090 OA 
HETATM   31  C   UNL     1      -9.971   1.820  71.845  1.00  0.00    -0.151 C  
ENDBRANCH  21  30
ENDBRANCH   7  20
TORSDOF 4
ENDMDL
MODEL       98
REMARK 921   NORMALIZED FREE ENERGY PREDICTED BY IDOCK:   -4.43 KCAL/MOL
REMARK 922        TOTAL FREE ENERGY PREDICTED BY IDOCK:   -6.22 KCAL/MOL
REMARK 923 INTER-LIGAND FREE ENERGY PREDICTED BY IDOCK:   -6.85 KCAL/MOL
REMARK 924 INTRA-LIGAND FREE ENERGY PREDICTED BY IDOCK:    0.64 KCAL/MOL
REMARK 927      BINDING AFFINITY PREDICTED BY RF-SCORE:    0.00 PKD
ROOT
HETATM    1  C   UNL     1     -12.293  12.254  70.814  1.00  0.00    -0.383 C  
HETATM    2  C   UNL     1     -12.999  12.018  72.121  1.00  0.00    -0.151 C  
HETATM    3  O   UNL     1     -13.051  10.583  72.230  1.00  0.00    -0.394 OA 
HETATM    4  C   UNL     1     -12.917  10.013  70.987  1.00  0.00    -0.360 C  
HETATM    5  C   UNL     1     -12.784  11.104  69.969  1.00  0.00    -0.123 C  
HETATM    6  O   UNL     1     -13.007   8.818  70.762  1.00  0.00     0.072 OA 
HETATM    7  C   UNL     1     -11.861  10.908  68.765  1.00  0.00    -0.305 C  
HETATM    8  C   UNL     1     -10.359  14.945  64.726  1.00  0.00    -0.198 C  
HETATM    9  C   UNL     1     -11.774  12.234  67.997  1.00  0.00    -0.417 A  
HETATM   10  O   UNL     1     -10.533  13.515  64.784  1.00  0.00    -0.379 OA 
HETATM   11  C   UNL     1     -11.301  12.193  66.673  1.00  0.00    -0.405 A  
HETATM   12  C   UNL     1     -11.065  13.381  66.026  1.00  0.00    -0.283 A  
HETATM   13  C   UNL     1     -12.034  13.496  68.639  1.00  0.00    -0.378 A  
HETATM   14  C   UNL     1     -11.324  14.587  66.625  1.00  0.00    -0.356 A  
HETATM   15  C   UNL     1     -12.528  13.569  70.088  1.00  0.00    -0.209 C  
HETATM   16  H   UNL     1     -11.980  15.391  70.371  1.00  0.00     0.000 HD 
HETATM   17  O   UNL     1     -10.987  15.638  65.828  1.00  0.00    -0.314 OA 
HETATM   18  C   UNL     1     -11.833  14.681  67.906  1.00  0.00    -0.352 A  
HETATM   19  O   UNL     1     -11.833  14.569  70.825  1.00  0.00    -0.297 OA 
ENDROOT
BRANCH   7  20
HETATM   20  C   UNL     1     -10.476  10.376  69.135  1.00  0.00    -0.248 A  
HETATM   21  C   UNL     1      -8.028  10.570  69.124  1.00  0.00    -0.145 A  
HETATM   22  C   UNL     1      -9.292  10.974  68.677  1.00  0.00    -0.196 A  
HETATM   23  C   UNL     1      -9.126   8.861  70.472  1.00  0.00    -0.200 A  
HETATM   24  C   UNL     1     -10.373   9.297  70.012  1.00  0.00    -0.245 A  
HETATM   25  C   UNL     1      -7.941   9.491  70.025  1.00  0.00    -0.156 A  
BRANCH  23  26
HETATM   26  O   UNL     1      -8.991   7.800  71.340  1.00  0.00    -0.130 OA 
HETATM   27  C   UNL     1      -9.265   8.072  72.712  1.00  0.00    -0.252 C  
ENDBRANCH  23  26
BRANCH  25  28
HETATM   28  O   UNL     1      -6.786   9.021  70.608  1.00  0.00    -0.048 OA 
HETATM   29  C   UNL     1      -6.133   9.852  71.559  1.00  0.00     0.155 C  
ENDBRANCH  25  28
BRANCH  21  30
HETATM   30  O   UNL     1      -6.882  11.221  68.745  1.00  0.00    -0.069 OA 
HETATM   31  C   UNL     1      -6.717  12.583  69.129  1.00  0.00    -0.089 C  
ENDBRANCH  21  30
ENDBRANCH   7  20
TORSDOF 4
ENDMDL
MODEL       99
REMARK 921   NORMALIZED FREE ENERGY PREDICTED BY IDOCK:   -4.42 KCAL/MOL
REMARK 922        TOTAL FREE ENERGY PREDICTED BY IDOCK:   -6.20 KCAL/MOL
REMARK 923 INTER-LIGAND FREE ENERGY PREDICTED BY IDOCK:   -5.51 KCAL/MOL
REMARK 924 INTRA-LIGAND FREE ENERGY PREDICTED BY IDOCK:   -0.69 KCAL/MOL
REMARK 927      BINDING AFFINITY PREDICTED BY RF-SCORE:    0.00 PKD
ROOT
HETATM    1  C   UNL     1      -8.429  10.170  68.297  1.00  0.00    -0.115 C  
HETATM    2  C   UNL     1      -7.417  10.820  67.393  1.00  0.00    -0.098 C  
HETATM    3  O   UNL     1      -6.166  10.231  67.797  1.00  0.00    -0.056 OA 
HETATM    4  C   UNL     1      -6.273   9.733  69.072  1.00  0.00    -0.041 C  
HETATM    5  C   UNL     1      -7.656  10.006  69.582  1.00  0.00    -0.147 C  
HETATM    6  O   UNL     1      -5.348   9.253  69.707  1.00  0.00    -0.033 OA 
HETATM    7  C   UNL     1      -8.347   8.980  70.481  1.00  0.00    -0.205 C  
HETATM    8  C   UNL     1     -13.953   9.066  72.335  1.00  0.00    -0.448 C  
HETATM    9  C   UNL     1      -9.801   9.424  70.698  1.00  0.00    -0.340 A  
HETATM   10  O   UNL     1     -12.683   8.583  72.817  1.00  0.00    -0.289 OA 
HETATM   11  C   UNL     1     -10.504   8.856  71.775  1.00  0.00    -0.431 A  
HETATM   12  C   UNL     1     -11.848   9.117  71.889  1.00  0.00    -0.369 A  
HETATM   13  C   UNL     1     -10.474  10.286  69.761  1.00  0.00    -0.300 A  
HETATM   14  C   UNL     1     -12.493   9.948  71.010  1.00  0.00    -0.346 A  
HETATM   15  C   UNL     1      -9.735  10.900  68.566  1.00  0.00    -0.183 C  
HETATM   16  H   UNL     1     -11.323  11.260  67.543  1.00  0.00     0.000 HD 
HETATM   17  O   UNL     1     -13.824  10.044  71.279  1.00  0.00    -0.154 OA 
HETATM   18  C   UNL     1     -11.838  10.568  69.963  1.00  0.00    -0.388 A  
HETATM   19  O   UNL     1     -10.507  10.805  67.374  1.00  0.00    -0.199 OA 
ENDROOT
BRANCH   7  20
HETATM   20  C   UNL     1      -8.265   7.548  69.952  1.00  0.00    -0.131 A  
HETATM   21  C   UNL     1      -7.344   5.273  70.048  1.00  0.00    -0.064 A  
HETATM   22  C   UNL     1      -7.330   6.619  70.435  1.00  0.00    -0.082 A  
HETATM   23  C   UNL     1      -9.229   5.783  68.588  1.00  0.00    -0.118 A  
HETATM   24  C   UNL     1      -9.191   7.118  69.003  1.00  0.00    -0.135 A  
HETATM   25  C   UNL     1      -8.299   4.849  69.103  1.00  0.00    -0.081 A  
BRANCH  23  26
HETATM   26  O   UNL     1     -10.132   5.328  67.653  1.00  0.00    -0.163 OA 
HETATM   27  C   UNL     1     -10.815   6.328  66.901  1.00  0.00    -0.354 C  
ENDBRANCH  23  26
BRANCH  25  28
HETATM   28  O   UNL     1      -8.487   3.555  68.674  1.00  0.00    -0.075 OA 
HETATM   29  C   UNL     1      -9.395   2.738  69.400  1.00  0.00    -0.119 C  
ENDBRANCH  25  28
BRANCH  21  30
HETATM   30  O   UNL     1      -6.489   4.352  70.595  1.00  0.00    -0.028 OA 
HETATM   31  C   UNL     1      -6.584   4.082  71.991  1.00  0.00    -0.022 C  
ENDBRANCH  21  30
ENDBRANCH   7  20
TORSDOF 4
ENDMDL
MODEL      100
REMARK 921   NORMALIZED FREE ENERGY PREDICTED BY IDOCK:   -4.41 KCAL/MOL
REMARK 922        TOTAL FREE ENERGY PREDICTED BY IDOCK:   -6.19 KCAL/MOL
REMARK 923 INTER-LIGAND FREE ENERGY PREDICTED BY IDOCK:   -5.69 KCAL/MOL
REMARK 924 INTRA-LIGAND FREE ENERGY PREDICTED BY IDOCK:   -0.50 KCAL/MOL
REMARK 927      BINDING AFFINITY PREDICTED BY RF-SCORE:    0.00 PKD
ROOT
HETATM    1  C   UNL     1      -7.469   8.376  64.474  1.00  0.00    -0.099 C  
HETATM    2  C   UNL     1      -6.363   7.426  64.108  1.00  0.00    -0.048 C  
HETATM    3  O   UNL     1      -5.759   7.097  65.375  1.00  0.00    -0.034 OA 
HETATM    4  C   UNL     1      -6.049   8.071  66.299  1.00  0.00    -0.045 C  
HETATM    5  C   UNL     1      -6.876   9.131  65.638  1.00  0.00    -0.077 C  
HETATM    6  O   UNL     1      -5.602   8.102  67.434  1.00  0.00    -0.036 OA 
HETATM    7  C   UNL     1      -7.983   9.829  66.428  1.00  0.00    -0.109 C  
HETATM    8  C   UNL     1     -12.015  13.608  64.344  1.00  0.00    -0.437 C  
HETATM    9  C   UNL     1      -8.780  10.723  65.466  1.00  0.00    -0.196 A  
HETATM   10  O   UNL     1     -11.321  13.374  65.586  1.00  0.00    -0.296 OA 
HETATM   11  C   UNL     1      -9.585  11.730  66.025  1.00  0.00    -0.248 A  
HETATM   12  C   UNL     1     -10.425  12.432  65.195  1.00  0.00    -0.292 A  
HETATM   13  C   UNL     1      -8.816  10.462  64.051  1.00  0.00    -0.225 A  
HETATM   14  C   UNL     1     -10.455  12.200  63.844  1.00  0.00    -0.409 A  
HETATM   15  C   UNL     1      -7.965   9.354  63.420  1.00  0.00    -0.143 C  
HETATM   16  H   UNL     1      -9.026   9.203  61.823  1.00  0.00     0.000 HD 
HETATM   17  O   UNL     1     -11.379  12.974  63.211  1.00  0.00    -0.317 OA 
HETATM   18  C   UNL     1      -9.650  11.254  63.239  1.00  0.00    -0.373 A  
HETATM   19  O   UNL     1      -8.716   8.592  62.482  1.00  0.00    -0.158 OA 
ENDROOT
BRANCH   7  20
HETATM   20  C   UNL     1      -8.894   8.866  67.190  1.00  0.00    -0.133 A  
HETATM   21  C   UNL     1     -10.510   7.017  67.230  1.00  0.00    -0.293 A  
HETATM   22  C   UNL     1      -9.778   7.991  66.540  1.00  0.00    -0.297 A  
HETATM   23  C   UNL     1      -9.526   7.843  69.302  1.00  0.00    -0.152 A  
HETATM   24  C   UNL     1      -8.803   8.798  68.580  1.00  0.00    -0.138 A  
HETATM   25  C   UNL     1     -10.393   6.947  68.632  1.00  0.00    -0.186 A  
BRANCH  23  26
HETATM   26  O   UNL     1      -9.456   7.749  70.674  1.00  0.00    -0.162 OA 
HETATM   27  C   UNL     1      -9.724   8.947  71.400  1.00  0.00    -0.300 C  
ENDBRANCH  23  26
BRANCH  25  28
HETATM   28  O   UNL     1     -10.988   6.008  69.444  1.00  0.00    -0.332 OA 
HETATM   29  C   UNL     1     -12.075   6.424  70.258  1.00  0.00     0.089 C  
ENDBRANCH  25  28
BRANCH  21  30
HETATM   30  O   UNL     1     -11.299   6.105  66.578  1.00  0.00    -0.054 OA 
HETATM   31  C   UNL     1     -10.681   4.946  66.024  1.00  0.00    -0.190 C  
ENDBRANCH  21  30
ENDBRANCH   7  20
TORSDOF 4
ENDMDL
MODEL      101
REMARK 921   NORMALIZED FREE ENERGY PREDICTED BY IDOCK:   -4.41 KCAL/MOL
REMARK 922        TOTAL FREE ENERGY PREDICTED BY IDOCK:   -6.19 KCAL/MOL
REMARK 923 INTER-LIGAND FREE ENERGY PREDICTED BY IDOCK:   -5.76 KCAL/MOL
REMARK 924 INTRA-LIGAND FREE ENERGY PREDICTED BY IDOCK:   -0.43 KCAL/MOL
REMARK 927      BINDING AFFINITY PREDICTED BY RF-SCORE:    0.00 PKD
ROOT
HETATM    1  C   UNL     1      -7.520   6.931  70.999  1.00  0.00    -0.083 C  
HETATM    2  C   UNL     1      -6.070   6.586  71.201  1.00  0.00    -0.039 C  
HETATM    3  O   UNL     1      -5.803   5.609  70.176  1.00  0.00    -0.021 OA 
HETATM    4  C   UNL     1      -6.978   5.027  69.766  1.00  0.00    -0.053 C  
HETATM    5  C   UNL     1      -8.108   5.614  70.556  1.00  0.00    -0.105 C  
HETATM    6  O   UNL     1      -7.052   4.106  68.970  1.00  0.00    -0.049 OA 
HETATM    7  C   UNL     1      -9.462   5.844  69.884  1.00  0.00    -0.180 C  
HETATM    8  C   UNL     1     -14.134   8.661  72.145  1.00  0.00    -0.441 C  
HETATM    9  C   UNL     1     -10.364   6.617  70.858  1.00  0.00    -0.237 A  
HETATM   10  O   UNL     1     -13.890   7.590  71.211  1.00  0.00    -0.347 OA 
HETATM   11  C   UNL     1     -11.748   6.608  70.612  1.00  0.00    -0.452 A  
HETATM   12  C   UNL     1     -12.552   7.420  71.374  1.00  0.00    -0.370 A  
HETATM   13  C   UNL     1      -9.814   7.435  71.907  1.00  0.00    -0.187 A  
HETATM   14  C   UNL     1     -12.039   8.192  72.384  1.00  0.00    -0.348 A  
HETATM   15  C   UNL     1      -8.306   7.480  72.179  1.00  0.00    -0.110 C  
HETATM   16  H   UNL     1      -8.346   9.157  73.120  1.00  0.00     0.000 HD 
HETATM   17  O   UNL     1     -12.996   8.947  72.990  1.00  0.00    -0.297 OA 
HETATM   18  C   UNL     1     -10.693   8.201  72.697  1.00  0.00    -0.421 A  
HETATM   19  O   UNL     1      -7.854   8.814  72.383  1.00  0.00    -0.351 OA 
ENDROOT
BRANCH   7  20
HETATM   20  C   UNL     1      -9.361   6.544  68.528  1.00  0.00    -0.123 A  
HETATM   21  C   UNL     1      -9.289   8.586  67.167  1.00  0.00    -0.152 A  
HETATM   22  C   UNL     1      -9.514   7.932  68.384  1.00  0.00    -0.150 A  
HETATM   23  C   UNL     1      -8.818   6.415  66.163  1.00  0.00    -0.150 A  
HETATM   24  C   UNL     1      -9.042   5.795  67.397  1.00  0.00    -0.110 A  
HETATM   25  C   UNL     1      -8.947   7.819  66.037  1.00  0.00    -0.145 A  
BRANCH  23  26
HETATM   26  O   UNL     1      -8.499   5.703  65.028  1.00  0.00    -0.144 OA 
HETATM   27  C   UNL     1      -7.220   5.073  65.021  1.00  0.00    -0.063 C  
ENDBRANCH  23  26
BRANCH  25  28
HETATM   28  O   UNL     1      -8.627   8.315  64.793  1.00  0.00    -0.133 OA 
HETATM   29  C   UNL     1      -7.314   8.817  64.593  1.00  0.00    -0.098 C  
ENDBRANCH  25  28
BRANCH  21  30
HETATM   30  O   UNL     1      -9.347   9.952  67.055  1.00  0.00    -0.143 OA 
HETATM   31  C   UNL     1     -10.578  10.606  67.353  1.00  0.00    -0.256 C  
ENDBRANCH  21  30
ENDBRANCH   7  20
TORSDOF 4
ENDMDL
MODEL      102
REMARK 921   NORMALIZED FREE ENERGY PREDICTED BY IDOCK:   -4.40 KCAL/MOL
REMARK 922        TOTAL FREE ENERGY PREDICTED BY IDOCK:   -6.19 KCAL/MOL
REMARK 923 INTER-LIGAND FREE ENERGY PREDICTED BY IDOCK:   -5.39 KCAL/MOL
REMARK 924 INTRA-LIGAND FREE ENERGY PREDICTED BY IDOCK:   -0.80 KCAL/MOL
REMARK 927      BINDING AFFINITY PREDICTED BY RF-SCORE:    0.00 PKD
ROOT
HETATM    1  C   UNL     1      -8.126   9.745  68.324  1.00  0.00    -0.104 C  
HETATM    2  C   UNL     1      -7.042  10.280  67.428  1.00  0.00    -0.083 C  
HETATM    3  O   UNL     1      -5.874   9.534  67.819  1.00  0.00    -0.044 OA 
HETATM    4  C   UNL     1      -6.041   9.031  69.086  1.00  0.00    -0.042 C  
HETATM    5  C   UNL     1      -7.378   9.464  69.604  1.00  0.00    -0.077 C  
HETATM    6  O   UNL     1      -5.182   8.428  69.709  1.00  0.00    -0.029 OA 
HETATM    7  C   UNL     1      -8.191   8.517  70.488  1.00  0.00    -0.116 C  
HETATM    8  C   UNL     1     -13.741   9.265  72.360  1.00  0.00    -0.452 C  
HETATM    9  C   UNL     1      -9.578   9.134  70.716  1.00  0.00    -0.338 A  
HETATM   10  O   UNL     1     -12.540   8.620  72.830  1.00  0.00    -0.319 OA 
HETATM   11  C   UNL     1     -10.345   8.638  71.785  1.00  0.00    -0.386 A  
HETATM   12  C   UNL     1     -11.646   9.062  71.908  1.00  0.00    -0.370 A  
HETATM   13  C   UNL     1     -10.139  10.089  69.797  1.00  0.00    -0.284 A  
HETATM   14  C   UNL     1     -12.184   9.981  71.046  1.00  0.00    -0.365 A  
HETATM   15  C   UNL     1      -9.331  10.626  68.611  1.00  0.00    -0.177 C  
HETATM   16  H   UNL     1     -10.863  11.199  67.598  1.00  0.00     0.000 HD 
HETATM   17  O   UNL     1     -13.493  10.237  71.320  1.00  0.00    -0.319 OA 
HETATM   18  C   UNL     1     -11.458  10.534  70.008  1.00  0.00    -0.393 A  
HETATM   19  O   UNL     1     -10.110  10.649  67.419  1.00  0.00    -0.182 OA 
ENDROOT
BRANCH   7  20
HETATM   20  C   UNL     1      -8.288   7.095  69.934  1.00  0.00    -0.135 A  
HETATM   21  C   UNL     1      -9.053   5.502  68.229  1.00  0.00    -0.108 A  
HETATM   22  C   UNL     1      -9.071   6.773  68.815  1.00  0.00    -0.132 A  
HETATM   23  C   UNL     1      -7.487   4.800  69.960  1.00  0.00    -0.055 A  
HETATM   24  C   UNL     1      -7.522   6.084  70.514  1.00  0.00    -0.090 A  
HETATM   25  C   UNL     1      -8.260   4.496  68.814  1.00  0.00    -0.081 A  
BRANCH  23  26
HETATM   26  O   UNL     1      -6.740   3.782  70.509  1.00  0.00    -0.031 OA 
HETATM   27  C   UNL     1      -7.084   3.396  71.837  1.00  0.00    -0.038 C  
ENDBRANCH  23  26
BRANCH  25  28
HETATM   28  O   UNL     1      -8.081   3.224  68.322  1.00  0.00    -0.072 OA 
HETATM   29  C   UNL     1      -9.119   2.277  68.528  1.00  0.00    -0.157 C  
ENDBRANCH  25  28
BRANCH  21  30
HETATM   30  O   UNL     1      -9.748   5.222  67.080  1.00  0.00    -0.132 OA 
HETATM   31  C   UNL     1     -10.888   6.018  66.765  1.00  0.00    -0.279 C  
ENDBRANCH  21  30
ENDBRANCH   7  20
TORSDOF 4
ENDMDL
MODEL      103
REMARK 921   NORMALIZED FREE ENERGY PREDICTED BY IDOCK:   -4.37 KCAL/MOL
REMARK 922        TOTAL FREE ENERGY PREDICTED BY IDOCK:   -6.14 KCAL/MOL
REMARK 923 INTER-LIGAND FREE ENERGY PREDICTED BY IDOCK:   -5.58 KCAL/MOL
REMARK 924 INTRA-LIGAND FREE ENERGY PREDICTED BY IDOCK:   -0.56 KCAL/MOL
REMARK 927      BINDING AFFINITY PREDICTED BY RF-SCORE:    0.00 PKD
ROOT
HETATM    1  C   UNL     1      -9.092   7.279  71.412  1.00  0.00    -0.144 C  
HETATM    2  C   UNL     1      -8.962   7.444  72.901  1.00  0.00    -0.141 C  
HETATM    3  O   UNL     1      -8.141   8.619  73.047  1.00  0.00    -0.394 OA 
HETATM    4  C   UNL     1      -7.423   8.835  71.896  1.00  0.00    -0.008 C  
HETATM    5  C   UNL     1      -7.747   7.749  70.916  1.00  0.00    -0.087 C  
HETATM    6  O   UNL     1      -6.582   9.708  71.760  1.00  0.00    -0.300 OA 
HETATM    7  C   UNL     1      -7.824   8.075  69.424  1.00  0.00    -0.113 C  
HETATM    8  C   UNL     1      -9.642   4.508  65.083  1.00  0.00    -0.159 C  
HETATM    9  C   UNL     1      -8.349   6.837  68.681  1.00  0.00    -0.120 A  
HETATM   10  O   UNL     1      -8.716   5.602  65.240  1.00  0.00    -0.154 OA 
HETATM   11  C   UNL     1      -8.146   6.774  67.291  1.00  0.00    -0.118 A  
HETATM   12  C   UNL     1      -8.745   5.758  66.589  1.00  0.00    -0.119 A  
HETATM   13  C   UNL     1      -9.140   5.836  69.349  1.00  0.00    -0.138 A  
HETATM   14  C   UNL     1      -9.488   4.793  67.218  1.00  0.00    -0.146 A  
HETATM   15  C   UNL     1      -9.395   5.896  70.859  1.00  0.00    -0.161 C  
HETATM   16  H   UNL     1     -10.948   4.761  70.821  1.00  0.00     0.000 HD 
HETATM   17  O   UNL     1     -10.021   3.901  66.338  1.00  0.00    -0.166 OA 
HETATM   18  C   UNL     1      -9.679   4.783  68.587  1.00  0.00    -0.223 A  
HETATM   19  O   UNL     1     -10.758   5.625  71.167  1.00  0.00    -0.251 OA 
ENDROOT
BRANCH   7  20
HETATM   20  C   UNL     1      -8.657   9.318  69.111  1.00  0.00    -0.134 A  
HETATM   21  C   UNL     1      -8.947  11.480  67.983  1.00  0.00    -0.170 A  
HETATM   22  C   UNL     1      -8.145  10.405  68.384  1.00  0.00    -0.112 A  
HETATM   23  C   UNL     1     -10.823  10.420  69.122  1.00  0.00    -0.236 A  
HETATM   24  C   UNL     1      -9.996   9.357  69.499  1.00  0.00    -0.200 A  
HETATM   25  C   UNL     1     -10.303  11.496  68.366  1.00  0.00    -0.202 A  
BRANCH  23  26
HETATM   26  O   UNL     1     -12.149  10.487  69.489  1.00  0.00    -0.236 OA 
HETATM   27  C   UNL     1     -12.418  11.038  70.776  1.00  0.00    -0.396 C  
ENDBRANCH  23  26
BRANCH  25  28
HETATM   28  O   UNL     1     -11.232  12.441  67.994  1.00  0.00    -0.233 OA 
HETATM   29  C   UNL     1     -11.752  12.381  66.673  1.00  0.00    -0.372 C  
ENDBRANCH  25  28
BRANCH  21  30
HETATM   30  O   UNL     1      -8.463  12.491  67.193  1.00  0.00    -0.179 OA 
HETATM   31  C   UNL     1      -7.896  13.635  67.825  1.00  0.00    -0.171 C  
ENDBRANCH  21  30
ENDBRANCH   7  20
TORSDOF 4
ENDMDL
MODEL      104
REMARK 921   NORMALIZED FREE ENERGY PREDICTED BY IDOCK:   -4.34 KCAL/MOL
REMARK 922        TOTAL FREE ENERGY PREDICTED BY IDOCK:   -6.11 KCAL/MOL
REMARK 923 INTER-LIGAND FREE ENERGY PREDICTED BY IDOCK:   -5.39 KCAL/MOL
REMARK 924 INTRA-LIGAND FREE ENERGY PREDICTED BY IDOCK:   -0.72 KCAL/MOL
REMARK 927      BINDING AFFINITY PREDICTED BY RF-SCORE:    0.00 PKD
ROOT
HETATM    1  C   UNL     1      -8.771   3.840  67.812  1.00  0.00    -0.122 C  
HETATM    2  C   UNL     1      -8.296   2.705  66.946  1.00  0.00    -0.095 C  
HETATM    3  O   UNL     1      -8.706   3.090  65.619  1.00  0.00    -0.117 OA 
HETATM    4  C   UNL     1      -9.729   4.004  65.692  1.00  0.00    -0.192 C  
HETATM    5  C   UNL     1     -10.055   4.249  67.134  1.00  0.00    -0.060 C  
HETATM    6  O   UNL     1     -10.332   4.444  64.727  1.00  0.00    -0.154 OA 
HETATM    7  C   UNL     1     -10.463   5.650  67.589  1.00  0.00    -0.284 C  
HETATM    8  C   UNL     1     -11.272   7.502  73.138  1.00  0.00    -0.267 C  
HETATM    9  C   UNL     1     -10.556   5.656  69.122  1.00  0.00    -0.334 A  
HETATM   10  O   UNL     1     -11.791   7.813  71.829  1.00  0.00    -0.270 OA 
HETATM   11  C   UNL     1     -11.270   6.705  69.729  1.00  0.00    -0.413 A  
HETATM   12  C   UNL     1     -11.228   6.817  71.098  1.00  0.00    -0.283 A  
HETATM   13  C   UNL     1      -9.830   4.707  69.925  1.00  0.00    -0.296 A  
HETATM   14  C   UNL     1     -10.551   5.909  71.871  1.00  0.00    -0.231 A  
HETATM   15  C   UNL     1      -9.026   3.569  69.286  1.00  0.00    -0.119 C  
HETATM   16  H   UNL     1      -7.908   3.259  70.821  1.00  0.00     0.000 HD 
HETATM   17  O   UNL     1     -10.606   6.221  73.195  1.00  0.00    -0.223 OA 
HETATM   18  C   UNL     1      -9.874   4.834  71.326  1.00  0.00    -0.256 A  
HETATM   19  O   UNL     1      -7.749   3.427  69.899  1.00  0.00    -0.047 OA 
ENDROOT
BRANCH   7  20
HETATM   20  C   UNL     1      -9.542   6.756  67.073  1.00  0.00    -0.188 A  
HETATM   21  C   UNL     1      -9.184   8.861  65.860  1.00  0.00    -0.229 A  
HETATM   22  C   UNL     1      -9.993   7.777  66.222  1.00  0.00    -0.047 A  
HETATM   23  C   UNL     1      -7.380   7.862  67.161  1.00  0.00    -0.091 A  
HETATM   24  C   UNL     1      -8.218   6.799  67.510  1.00  0.00    -0.122 A  
HETATM   25  C   UNL     1      -7.855   8.901  66.326  1.00  0.00    -0.102 A  
BRANCH  23  26
HETATM   26  O   UNL     1      -6.069   7.934  67.577  1.00  0.00    -0.047 OA 
HETATM   27  C   UNL     1      -5.842   7.745  68.972  1.00  0.00    -0.031 C  
ENDBRANCH  23  26
BRANCH  25  28
HETATM   28  O   UNL     1      -6.960   9.926  66.118  1.00  0.00    -0.093 OA 
HETATM   29  C   UNL     1      -6.382  10.054  64.826  1.00  0.00    -0.127 C  
ENDBRANCH  25  28
BRANCH  21  30
HETATM   30  O   UNL     1      -9.661   9.903  65.107  1.00  0.00    -0.289 OA 
HETATM   31  C   UNL     1     -10.293  10.991  65.775  1.00  0.00    -0.257 C  
ENDBRANCH  21  30
ENDBRANCH   7  20
TORSDOF 4
ENDMDL
MODEL      105
REMARK 921   NORMALIZED FREE ENERGY PREDICTED BY IDOCK:   -4.32 KCAL/MOL
REMARK 922        TOTAL FREE ENERGY PREDICTED BY IDOCK:   -6.09 KCAL/MOL
REMARK 923 INTER-LIGAND FREE ENERGY PREDICTED BY IDOCK:   -5.31 KCAL/MOL
REMARK 924 INTRA-LIGAND FREE ENERGY PREDICTED BY IDOCK:   -0.78 KCAL/MOL
REMARK 927      BINDING AFFINITY PREDICTED BY RF-SCORE:    0.00 PKD
ROOT
HETATM    1  C   UNL     1      -6.519   8.778  70.086  1.00  0.00    -0.038 C  
HETATM    2  C   UNL     1      -5.489   9.627  70.779  1.00  0.00    -0.053 C  
HETATM    3  O   UNL     1      -5.972  10.972  70.595  1.00  0.00    -0.225 OA 
HETATM    4  C   UNL     1      -6.829  11.019  69.522  1.00  0.00    -0.133 C  
HETATM    5  C   UNL     1      -6.930   9.649  68.925  1.00  0.00    -0.059 C  
HETATM    6  O   UNL     1      -7.325  12.042  69.079  1.00  0.00    -0.096 OA 
HETATM    7  C   UNL     1      -8.265   9.167  68.355  1.00  0.00    -0.115 C  
HETATM    8  C   UNL     1      -9.576   3.738  66.439  1.00  0.00    -0.161 C  
HETATM    9  C   UNL     1      -8.130   7.683  67.985  1.00  0.00    -0.123 A  
HETATM   10  O   UNL     1      -9.979   5.092  66.149  1.00  0.00    -0.181 OA 
HETATM   11  C   UNL     1      -9.087   7.139  67.111  1.00  0.00    -0.141 A  
HETATM   12  C   UNL     1      -9.078   5.782  66.895  1.00  0.00    -0.118 A  
HETATM   13  C   UNL     1      -7.147   6.837  68.610  1.00  0.00    -0.082 A  
HETATM   14  C   UNL     1      -8.136   4.971  67.474  1.00  0.00    -0.099 A  
HETATM   15  C   UNL     1      -6.108   7.403  69.584  1.00  0.00    -0.030 C  
HETATM   16  H   UNL     1      -5.712   5.716  70.420  1.00  0.00     0.000 HD 
HETATM   17  O   UNL     1      -8.326   3.660  67.161  1.00  0.00    -0.096 OA 
HETATM   18  C   UNL     1      -7.146   5.463  68.304  1.00  0.00    -0.066 A  
HETATM   19  O   UNL     1      -5.969   6.576  70.734  1.00  0.00    -0.026 OA 
ENDROOT
BRANCH   7  20
HETATM   20  C   UNL     1      -9.452   9.413  69.287  1.00  0.00    -0.164 A  
HETATM   21  C   UNL     1     -10.611   9.070  71.424  1.00  0.00    -0.323 A  
HETATM   22  C   UNL     1      -9.599   8.746  70.514  1.00  0.00    -0.226 A  
HETATM   23  C   UNL     1     -11.426  10.723  69.829  1.00  0.00    -0.311 A  
HETATM   24  C   UNL     1     -10.397  10.381  68.946  1.00  0.00    -0.227 A  
HETATM   25  C   UNL     1     -11.546  10.064  71.075  1.00  0.00    -0.393 A  
BRANCH  23  26
HETATM   26  O   UNL     1     -12.373  11.675  69.522  1.00  0.00    -0.211 OA 
HETATM   27  C   UNL     1     -11.908  12.813  68.800  1.00  0.00    -0.307 C  
ENDBRANCH  23  26
BRANCH  25  28
HETATM   28  O   UNL     1     -12.552  10.542  71.883  1.00  0.00    -0.381 OA 
HETATM   29  C   UNL     1     -13.666   9.696  72.134  1.00  0.00    -0.320 C  
ENDBRANCH  25  28
BRANCH  21  30
HETATM   30  O   UNL     1     -10.691   8.481  72.660  1.00  0.00    -0.302 OA 
HETATM   31  C   UNL     1     -11.127   7.127  72.740  1.00  0.00    -0.300 C  
ENDBRANCH  21  30
ENDBRANCH   7  20
TORSDOF 4
ENDMDL
MODEL      106
REMARK 921   NORMALIZED FREE ENERGY PREDICTED BY IDOCK:   -4.29 KCAL/MOL
REMARK 922        TOTAL FREE ENERGY PREDICTED BY IDOCK:   -6.04 KCAL/MOL
REMARK 923 INTER-LIGAND FREE ENERGY PREDICTED BY IDOCK:   -5.45 KCAL/MOL
REMARK 924 INTRA-LIGAND FREE ENERGY PREDICTED BY IDOCK:   -0.59 KCAL/MOL
REMARK 927      BINDING AFFINITY PREDICTED BY RF-SCORE:    0.00 PKD
ROOT
HETATM    1  C   UNL     1      -8.919   3.811  67.751  1.00  0.00    -0.161 C  
HETATM    2  C   UNL     1      -8.575   2.754  66.737  1.00  0.00    -0.110 C  
HETATM    3  O   UNL     1      -9.161   3.246  65.516  1.00  0.00    -0.141 OA 
HETATM    4  C   UNL     1     -10.157   4.146  65.803  1.00  0.00    -0.164 C  
HETATM    5  C   UNL     1     -10.280   4.270  67.291  1.00  0.00     0.093 C  
HETATM    6  O   UNL     1     -10.884   4.662  64.970  1.00  0.00    -0.111 OA 
HETATM    7  C   UNL     1     -10.613   5.627  67.913  1.00  0.00    -0.266 C  
HETATM    8  C   UNL     1     -10.639   7.010  73.654  1.00  0.00    -0.345 C  
HETATM    9  C   UNL     1     -10.494   5.506  69.439  1.00  0.00    -0.360 A  
HETATM   10  O   UNL     1     -11.330   7.426  72.459  1.00  0.00    -0.284 OA 
HETATM   11  C   UNL     1     -11.110   6.497  70.223  1.00  0.00    -0.392 A  
HETATM   12  C   UNL     1     -10.881   6.496  71.578  1.00  0.00    -0.246 A  
HETATM   13  C   UNL     1      -9.671   4.496  70.054  1.00  0.00    -0.283 A  
HETATM   14  C   UNL     1     -10.111   5.530  72.173  1.00  0.00    -0.186 A  
HETATM   15  C   UNL     1      -8.971   3.419  69.219  1.00  0.00    -0.117 C  
HETATM   16  H   UNL     1      -7.656   2.987  70.555  1.00  0.00     0.000 HD 
HETATM   17  O   UNL     1      -9.981   5.731  73.513  1.00  0.00    -0.163 OA 
HETATM   18  C   UNL     1      -9.522   4.507  71.454  1.00  0.00    -0.219 A  
HETATM   19  O   UNL     1      -7.623   3.232  69.637  1.00  0.00    -0.045 OA 
ENDROOT
BRANCH   7  20
HETATM   20  C   UNL     1      -9.762   6.775  67.369  1.00  0.00    -0.164 A  
HETATM   21  C   UNL     1      -7.590   7.715  66.713  1.00  0.00    -0.098 A  
HETATM   22  C   UNL     1      -8.360   6.724  67.334  1.00  0.00    -0.122 A  
HETATM   23  C   UNL     1      -9.656   8.905  66.203  1.00  0.00    -0.265 A  
HETATM   24  C   UNL     1     -10.394   7.892  66.824  1.00  0.00    -0.357 A  
HETATM   25  C   UNL     1      -8.244   8.828  66.149  1.00  0.00    -0.117 A  
BRANCH  23  26
HETATM   26  O   UNL     1     -10.251  10.019  65.654  1.00  0.00    -0.267 OA 
HETATM   27  C   UNL     1     -10.623  11.047  66.569  1.00  0.00    -0.254 C  
ENDBRANCH  23  26
BRANCH  25  28
HETATM   28  O   UNL     1      -7.640   9.846  65.447  1.00  0.00    -0.119 OA 
HETATM   29  C   UNL     1      -7.388   9.643  64.063  1.00  0.00    -0.121 C  
ENDBRANCH  25  28
BRANCH  21  30
HETATM   30  O   UNL     1      -6.228   7.610  66.599  1.00  0.00    -0.043 OA 
HETATM   31  C   UNL     1      -5.689   6.508  65.874  1.00  0.00    -0.021 C  
ENDBRANCH  21  30
ENDBRANCH   7  20
TORSDOF 4
ENDMDL
MODEL      107
REMARK 921   NORMALIZED FREE ENERGY PREDICTED BY IDOCK:   -4.26 KCAL/MOL
REMARK 922        TOTAL FREE ENERGY PREDICTED BY IDOCK:   -6.01 KCAL/MOL
REMARK 923 INTER-LIGAND FREE ENERGY PREDICTED BY IDOCK:   -6.58 KCAL/MOL
REMARK 924 INTRA-LIGAND FREE ENERGY PREDICTED BY IDOCK:    0.57 KCAL/MOL
REMARK 927      BINDING AFFINITY PREDICTED BY RF-SCORE:    0.00 PKD
ROOT
HETATM    1  C   UNL     1      -7.523  11.553  69.050  1.00  0.00    -0.073 C  
HETATM    2  C   UNL     1      -6.451  12.574  69.314  1.00  0.00    -0.104 C  
HETATM    3  O   UNL     1      -6.985  13.788  68.752  1.00  0.00    -0.098 OA 
HETATM    4  C   UNL     1      -7.948  13.488  67.819  1.00  0.00    -0.168 C  
HETATM    5  C   UNL     1      -8.073  11.999  67.717  1.00  0.00    -0.149 C  
HETATM    6  O   UNL     1      -8.514  14.313  67.121  1.00  0.00    -0.203 OA 
HETATM    7  C   UNL     1      -9.445  11.369  67.479  1.00  0.00    -0.173 C  
HETATM    8  C   UNL     1     -10.801   5.622  67.591  1.00  0.00    -0.089 C  
HETATM    9  C   UNL     1      -9.310   9.844  67.603  1.00  0.00    -0.156 A  
HETATM   10  O   UNL     1     -11.267   6.810  66.919  1.00  0.00    -0.375 OA 
HETATM   11  C   UNL     1     -10.336   9.051  67.059  1.00  0.00    -0.339 A  
HETATM   12  C   UNL     1     -10.313   7.699  67.299  1.00  0.00    -0.297 A  
HETATM   13  C   UNL     1      -8.246   9.241  68.362  1.00  0.00    -0.115 A  
HETATM   14  C   UNL     1      -9.296   7.114  68.009  1.00  0.00    -0.129 A  
HETATM   15  C   UNL     1      -7.129  10.086  68.984  1.00  0.00    -0.069 C  
HETATM   16  H   UNL     1      -6.605   8.764  70.279  1.00  0.00     0.000 HD 
HETATM   17  O   UNL     1      -9.483   5.774  68.163  1.00  0.00    -0.109 OA 
HETATM   18  C   UNL     1      -8.240   7.843  68.524  1.00  0.00    -0.127 A  
HETATM   19  O   UNL     1      -6.852   9.680  70.320  1.00  0.00    -0.077 OA 
ENDROOT
BRANCH   7  20
HETATM   20  C   UNL     1     -10.538  11.916  68.399  1.00  0.00    -0.239 A  
HETATM   21  C   UNL     1     -11.989  11.709  70.369  1.00  0.00    -0.358 A  
HETATM   22  C   UNL     1     -11.089  11.162  69.447  1.00  0.00    -0.314 A  
HETATM   23  C   UNL     1     -11.869  13.810  69.139  1.00  0.00    -0.354 A  
HETATM   24  C   UNL     1     -10.964  13.234  68.241  1.00  0.00    -0.280 A  
HETATM   25  C   UNL     1     -12.395  13.048  70.208  1.00  0.00    -0.241 A  
BRANCH  23  26
HETATM   26  O   UNL     1     -12.307  15.110  69.010  1.00  0.00    -0.157 OA 
HETATM   27  C   UNL     1     -11.398  16.124  69.433  1.00  0.00    -0.323 C  
ENDBRANCH  23  26
BRANCH  25  28
HETATM   28  O   UNL     1     -13.214  13.749  71.064  1.00  0.00    -0.258 OA 
HETATM   29  C   UNL     1     -13.185  13.408  72.443  1.00  0.00    -0.464 C  
ENDBRANCH  25  28
BRANCH  21  30
HETATM   30  O   UNL     1     -12.450  10.994  71.445  1.00  0.00    -0.360 OA 
HETATM   31  C   UNL     1     -13.069   9.733  71.208  1.00  0.00    -0.381 C  
ENDBRANCH  21  30
ENDBRANCH   7  20
TORSDOF 4
ENDMDL
MODEL      108
REMARK 921   NORMALIZED FREE ENERGY PREDICTED BY IDOCK:   -4.25 KCAL/MOL
REMARK 922        TOTAL FREE ENERGY PREDICTED BY IDOCK:   -5.99 KCAL/MOL
REMARK 923 INTER-LIGAND FREE ENERGY PREDICTED BY IDOCK:   -6.05 KCAL/MOL
REMARK 924 INTRA-LIGAND FREE ENERGY PREDICTED BY IDOCK:    0.06 KCAL/MOL
REMARK 927      BINDING AFFINITY PREDICTED BY RF-SCORE:    0.00 PKD
ROOT
HETATM    1  C   UNL     1     -10.931  14.984  69.407  1.00  0.00    -0.275 C  
HETATM    2  C   UNL     1     -10.732  15.847  70.623  1.00  0.00    -0.107 C  
HETATM    3  O   UNL     1     -11.273  15.055  71.698  1.00  0.00    -0.333 OA 
HETATM    4  C   UNL     1     -12.150  14.123  71.199  1.00  0.00    -0.314 C  
HETATM    5  C   UNL     1     -12.235  14.289  69.712  1.00  0.00    -0.390 C  
HETATM    6  O   UNL     1     -12.823  13.370  71.884  1.00  0.00    -0.311 OA 
HETATM    7  C   UNL     1     -12.393  13.057  68.821  1.00  0.00     0.140 C  
HETATM    8  C   UNL     1     -12.165  12.867  62.923  1.00  0.00     0.316 C  
HETATM    9  C   UNL     1     -12.266  13.496  67.355  1.00  0.00    -0.278 A  
HETATM   10  O   UNL     1     -12.820  12.142  63.984  1.00  0.00    -0.651 OA 
HETATM   11  C   UNL     1     -12.747  12.620  66.366  1.00  0.00     0.954 A  
HETATM   12  C   UNL     1     -12.499  12.921  65.049  1.00  0.00    -0.492 A  
HETATM   13  C   UNL     1     -11.561  14.696  66.986  1.00  0.00    -0.385 A  
HETATM   14  C   UNL     1     -11.841  14.068  64.688  1.00  0.00    -0.417 A  
HETATM   15  C   UNL     1     -11.007  15.656  68.045  1.00  0.00    -0.318 C  
HETATM   16  H   UNL     1      -9.733  16.495  66.874  1.00  0.00     0.000 HD 
HETATM   17  O   UNL     1     -11.667  14.157  63.341  1.00  0.00     0.105 OA 
HETATM   18  C   UNL     1     -11.390  14.985  65.619  1.00  0.00    -0.297 A  
HETATM   19  O   UNL     1      -9.686  16.076  67.725  1.00  0.00    -0.219 OA 
ENDROOT
BRANCH   7  20
HETATM   20  C   UNL     1     -11.420  11.927  69.160  1.00  0.00    -0.356 A  
HETATM   21  C   UNL     1      -9.235  10.832  68.922  1.00  0.00    -0.173 A  
HETATM   22  C   UNL     1     -10.179  11.783  68.518  1.00  0.00    -0.215 A  
HETATM   23  C   UNL     1     -10.820  10.072  70.611  1.00  0.00    -0.297 A  
HETATM   24  C   UNL     1     -11.737  11.040  70.187  1.00  0.00    -0.442 A  
HETATM   25  C   UNL     1      -9.561   9.956  69.975  1.00  0.00    -0.214 A  
BRANCH  23  26
HETATM   26  O   UNL     1     -11.103   9.183  71.623  1.00  0.00    -0.332 OA 
HETATM   27  C   UNL     1     -12.374   9.331  72.253  1.00  0.00    -0.274 C  
ENDBRANCH  23  26
BRANCH  25  28
HETATM   28  O   UNL     1      -8.721   9.018  70.532  1.00  0.00    -0.166 OA 
HETATM   29  C   UNL     1      -7.374   9.394  70.779  1.00  0.00    -0.111 C  
ENDBRANCH  25  28
BRANCH  21  30
HETATM   30  O   UNL     1      -7.989  10.760  68.354  1.00  0.00    -0.111 OA 
HETATM   31  C   UNL     1      -7.129  11.892  68.457  1.00  0.00    -0.089 C  
ENDBRANCH  21  30
ENDBRANCH   7  20
TORSDOF 4
ENDMDL
MODEL      109
REMARK 921   NORMALIZED FREE ENERGY PREDICTED BY IDOCK:   -4.18 KCAL/MOL
REMARK 922        TOTAL FREE ENERGY PREDICTED BY IDOCK:   -5.91 KCAL/MOL
REMARK 923 INTER-LIGAND FREE ENERGY PREDICTED BY IDOCK:   -5.23 KCAL/MOL
REMARK 924 INTRA-LIGAND FREE ENERGY PREDICTED BY IDOCK:   -0.68 KCAL/MOL
REMARK 927      BINDING AFFINITY PREDICTED BY RF-SCORE:    0.00 PKD
ROOT
HETATM    1  C   UNL     1     -10.567   7.284  69.606  1.00  0.00    -0.246 C  
HETATM    2  C   UNL     1     -10.599   5.829  69.987  1.00  0.00    -0.310 C  
HETATM    3  O   UNL     1     -10.462   5.141  68.729  1.00  0.00    -0.148 OA 
HETATM    4  C   UNL     1     -10.836   5.969  67.699  1.00  0.00    -0.295 C  
HETATM    5  C   UNL     1     -11.270   7.284  68.271  1.00  0.00     0.192 C  
HETATM    6  O   UNL     1     -10.904   5.629  66.529  1.00  0.00    -0.284 OA 
HETATM    7  C   UNL     1     -10.959   8.577  67.516  1.00  0.00     0.095 C  
HETATM    8  C   UNL     1     -11.780  14.106  69.421  1.00  0.00    -0.313 C  
HETATM    9  C   UNL     1     -11.345   9.766  68.407  1.00  0.00     0.027 A  
HETATM   10  O   UNL     1     -11.776  13.407  68.160  1.00  0.00    -0.320 OA 
HETATM   11  C   UNL     1     -11.503  11.020  67.791  1.00  0.00    -0.339 A  
HETATM   12  C   UNL     1     -11.690  12.122  68.589  1.00  0.00    -0.330 A  
HETATM   13  C   UNL     1     -11.413   9.644  69.840  1.00  0.00    -0.144 A  
HETATM   14  C   UNL     1     -11.770  12.013  69.954  1.00  0.00    -0.299 A  
HETATM   15  C   UNL     1     -11.221   8.292  70.537  1.00  0.00    -0.239 C  
HETATM   16  H   UNL     1     -10.778   9.040  72.253  1.00  0.00     0.000 HD 
HETATM   17  O   UNL     1     -11.920  13.224  70.557  1.00  0.00    -0.325 OA 
HETATM   18  C   UNL     1     -11.668  10.798  70.605  1.00  0.00    -0.442 A  
HETATM   19  O   UNL     1     -10.370   8.409  71.672  1.00  0.00    -0.207 OA 
ENDROOT
BRANCH   7  20
HETATM   20  C   UNL     1      -9.510   8.675  67.038  1.00  0.00    -0.221 A  
HETATM   21  C   UNL     1      -7.096   8.508  67.456  1.00  0.00    -0.080 A  
HETATM   22  C   UNL     1      -8.418   8.553  67.913  1.00  0.00    -0.130 A  
HETATM   23  C   UNL     1      -7.940   8.790  65.187  1.00  0.00    -0.125 A  
HETATM   24  C   UNL     1      -9.250   8.823  65.677  1.00  0.00    -0.244 A  
HETATM   25  C   UNL     1      -6.850   8.639  66.075  1.00  0.00    -0.065 A  
BRANCH  23  26
HETATM   26  O   UNL     1      -7.651   8.933  63.848  1.00  0.00    -0.111 OA 
HETATM   27  C   UNL     1      -8.502   9.808  63.111  1.00  0.00    -0.179 C  
ENDBRANCH  23  26
BRANCH  25  28
HETATM   28  O   UNL     1      -5.620   8.546  65.465  1.00  0.00    -0.042 OA 
HETATM   29  C   UNL     1      -5.135   7.251  65.137  1.00  0.00    -0.028 C  
ENDBRANCH  25  28
BRANCH  21  30
HETATM   30  O   UNL     1      -6.041   8.294  68.306  1.00  0.00    -0.044 OA 
HETATM   31  C   UNL     1      -5.441   9.420  68.941  1.00  0.00    -0.037 C  
ENDBRANCH  21  30
ENDBRANCH   7  20
TORSDOF 4
ENDMDL
MODEL      110
REMARK 921   NORMALIZED FREE ENERGY PREDICTED BY IDOCK:   -4.17 KCAL/MOL
REMARK 922        TOTAL FREE ENERGY PREDICTED BY IDOCK:   -5.90 KCAL/MOL
REMARK 923 INTER-LIGAND FREE ENERGY PREDICTED BY IDOCK:   -6.48 KCAL/MOL
REMARK 924 INTRA-LIGAND FREE ENERGY PREDICTED BY IDOCK:    0.58 KCAL/MOL
REMARK 927      BINDING AFFINITY PREDICTED BY RF-SCORE:    0.00 PKD
ROOT
HETATM    1  C   UNL     1      -7.609   9.215  66.708  1.00  0.00    -0.087 C  
HETATM    2  C   UNL     1      -6.756   9.819  65.626  1.00  0.00    -0.092 C  
HETATM    3  O   UNL     1      -7.712  10.403  64.720  1.00  0.00    -0.139 OA 
HETATM    4  C   UNL     1      -8.939   9.808  64.885  1.00  0.00    -0.216 C  
HETATM    5  C   UNL     1      -8.823   8.751  65.941  1.00  0.00    -0.222 C  
HETATM    6  O   UNL     1      -9.919  10.040  64.196  1.00  0.00    -0.194 OA 
HETATM    7  C   UNL     1      -9.988   8.510  66.902  1.00  0.00    -0.335 C  
HETATM    8  C   UNL     1     -10.028   5.003  71.653  1.00  0.00    -0.187 C  
HETATM    9  C   UNL     1      -9.533   7.516  67.980  1.00  0.00    -0.149 A  
HETATM   10  O   UNL     1     -10.976   5.476  70.675  1.00  0.00    -0.233 OA 
HETATM   11  C   UNL     1     -10.528   6.866  68.732  1.00  0.00    -0.223 A  
HETATM   12  C   UNL     1     -10.141   6.099  69.803  1.00  0.00    -0.181 A  
HETATM   13  C   UNL     1      -8.142   7.349  68.313  1.00  0.00    -0.125 A  
HETATM   14  C   UNL     1      -8.819   5.923  70.118  1.00  0.00    -0.142 A  
HETATM   15  C   UNL     1      -7.040   8.065  67.524  1.00  0.00    -0.080 C  
HETATM   16  H   UNL     1      -5.707   7.910  68.902  1.00  0.00     0.000 HD 
HETATM   17  O   UNL     1      -8.654   5.159  71.233  1.00  0.00    -0.123 OA 
HETATM   18  C   UNL     1      -7.801   6.502  69.384  1.00  0.00    -0.106 A  
HETATM   19  O   UNL     1      -6.063   8.629  68.391  1.00  0.00    -0.048 OA 
ENDROOT
BRANCH   7  20
HETATM   20  C   UNL     1     -10.552   9.792  67.515  1.00  0.00    -0.335 A  
HETATM   21  C   UNL     1     -11.542  12.028  67.284  1.00  0.00    -0.313 A  
HETATM   22  C   UNL     1     -10.902  10.908  66.738  1.00  0.00    -0.283 A  
HETATM   23  C   UNL     1     -11.424  10.948  69.466  1.00  0.00    -0.301 A  
HETATM   24  C   UNL     1     -10.794   9.843  68.887  1.00  0.00    -0.239 A  
HETATM   25  C   UNL     1     -11.798  12.056  68.669  1.00  0.00    -0.311 A  
BRANCH  23  26
HETATM   26  O   UNL     1     -11.678  11.027  70.818  1.00  0.00    -0.313 OA 
HETATM   27  C   UNL     1     -12.900  10.444  71.262  1.00  0.00    -0.433 C  
ENDBRANCH  23  26
BRANCH  25  28
HETATM   28  O   UNL     1     -12.476  13.046  69.342  1.00  0.00    -0.058 OA 
HETATM   29  C   UNL     1     -11.837  14.305  69.497  1.00  0.00    -0.329 C  
ENDBRANCH  25  28
BRANCH  21  30
HETATM   30  O   UNL     1     -11.966  13.073  66.503  1.00  0.00    -0.393 OA 
HETATM   31  C   UNL     1     -11.383  13.237  65.213  1.00  0.00    -0.295 C  
ENDBRANCH  21  30
ENDBRANCH   7  20
TORSDOF 4
ENDMDL
MODEL      111
REMARK 921   NORMALIZED FREE ENERGY PREDICTED BY IDOCK:   -4.16 KCAL/MOL
REMARK 922        TOTAL FREE ENERGY PREDICTED BY IDOCK:   -5.89 KCAL/MOL
REMARK 923 INTER-LIGAND FREE ENERGY PREDICTED BY IDOCK:   -5.76 KCAL/MOL
REMARK 924 INTRA-LIGAND FREE ENERGY PREDICTED BY IDOCK:   -0.13 KCAL/MOL
REMARK 927      BINDING AFFINITY PREDICTED BY RF-SCORE:    0.00 PKD
ROOT
HETATM    1  C   UNL     1     -10.866  11.840  65.643  1.00  0.00    -0.342 C  
HETATM    2  C   UNL     1     -12.151  12.597  65.836  1.00  0.00    -0.396 C  
HETATM    3  O   UNL     1     -12.323  12.623  67.266  1.00  0.00    -0.352 OA 
HETATM    4  C   UNL     1     -11.601  11.607  67.844  1.00  0.00    -0.298 C  
HETATM    5  C   UNL     1     -10.913  10.831  66.763  1.00  0.00    -0.214 C  
HETATM    6  O   UNL     1     -11.623  11.333  69.032  1.00  0.00    -0.260 OA 
HETATM    7  C   UNL     1      -9.516  10.260  67.013  1.00  0.00    -0.191 C  
HETATM    8  C   UNL     1      -5.964   7.668  63.072  1.00  0.00    -0.055 C  
HETATM    9  C   UNL     1      -8.983   9.682  65.694  1.00  0.00    -0.208 A  
HETATM   10  O   UNL     1      -6.214   7.588  64.489  1.00  0.00    -0.040 OA 
HETATM   11  C   UNL     1      -7.904   8.784  65.764  1.00  0.00    -0.099 A  
HETATM   12  C   UNL     1      -7.311   8.381  64.592  1.00  0.00    -0.093 A  
HETATM   13  C   UNL     1      -9.472  10.137  64.419  1.00  0.00    -0.368 A  
HETATM   14  C   UNL     1      -7.779   8.799  63.373  1.00  0.00    -0.132 A  
HETATM   15  C   UNL     1     -10.633  11.133  64.317  1.00  0.00    -0.357 C  
HETATM   16  H   UNL     1     -10.216  11.708  62.529  1.00  0.00     0.000 HD 
HETATM   17  O   UNL     1      -7.031   8.315  62.343  1.00  0.00    -0.090 OA 
HETATM   18  C   UNL     1      -8.866   9.643  63.248  1.00  0.00    -0.254 A  
HETATM   19  O   UNL     1     -10.362  12.149  63.357  1.00  0.00    -0.437 OA 
ENDROOT
BRANCH   7  20
HETATM   20  C   UNL     1      -8.543  11.269  67.623  1.00  0.00    -0.124 A  
HETATM   21  C   UNL     1      -7.646  13.548  67.803  1.00  0.00    -0.162 A  
HETATM   22  C   UNL     1      -8.437  12.590  67.159  1.00  0.00    -0.186 A  
HETATM   23  C   UNL     1      -6.967  11.824  69.387  1.00  0.00    -0.026 A  
HETATM   24  C   UNL     1      -7.774  10.895  68.724  1.00  0.00    -0.129 A  
HETATM   25  C   UNL     1      -6.890  13.160  68.927  1.00  0.00    -0.103 A  
BRANCH  23  26
HETATM   26  O   UNL     1      -6.197  11.485  70.478  1.00  0.00    -0.293 OA 
HETATM   27  C   UNL     1      -6.329  10.145  70.947  1.00  0.00     0.005 C  
ENDBRANCH  23  26
BRANCH  25  28
HETATM   28  O   UNL     1      -6.122  13.993  69.708  1.00  0.00    -0.113 OA 
HETATM   29  C   UNL     1      -6.712  15.198  70.177  1.00  0.00    -0.072 C  
ENDBRANCH  25  28
BRANCH  21  30
HETATM   30  O   UNL     1      -7.621  14.859  67.401  1.00  0.00    -0.181 OA 
HETATM   31  C   UNL     1      -8.847  15.585  67.378  1.00  0.00    -0.190 C  
ENDBRANCH  21  30
ENDBRANCH   7  20
TORSDOF 4
ENDMDL
MODEL      112
REMARK 921   NORMALIZED FREE ENERGY PREDICTED BY IDOCK:   -4.16 KCAL/MOL
REMARK 922        TOTAL FREE ENERGY PREDICTED BY IDOCK:   -5.89 KCAL/MOL
REMARK 923 INTER-LIGAND FREE ENERGY PREDICTED BY IDOCK:   -5.19 KCAL/MOL
REMARK 924 INTRA-LIGAND FREE ENERGY PREDICTED BY IDOCK:   -0.69 KCAL/MOL
REMARK 927      BINDING AFFINITY PREDICTED BY RF-SCORE:    0.00 PKD
ROOT
HETATM    1  C   UNL     1      -9.003   8.498  69.924  1.00  0.00    -0.145 C  
HETATM    2  C   UNL     1      -8.737   7.905  71.280  1.00  0.00    -0.134 C  
HETATM    3  O   UNL     1      -9.381   6.617  71.225  1.00  0.00    -0.158 OA 
HETATM    4  C   UNL     1     -10.343   6.617  70.245  1.00  0.00    -0.202 C  
HETATM    5  C   UNL     1     -10.380   7.971  69.605  1.00  0.00    -0.220 C  
HETATM    6  O   UNL     1     -11.106   5.690  70.026  1.00  0.00    -0.310 OA 
HETATM    7  C   UNL     1     -10.652   8.092  68.105  1.00  0.00    -0.174 C  
HETATM    8  C   UNL     1     -10.330  12.978  64.804  1.00  0.00    -0.336 C  
HETATM    9  C   UNL     1     -10.450   9.556  67.690  1.00  0.00    -0.321 A  
HETATM   10  O   UNL     1     -11.080  11.746  64.807  1.00  0.00    -0.309 OA 
HETATM   11  C   UNL     1     -11.003   9.970  66.465  1.00  0.00     0.110 A  
HETATM   12  C   UNL     1     -10.698  11.227  66.002  1.00  0.00    -0.242 A  
HETATM   13  C   UNL     1      -9.612  10.447  68.450  1.00  0.00    -0.153 A  
HETATM   14  C   UNL     1      -9.913  12.086  66.726  1.00  0.00    -0.201 A  
HETATM   15  C   UNL     1      -8.979  10.011  69.777  1.00  0.00    -0.185 C  
HETATM   16  H   UNL     1      -7.600  11.351  69.762  1.00  0.00     0.000 HD 
HETATM   17  O   UNL     1      -9.704  13.264  66.074  1.00  0.00    -0.276 OA 
HETATM   18  C   UNL     1      -9.384  11.745  67.957  1.00  0.00    -0.184 A  
HETATM   19  O   UNL     1      -7.614  10.405  69.855  1.00  0.00    -0.159 OA 
ENDROOT
BRANCH   7  20
HETATM   20  C   UNL     1      -9.813   7.140  67.251  1.00  0.00    -0.217 A  
HETATM   21  C   UNL     1      -9.574   5.077  65.941  1.00  0.00    -0.164 A  
HETATM   22  C   UNL     1     -10.288   5.887  66.832  1.00  0.00    -0.304 A  
HETATM   23  C   UNL     1      -7.811   6.760  65.928  1.00  0.00    -0.103 A  
HETATM   24  C   UNL     1      -8.555   7.548  66.812  1.00  0.00    -0.127 A  
HETATM   25  C   UNL     1      -8.312   5.512  65.490  1.00  0.00    -0.136 A  
BRANCH  23  26
HETATM   26  O   UNL     1      -6.566   7.137  65.475  1.00  0.00    -0.046 OA 
HETATM   27  C   UNL     1      -5.515   7.117  66.438  1.00  0.00    -0.023 C  
ENDBRANCH  23  26
BRANCH  25  28
HETATM   28  O   UNL     1      -7.522   4.868  64.565  1.00  0.00    -0.068 OA 
HETATM   29  C   UNL     1      -6.769   3.744  64.999  1.00  0.00    -0.048 C  
ENDBRANCH  25  28
BRANCH  21  30
HETATM   30  O   UNL     1     -10.086   3.898  65.462  1.00  0.00    -0.158 OA 
HETATM   31  C   UNL     1     -10.770   3.914  64.212  1.00  0.00    -0.199 C  
ENDBRANCH  21  30
ENDBRANCH   7  20
TORSDOF 4
ENDMDL
MODEL      113
REMARK 921   NORMALIZED FREE ENERGY PREDICTED BY IDOCK:   -4.15 KCAL/MOL
REMARK 922        TOTAL FREE ENERGY PREDICTED BY IDOCK:   -5.87 KCAL/MOL
REMARK 923 INTER-LIGAND FREE ENERGY PREDICTED BY IDOCK:   -5.73 KCAL/MOL
REMARK 924 INTRA-LIGAND FREE ENERGY PREDICTED BY IDOCK:   -0.14 KCAL/MOL
REMARK 927      BINDING AFFINITY PREDICTED BY RF-SCORE:    0.00 PKD
ROOT
HETATM    1  C   UNL     1      -9.349  12.127  67.879  1.00  0.00    -0.192 C  
HETATM    2  C   UNL     1      -8.701  13.312  67.217  1.00  0.00    -0.214 C  
HETATM    3  O   UNL     1      -7.315  12.932  67.111  1.00  0.00    -0.108 OA 
HETATM    4  C   UNL     1      -7.028  11.948  68.025  1.00  0.00    -0.078 C  
HETATM    5  C   UNL     1      -8.266  11.646  68.813  1.00  0.00    -0.055 C  
HETATM    6  O   UNL     1      -5.914  11.490  68.221  1.00  0.00    -0.046 OA 
HETATM    7  C   UNL     1      -8.553  10.209  69.251  1.00  0.00    -0.180 C  
HETATM    8  C   UNL     1     -13.475   8.172  71.801  1.00  0.00    -0.350 C  
HETATM    9  C   UNL     1      -9.958  10.160  69.870  1.00  0.00    -0.250 A  
HETATM   10  O   UNL     1     -12.067   7.858  71.808  1.00  0.00    -0.280 OA 
HETATM   11  C   UNL     1     -10.280   9.050  70.671  1.00  0.00    -0.284 A  
HETATM   12  C   UNL     1     -11.577   8.908  71.101  1.00  0.00    -0.300 A  
HETATM   13  C   UNL     1     -10.962  11.138  69.540  1.00  0.00    -0.276 A  
HETATM   14  C   UNL     1     -12.536   9.842  70.804  1.00  0.00    -0.256 A  
HETATM   15  C   UNL     1     -10.641  12.343  68.650  1.00  0.00    -0.218 C  
HETATM   16  H   UNL     1     -12.469  12.694  68.163  1.00  0.00     0.000 HD 
HETATM   17  O   UNL     1     -13.758   9.495  71.293  1.00  0.00    -0.336 OA 
HETATM   18  C   UNL     1     -12.260  10.974  70.060  1.00  0.00    -0.418 A  
HETATM   19  O   UNL     1     -11.661  12.559  67.681  1.00  0.00    -0.340 OA 
ENDROOT
BRANCH   7  20
HETATM   20  C   UNL     1      -8.393   9.183  68.128  1.00  0.00    -0.120 A  
HETATM   21  C   UNL     1      -7.970   6.889  67.361  1.00  0.00    -0.112 A  
HETATM   22  C   UNL     1      -7.985   7.861  68.368  1.00  0.00    -0.122 A  
HETATM   23  C   UNL     1      -8.711   8.600  65.791  1.00  0.00    -0.181 A  
HETATM   24  C   UNL     1      -8.724   9.544  66.823  1.00  0.00    -0.138 A  
HETATM   25  C   UNL     1      -8.326   7.264  66.051  1.00  0.00    -0.140 A  
BRANCH  23  26
HETATM   26  O   UNL     1      -9.034   8.925  64.492  1.00  0.00    -0.113 OA 
HETATM   27  C   UNL     1      -9.253  10.309  64.227  1.00  0.00    -0.257 C  
ENDBRANCH  23  26
BRANCH  25  28
HETATM   28  O   UNL     1      -8.427   6.416  64.971  1.00  0.00    -0.119 OA 
HETATM   29  C   UNL     1      -7.231   6.043  64.302  1.00  0.00    -0.057 C  
ENDBRANCH  25  28
BRANCH  21  30
HETATM   30  O   UNL     1      -7.662   5.578  67.622  1.00  0.00    -0.091 OA 
HETATM   31  C   UNL     1      -8.698   4.718  68.089  1.00  0.00    -0.102 C  
ENDBRANCH  21  30
ENDBRANCH   7  20
TORSDOF 4
ENDMDL
MODEL      114
REMARK 921   NORMALIZED FREE ENERGY PREDICTED BY IDOCK:   -4.15 KCAL/MOL
REMARK 922        TOTAL FREE ENERGY PREDICTED BY IDOCK:   -5.87 KCAL/MOL
REMARK 923 INTER-LIGAND FREE ENERGY PREDICTED BY IDOCK:   -5.18 KCAL/MOL
REMARK 924 INTRA-LIGAND FREE ENERGY PREDICTED BY IDOCK:   -0.69 KCAL/MOL
REMARK 927      BINDING AFFINITY PREDICTED BY RF-SCORE:    0.00 PKD
ROOT
HETATM    1  C   UNL     1      -9.054   8.492  69.733  1.00  0.00    -0.153 C  
HETATM    2  C   UNL     1      -8.843   7.831  71.067  1.00  0.00    -0.141 C  
HETATM    3  O   UNL     1      -9.460   6.538  70.913  1.00  0.00    -0.170 OA 
HETATM    4  C   UNL     1     -10.374   6.575  69.888  1.00  0.00    -0.191 C  
HETATM    5  C   UNL     1     -10.404   7.961  69.319  1.00  0.00    -0.222 C  
HETATM    6  O   UNL     1     -11.109   5.650  69.583  1.00  0.00    -0.328 OA 
HETATM    7  C   UNL     1     -10.605   8.157  67.816  1.00  0.00    -0.233 C  
HETATM    8  C   UNL     1     -10.212  13.217  64.796  1.00  0.00    -0.304 C  
HETATM    9  C   UNL     1     -10.410   9.645  67.488  1.00  0.00    -0.297 A  
HETATM   10  O   UNL     1     -10.939  11.975  64.697  1.00  0.00    -0.295 OA 
HETATM   11  C   UNL     1     -10.910  10.115  66.261  1.00  0.00     0.050 A  
HETATM   12  C   UNL     1     -10.605  11.399  65.881  1.00  0.00    -0.263 A  
HETATM   13  C   UNL     1      -9.626  10.506  68.335  1.00  0.00    -0.164 A  
HETATM   14  C   UNL     1      -9.872  12.231  66.687  1.00  0.00    -0.220 A  
HETATM   15  C   UNL     1      -9.051  10.010  69.667  1.00  0.00    -0.210 C  
HETATM   16  H   UNL     1      -7.696  11.370  69.791  1.00  0.00     0.000 HD 
HETATM   17  O   UNL     1      -9.654  13.444  66.109  1.00  0.00    -0.268 OA 
HETATM   18  C   UNL     1      -9.398  11.833  67.923  1.00  0.00    -0.184 A  
HETATM   19  O   UNL     1      -7.698  10.421  69.833  1.00  0.00    -0.155 OA 
ENDROOT
BRANCH   7  20
HETATM   20  C   UNL     1      -9.709   7.266  66.956  1.00  0.00    -0.235 A  
HETATM   21  C   UNL     1      -7.513   6.702  66.011  1.00  0.00    -0.081 A  
HETATM   22  C   UNL     1      -8.369   7.583  66.684  1.00  0.00    -0.127 A  
HETATM   23  C   UNL     1      -9.387   5.158  65.790  1.00  0.00    -0.154 A  
HETATM   24  C   UNL     1     -10.211   6.058  66.472  1.00  0.00    -0.200 A  
HETATM   25  C   UNL     1      -8.030   5.477  65.547  1.00  0.00    -0.111 A  
BRANCH  23  26
HETATM   26  O   UNL     1      -9.853   3.957  65.302  1.00  0.00    -0.183 OA 
HETATM   27  C   UNL     1     -10.661   4.027  64.130  1.00  0.00    -0.163 C  
ENDBRANCH  23  26
BRANCH  25  28
HETATM   28  O   UNL     1      -7.306   4.479  64.934  1.00  0.00    -0.069 OA 
HETATM   29  C   UNL     1      -7.037   4.608  63.545  1.00  0.00    -0.048 C  
ENDBRANCH  25  28
BRANCH  21  30
HETATM   30  O   UNL     1      -6.182   6.978  65.833  1.00  0.00    -0.035 OA 
HETATM   31  C   UNL     1      -5.426   7.428  66.954  1.00  0.00    -0.023 C  
ENDBRANCH  21  30
ENDBRANCH   7  20
TORSDOF 4
ENDMDL
MODEL      115
REMARK 921   NORMALIZED FREE ENERGY PREDICTED BY IDOCK:   -4.13 KCAL/MOL
REMARK 922        TOTAL FREE ENERGY PREDICTED BY IDOCK:   -5.85 KCAL/MOL
REMARK 923 INTER-LIGAND FREE ENERGY PREDICTED BY IDOCK:   -5.08 KCAL/MOL
REMARK 924 INTRA-LIGAND FREE ENERGY PREDICTED BY IDOCK:   -0.77 KCAL/MOL
REMARK 927      BINDING AFFINITY PREDICTED BY RF-SCORE:    0.00 PKD
ROOT
HETATM    1  C   UNL     1     -10.641  10.249  68.847  1.00  0.00    -0.242 C  
HETATM    2  C   UNL     1     -11.479  11.445  69.207  1.00  0.00    -0.303 C  
HETATM    3  O   UNL     1     -12.011  11.115  70.505  1.00  0.00    -0.336 OA 
HETATM    4  C   UNL     1     -11.982   9.754  70.690  1.00  0.00    -0.259 C  
HETATM    5  C   UNL     1     -11.422   9.112  69.457  1.00  0.00     0.240 C  
HETATM    6  O   UNL     1     -12.446   9.178  71.660  1.00  0.00    -0.318 OA 
HETATM    7  C   UNL     1     -10.531   7.875  69.586  1.00  0.00    -0.226 C  
HETATM    8  C   UNL     1      -7.487   5.208  65.286  1.00  0.00    -0.073 C  
HETATM    9  C   UNL     1      -9.954   7.544  68.202  1.00  0.00    -0.198 A  
HETATM   10  O   UNL     1      -8.129   4.833  66.522  1.00  0.00    -0.106 OA 
HETATM   11  C   UNL     1      -9.426   6.256  68.006  1.00  0.00    -0.116 A  
HETATM   12  C   UNL     1      -8.764   5.993  66.832  1.00  0.00    -0.112 A  
HETATM   13  C   UNL     1      -9.828   8.548  67.178  1.00  0.00    -0.269 A  
HETATM   14  C   UNL     1      -8.652   6.939  65.845  1.00  0.00    -0.145 A  
HETATM   15  C   UNL     1     -10.375   9.966  67.377  1.00  0.00    -0.246 C  
HETATM   16  H   UNL     1      -9.276  10.771  66.019  1.00  0.00     0.000 HD 
HETATM   17  O   UNL     1      -7.929   6.488  64.783  1.00  0.00    -0.114 OA 
HETATM   18  C   UNL     1      -9.193   8.204  65.970  1.00  0.00    -0.207 A  
HETATM   19  O   UNL     1      -9.443  10.948  66.937  1.00  0.00    -0.173 OA 
ENDROOT
BRANCH   7  20
HETATM   20  C   UNL     1      -9.431   8.020  70.639  1.00  0.00    -0.167 A  
HETATM   21  C   UNL     1      -7.388   9.095  71.476  1.00  0.00     0.074 A  
HETATM   22  C   UNL     1      -8.322   8.861  70.459  1.00  0.00    -0.177 A  
HETATM   23  C   UNL     1      -8.638   7.550  72.887  1.00  0.00    -0.130 A  
HETATM   24  C   UNL     1      -9.557   7.346  71.852  1.00  0.00    -0.174 A  
HETATM   25  C   UNL     1      -7.540   8.423  72.704  1.00  0.00    -0.077 A  
BRANCH  23  26
HETATM   26  O   UNL     1      -8.736   6.900  74.098  1.00  0.00    -0.144 OA 
HETATM   27  C   UNL     1     -10.035   6.439  74.459  1.00  0.00    -0.351 C  
ENDBRANCH  23  26
BRANCH  25  28
HETATM   28  O   UNL     1      -6.752   8.597  73.819  1.00  0.00    -0.247 OA 
HETATM   29  C   UNL     1      -5.518   7.895  73.880  1.00  0.00    -0.053 C  
ENDBRANCH  25  28
BRANCH  21  30
HETATM   30  O   UNL     1      -6.361   9.992  71.325  1.00  0.00    -0.304 OA 
HETATM   31  C   UNL     1      -6.261  10.710  70.099  1.00  0.00    -0.125 C  
ENDBRANCH  21  30
ENDBRANCH   7  20
TORSDOF 4
ENDMDL
MODEL      116
REMARK 921   NORMALIZED FREE ENERGY PREDICTED BY IDOCK:   -4.13 KCAL/MOL
REMARK 922        TOTAL FREE ENERGY PREDICTED BY IDOCK:   -5.84 KCAL/MOL
REMARK 923 INTER-LIGAND FREE ENERGY PREDICTED BY IDOCK:   -7.57 KCAL/MOL
REMARK 924 INTRA-LIGAND FREE ENERGY PREDICTED BY IDOCK:    1.73 KCAL/MOL
REMARK 927      BINDING AFFINITY PREDICTED BY RF-SCORE:    0.00 PKD
ROOT
HETATM    1  C   UNL     1     -10.506  11.338  65.394  1.00  0.00    -0.326 C  
HETATM    2  C   UNL     1     -10.409   9.941  64.844  1.00  0.00     0.425 C  
HETATM    3  O   UNL     1      -9.694   9.218  65.865  1.00  0.00    -0.265 OA 
HETATM    4  C   UNL     1      -8.983  10.094  66.648  1.00  0.00    -0.140 C  
HETATM    5  C   UNL     1      -9.201  11.485  66.136  1.00  0.00    -0.230 C  
HETATM    6  O   UNL     1      -8.218   9.761  67.539  1.00  0.00    -0.113 OA 
HETATM    7  C   UNL     1      -9.287  12.651  67.122  1.00  0.00    -0.210 C  
HETATM    8  C   UNL     1     -10.739  18.246  65.913  1.00  0.00    -0.144 C  
HETATM    9  C   UNL     1      -9.694  13.914  66.349  1.00  0.00    -0.309 A  
HETATM   10  O   UNL     1      -9.913  17.545  66.865  1.00  0.00    -0.288 OA 
HETATM   11  C   UNL     1      -9.469  15.157  66.965  1.00  0.00    -0.237 A  
HETATM   12  C   UNL     1      -9.971  16.285  66.362  1.00  0.00    -0.300 A  
HETATM   13  C   UNL     1     -10.405  13.836  65.099  1.00  0.00    -0.391 A  
HETATM   14  C   UNL     1     -10.636  16.222  65.165  1.00  0.00    -0.304 A  
HETATM   15  C   UNL     1     -10.683  12.491  64.419  1.00  0.00    -0.350 C  
HETATM   16  H   UNL     1     -12.132  13.138  63.332  1.00  0.00     0.000 HD 
HETATM   17  O   UNL     1     -11.080  17.444  64.760  1.00  0.00    -0.973 OA 
HETATM   18  C   UNL     1     -10.842  15.031  64.496  1.00  0.00    -0.152 A  
HETATM   19  O   UNL     1     -12.021  12.417  63.941  1.00  0.00    -0.404 OA 
ENDROOT
BRANCH   7  20
HETATM   20  C   UNL     1     -10.220  12.385  68.304  1.00  0.00    -0.230 A  
HETATM   21  C   UNL     1     -11.879  13.151  69.945  1.00  0.00    -0.308 A  
HETATM   22  C   UNL     1     -10.925  13.411  68.953  1.00  0.00    -0.284 A  
HETATM   23  C   UNL     1     -11.376  10.777  69.712  1.00  0.00    -0.300 A  
HETATM   24  C   UNL     1     -10.437  11.072  68.719  1.00  0.00    -0.222 A  
HETATM   25  C   UNL     1     -12.101  11.818  70.339  1.00  0.00    -0.352 A  
BRANCH  23  26
HETATM   26  O   UNL     1     -11.614   9.491  70.142  1.00  0.00    -0.215 OA 
HETATM   27  C   UNL     1     -10.742   8.486  69.631  1.00  0.00    -0.197 C  
ENDBRANCH  23  26
BRANCH  25  28
HETATM   28  O   UNL     1     -13.048  11.394  71.244  1.00  0.00    -0.342 OA 
HETATM   29  C   UNL     1     -12.633  10.515  72.280  1.00  0.00     0.297 C  
ENDBRANCH  25  28
BRANCH  21  30
HETATM   30  O   UNL     1     -12.631  14.150  70.507  1.00  0.00    -0.333 OA 
HETATM   31  C   UNL     1     -12.082  15.464  70.563  1.00  0.00    -0.371 C  
ENDBRANCH  21  30
ENDBRANCH   7  20
TORSDOF 4
ENDMDL
MODEL      117
REMARK 921   NORMALIZED FREE ENERGY PREDICTED BY IDOCK:   -4.13 KCAL/MOL
REMARK 922        TOTAL FREE ENERGY PREDICTED BY IDOCK:   -5.84 KCAL/MOL
REMARK 923 INTER-LIGAND FREE ENERGY PREDICTED BY IDOCK:   -5.20 KCAL/MOL
REMARK 924 INTRA-LIGAND FREE ENERGY PREDICTED BY IDOCK:   -0.65 KCAL/MOL
REMARK 927      BINDING AFFINITY PREDICTED BY RF-SCORE:    0.00 PKD
ROOT
HETATM    1  C   UNL     1     -10.051   7.662  68.447  1.00  0.00    -0.208 C  
HETATM    2  C   UNL     1     -10.807   7.438  69.727  1.00  0.00    -0.234 C  
HETATM    3  O   UNL     1     -10.305   8.462  70.607  1.00  0.00    -0.192 OA 
HETATM    4  C   UNL     1      -9.076   8.893  70.171  1.00  0.00    -0.176 C  
HETATM    5  C   UNL     1      -8.702   8.120  68.944  1.00  0.00    -0.137 C  
HETATM    6  O   UNL     1      -8.374   9.695  70.766  1.00  0.00    -0.264 OA 
HETATM    7  C   UNL     1      -7.936   8.813  67.817  1.00  0.00    -0.106 C  
HETATM    8  C   UNL     1      -6.682   6.618  62.480  1.00  0.00    -0.042 C  
HETATM    9  C   UNL     1      -7.850   7.851  66.622  1.00  0.00    -0.102 A  
HETATM   10  O   UNL     1      -6.094   7.552  63.408  1.00  0.00    -0.052 OA 
HETATM   11  C   UNL     1      -6.885   8.119  65.636  1.00  0.00    -0.066 A  
HETATM   12  C   UNL     1      -6.900   7.368  64.486  1.00  0.00    -0.047 A  
HETATM   13  C   UNL     1      -8.806   6.790  66.439  1.00  0.00    -0.153 A  
HETATM   14  C   UNL     1      -7.797   6.346  64.309  1.00  0.00    -0.114 A  
HETATM   15  C   UNL     1      -9.882   6.493  67.490  1.00  0.00    -0.124 C  
HETATM   16  H   UNL     1     -11.047   5.547  66.287  1.00  0.00     0.000 HD 
HETATM   17  O   UNL     1      -7.665   5.753  63.091  1.00  0.00    -0.077 OA 
HETATM   18  C   UNL     1      -8.734   6.012  65.268  1.00  0.00    -0.054 A  
HETATM   19  O   UNL     1     -11.152   6.277  66.885  1.00  0.00    -0.361 OA 
ENDROOT
BRANCH   7  20
HETATM   20  C   UNL     1      -8.528  10.164  67.414  1.00  0.00    -0.122 A  
HETATM   21  C   UNL     1     -10.230  11.504  66.257  1.00  0.00    -0.230 A  
HETATM   22  C   UNL     1      -9.603  10.279  66.519  1.00  0.00    -0.228 A  
HETATM   23  C   UNL     1      -8.629  12.568  67.756  1.00  0.00    -0.178 A  
HETATM   24  C   UNL     1      -8.032  11.327  68.002  1.00  0.00    -0.119 A  
HETATM   25  C   UNL     1      -9.731  12.667  66.874  1.00  0.00    -0.234 A  
BRANCH  23  26
HETATM   26  O   UNL     1      -8.164  13.734  68.323  1.00  0.00    -0.143 OA 
HETATM   27  C   UNL     1      -6.971  14.274  67.760  1.00  0.00    -0.177 C  
ENDBRANCH  23  26
BRANCH  25  28
HETATM   28  O   UNL     1     -10.275  13.927  66.774  1.00  0.00    -0.260 OA 
HETATM   29  C   UNL     1     -11.494  14.183  67.458  1.00  0.00    -0.340 C  
ENDBRANCH  25  28
BRANCH  21  30
HETATM   30  O   UNL     1     -11.339  11.594  65.455  1.00  0.00    -0.265 OA 
HETATM   31  C   UNL     1     -11.158  11.915  64.079  1.00  0.00    -0.391 C  
ENDBRANCH  21  30
ENDBRANCH   7  20
TORSDOF 4
ENDMDL
MODEL      118
REMARK 921   NORMALIZED FREE ENERGY PREDICTED BY IDOCK:   -4.10 KCAL/MOL
REMARK 922        TOTAL FREE ENERGY PREDICTED BY IDOCK:   -5.81 KCAL/MOL
REMARK 923 INTER-LIGAND FREE ENERGY PREDICTED BY IDOCK:   -5.37 KCAL/MOL
REMARK 924 INTRA-LIGAND FREE ENERGY PREDICTED BY IDOCK:   -0.43 KCAL/MOL
REMARK 927      BINDING AFFINITY PREDICTED BY RF-SCORE:    0.00 PKD
ROOT
HETATM    1  C   UNL     1      -6.773   9.171  67.125  1.00  0.00    -0.065 C  
HETATM    2  C   UNL     1      -5.908  10.305  66.647  1.00  0.00    -0.061 C  
HETATM    3  O   UNL     1      -6.846  11.234  66.069  1.00  0.00    -0.018 OA 
HETATM    4  C   UNL     1      -8.006  10.579  65.733  1.00  0.00    -0.158 C  
HETATM    5  C   UNL     1      -7.858   9.128  66.077  1.00  0.00    -0.102 C  
HETATM    6  O   UNL     1      -8.945  11.093  65.148  1.00  0.00    -0.179 OA 
HETATM    7  C   UNL     1      -9.063   8.348  66.604  1.00  0.00    -0.202 C  
HETATM    8  C   UNL     1      -9.095   2.843  68.739  1.00  0.00    -0.153 C  
HETATM    9  C   UNL     1      -8.588   6.957  67.045  1.00  0.00    -0.121 A  
HETATM   10  O   UNL     1     -10.006   3.716  68.042  1.00  0.00    -0.001 OA 
HETATM   11  C   UNL     1      -9.561   5.954  67.202  1.00  0.00    -0.136 A  
HETATM   12  C   UNL     1      -9.179   4.753  67.749  1.00  0.00    -0.125 A  
HETATM   13  C   UNL     1      -7.220   6.711  67.419  1.00  0.00    -0.086 A  
HETATM   14  C   UNL     1      -7.876   4.505  68.094  1.00  0.00    -0.080 A  
HETATM   15  C   UNL     1      -6.146   7.795  67.279  1.00  0.00    -0.049 C  
HETATM   16  H   UNL     1      -4.923   6.995  68.530  1.00  0.00     0.000 HD 
HETATM   17  O   UNL     1      -7.718   3.272  68.649  1.00  0.00    -0.055 OA 
HETATM   18  C   UNL     1      -6.874   5.440  67.916  1.00  0.00    -0.060 A  
HETATM   19  O   UNL     1      -5.315   7.855  68.433  1.00  0.00    -0.029 OA 
ENDROOT
BRANCH   7  20
HETATM   20  C   UNL     1      -9.820   9.069  67.720  1.00  0.00    -0.209 A  
HETATM   21  C   UNL     1     -10.170   9.573  70.098  1.00  0.00    -0.246 A  
HETATM   22  C   UNL     1      -9.576   8.818  69.080  1.00  0.00    -0.162 A  
HETATM   23  C   UNL     1     -11.359  10.830  68.381  1.00  0.00    -0.302 A  
HETATM   24  C   UNL     1     -10.740  10.062  67.389  1.00  0.00    -0.336 A  
HETATM   25  C   UNL     1     -11.083  10.586  69.747  1.00  0.00    -0.295 A  
BRANCH  23  26
HETATM   26  O   UNL     1     -12.271  11.819  68.085  1.00  0.00    -0.507 OA 
HETATM   27  C   UNL     1     -11.829  12.832  67.185  1.00  0.00    -0.350 C  
ENDBRANCH  23  26
BRANCH  25  28
HETATM   28  O   UNL     1     -11.695  11.456  70.621  1.00  0.00    -0.298 OA 
HETATM   29  C   UNL     1     -12.909  11.044  71.231  1.00  0.00    -0.425 C  
ENDBRANCH  25  28
BRANCH  21  30
HETATM   30  O   UNL     1      -9.855   9.384  71.419  1.00  0.00    -0.260 OA 
HETATM   31  C   UNL     1     -10.504   8.332  72.129  1.00  0.00    -0.301 C  
ENDBRANCH  21  30
ENDBRANCH   7  20
TORSDOF 4
ENDMDL
MODEL      119
REMARK 921   NORMALIZED FREE ENERGY PREDICTED BY IDOCK:   -3.98 KCAL/MOL
REMARK 922        TOTAL FREE ENERGY PREDICTED BY IDOCK:   -5.66 KCAL/MOL
REMARK 923 INTER-LIGAND FREE ENERGY PREDICTED BY IDOCK:   -4.90 KCAL/MOL
REMARK 924 INTRA-LIGAND FREE ENERGY PREDICTED BY IDOCK:   -0.76 KCAL/MOL
REMARK 927      BINDING AFFINITY PREDICTED BY RF-SCORE:    0.00 PKD
ROOT
HETATM    1  C   UNL     1      -7.358   9.478  68.983  1.00  0.00    -0.072 C  
HETATM    2  C   UNL     1      -6.862   9.551  70.401  1.00  0.00    -0.101 C  
HETATM    3  O   UNL     1      -6.655  10.959  70.621  1.00  0.00    -0.319 OA 
HETATM    4  C   UNL     1      -6.506  11.605  69.418  1.00  0.00    -0.113 C  
HETATM    5  C   UNL     1      -6.594  10.594  68.315  1.00  0.00    -0.062 C  
HETATM    6  O   UNL     1      -6.234  12.788  69.297  1.00  0.00    -0.091 OA 
HETATM    7  C   UNL     1      -7.266  10.972  66.995  1.00  0.00    -0.123 C  
HETATM    8  C   UNL     1      -8.535   7.380  62.482  1.00  0.00     0.099 C  
HETATM    9  C   UNL     1      -7.381   9.709  66.128  1.00  0.00    -0.098 A  
HETATM   10  O   UNL     1      -8.200   8.770  62.671  1.00  0.00    -0.172 OA 
HETATM   11  C   UNL     1      -7.612   9.881  64.752  1.00  0.00    -0.139 A  
HETATM   12  C   UNL     1      -7.877   8.769  63.990  1.00  0.00    -0.140 A  
HETATM   13  C   UNL     1      -7.389   8.393  66.711  1.00  0.00    -0.083 A  
HETATM   14  C   UNL     1      -7.872   7.510  64.534  1.00  0.00    -0.130 A  
HETATM   15  C   UNL     1      -7.163   8.182  68.212  1.00  0.00    -0.093 C  
HETATM   16  H   UNL     1      -7.968   6.436  68.268  1.00  0.00     0.000 HD 
HETATM   17  O   UNL     1      -8.192   6.555  63.618  1.00  0.00    -0.057 OA 
HETATM   18  C   UNL     1      -7.604   7.284  65.871  1.00  0.00    -0.090 A  
HETATM   19  O   UNL     1      -8.090   7.246  68.751  1.00  0.00    -0.121 OA 
ENDROOT
BRANCH   7  20
HETATM   20  C   UNL     1      -8.619  11.662  67.171  1.00  0.00    -0.164 A  
HETATM   21  C   UNL     1     -10.904  11.710  68.071  1.00  0.00    -0.215 A  
HETATM   22  C   UNL     1      -9.712  11.033  67.789  1.00  0.00    -0.183 A  
HETATM   23  C   UNL     1      -9.946  13.693  67.026  1.00  0.00    -0.248 A  
HETATM   24  C   UNL     1      -8.765  12.988  66.767  1.00  0.00    -0.105 A  
HETATM   25  C   UNL     1     -11.029  13.056  67.675  1.00  0.00    -0.254 A  
BRANCH  23  26
HETATM   26  O   UNL     1     -10.120  15.004  66.641  1.00  0.00    -0.250 OA 
HETATM   27  C   UNL     1      -9.120  15.924  67.073  1.00  0.00    -0.217 C  
ENDBRANCH  23  26
BRANCH  25  28
HETATM   28  O   UNL     1     -12.103  13.875  67.939  1.00  0.00    -0.366 OA 
HETATM   29  C   UNL     1     -12.159  14.513  69.207  1.00  0.00    -0.290 C  
ENDBRANCH  25  28
BRANCH  21  30
HETATM   30  O   UNL     1     -11.930  11.116  68.759  1.00  0.00    -0.451 OA 
HETATM   31  C   UNL     1     -11.609  10.236  69.832  1.00  0.00    -0.256 C  
ENDBRANCH  21  30
ENDBRANCH   7  20
TORSDOF 4
ENDMDL
MODEL      120
REMARK 921   NORMALIZED FREE ENERGY PREDICTED BY IDOCK:   -3.97 KCAL/MOL
REMARK 922        TOTAL FREE ENERGY PREDICTED BY IDOCK:   -5.65 KCAL/MOL
REMARK 923 INTER-LIGAND FREE ENERGY PREDICTED BY IDOCK:   -5.28 KCAL/MOL
REMARK 924 INTRA-LIGAND FREE ENERGY PREDICTED BY IDOCK:   -0.37 KCAL/MOL
REMARK 927      BINDING AFFINITY PREDICTED BY RF-SCORE:    0.00 PKD
ROOT
HETATM    1  C   UNL     1      -8.171   8.362  68.318  1.00  0.00    -0.124 C  
HETATM    2  C   UNL     1      -7.607   9.663  68.817  1.00  0.00    -0.076 C  
HETATM    3  O   UNL     1      -8.710  10.272  69.516  1.00  0.00    -0.175 OA 
HETATM    4  C   UNL     1      -9.896   9.738  69.074  1.00  0.00    -0.181 C  
HETATM    5  C   UNL     1      -9.602   8.727  68.007  1.00  0.00    -0.160 C  
HETATM    6  O   UNL     1     -11.000  10.120  69.425  1.00  0.00    -0.223 OA 
HETATM    7  C   UNL     1     -10.455   7.463  67.906  1.00  0.00    -0.265 C  
HETATM    8  C   UNL     1      -9.515   2.793  64.415  1.00  0.00    -0.145 C  
HETATM    9  C   UNL     1      -9.824   6.531  66.861  1.00  0.00    -0.211 A  
HETATM   10  O   UNL     1     -10.646   3.469  65.003  1.00  0.00     0.095 OA 
HETATM   11  C   UNL     1     -10.625   5.503  66.334  1.00  0.00    -0.291 A  
HETATM   12  C   UNL     1     -10.035   4.565  65.523  1.00  0.00    -0.215 A  
HETATM   13  C   UNL     1      -8.426   6.611  66.526  1.00  0.00    -0.121 A  
HETATM   14  C   UNL     1      -8.708   4.642  65.187  1.00  0.00    -0.140 A  
HETATM   15  C   UNL     1      -7.527   7.709  67.106  1.00  0.00    -0.096 C  
HETATM   16  H   UNL     1      -5.877   6.773  66.786  1.00  0.00     0.000 HD 
HETATM   17  O   UNL     1      -8.315   3.599  64.405  1.00  0.00    -0.093 OA 
HETATM   18  C   UNL     1      -7.889   5.659  65.640  1.00  0.00    -0.099 A  
HETATM   19  O   UNL     1      -6.280   7.181  67.543  1.00  0.00    -0.042 OA 
ENDROOT
BRANCH   7  20
HETATM   20  C   UNL     1     -10.661   6.754  69.246  1.00  0.00    -0.288 A  
HETATM   21  C   UNL     1      -9.948   5.139  70.952  1.00  0.00    -0.210 A  
HETATM   22  C   UNL     1      -9.844   5.695  69.672  1.00  0.00    -0.243 A  
HETATM   23  C   UNL     1     -11.790   6.673  71.396  1.00  0.00    -0.337 A  
HETATM   24  C   UNL     1     -11.653   7.211  70.113  1.00  0.00    -0.211 A  
HETATM   25  C   UNL     1     -10.942   5.625  71.825  1.00  0.00    -0.226 A  
BRANCH  23  26
HETATM   26  O   UNL     1     -12.758   7.104  72.276  1.00  0.00    -0.135 OA 
HETATM   27  C   UNL     1     -14.098   7.096  71.789  1.00  0.00    -0.300 C  
ENDBRANCH  23  26
BRANCH  25  28
HETATM   28  O   UNL     1     -11.127   5.234  73.131  1.00  0.00    -0.282 OA 
HETATM   29  C   UNL     1     -10.383   5.905  74.139  1.00  0.00    -0.284 C  
ENDBRANCH  25  28
BRANCH  21  30
HETATM   30  O   UNL     1      -9.085   4.170  71.395  1.00  0.00    -0.116 OA 
HETATM   31  C   UNL     1      -8.810   3.063  70.540  1.00  0.00    -0.085 C  
ENDBRANCH  21  30
ENDBRANCH   7  20
TORSDOF 4
ENDMDL
MODEL      121
REMARK 921   NORMALIZED FREE ENERGY PREDICTED BY IDOCK:   -3.96 KCAL/MOL
REMARK 922        TOTAL FREE ENERGY PREDICTED BY IDOCK:   -5.63 KCAL/MOL
REMARK 923 INTER-LIGAND FREE ENERGY PREDICTED BY IDOCK:   -4.95 KCAL/MOL
REMARK 924 INTRA-LIGAND FREE ENERGY PREDICTED BY IDOCK:   -0.68 KCAL/MOL
REMARK 927      BINDING AFFINITY PREDICTED BY RF-SCORE:    0.00 PKD
ROOT
HETATM    1  C   UNL     1     -10.178   7.528  71.281  1.00  0.00    -0.198 C  
HETATM    2  C   UNL     1     -10.577   7.767  72.712  1.00  0.00    -0.341 C  
HETATM    3  O   UNL     1      -9.455   8.481  73.267  1.00  0.00    -0.130 OA 
HETATM    4  C   UNL     1      -8.332   8.250  72.510  1.00  0.00    -0.174 C  
HETATM    5  C   UNL     1      -8.688   7.319  71.391  1.00  0.00    -0.126 C  
HETATM    6  O   UNL     1      -7.215   8.656  72.788  1.00  0.00    -0.294 OA 
HETATM    7  C   UNL     1      -8.032   7.496  70.021  1.00  0.00    -0.112 C  
HETATM    8  C   UNL     1      -9.381   4.653  65.024  1.00  0.00    -0.138 C  
HETATM    9  C   UNL     1      -8.709   6.540  69.029  1.00  0.00    -0.128 A  
HETATM   10  O   UNL     1      -8.213   5.250  65.624  1.00  0.00    -0.113 OA 
HETATM   11  C   UNL     1      -8.033   6.258  67.829  1.00  0.00    -0.114 A  
HETATM   12  C   UNL     1      -8.690   5.536  66.863  1.00  0.00    -0.112 A  
HETATM   13  C   UNL     1     -10.045   6.050  69.246  1.00  0.00    -0.235 A  
HETATM   14  C   UNL     1      -9.958   5.054  67.067  1.00  0.00    -0.203 A  
HETATM   15  C   UNL     1     -10.812   6.364  70.536  1.00  0.00    -0.279 C  
HETATM   16  H   UNL     1     -12.552   6.013  69.798  1.00  0.00     0.000 HD 
HETATM   17  O   UNL     1     -10.439   4.398  65.975  1.00  0.00    -0.242 OA 
HETATM   18  C   UNL     1     -10.647   5.263  68.246  1.00  0.00    -0.074 A  
HETATM   19  O   UNL     1     -12.157   6.740  70.263  1.00  0.00    -0.328 OA 
ENDROOT
BRANCH   7  20
HETATM   20  C   UNL     1      -8.048   8.940  69.517  1.00  0.00    -0.101 A  
HETATM   21  C   UNL     1      -6.934  11.097  69.146  1.00  0.00    -0.108 A  
HETATM   22  C   UNL     1      -6.975   9.822  69.723  1.00  0.00    -0.087 A  
HETATM   23  C   UNL     1      -9.130  10.658  68.182  1.00  0.00    -0.148 A  
HETATM   24  C   UNL     1      -9.134   9.388  68.767  1.00  0.00    -0.132 A  
HETATM   25  C   UNL     1      -8.031  11.528  68.373  1.00  0.00    -0.143 A  
BRANCH  23  26
HETATM   26  O   UNL     1     -10.187  11.128  67.435  1.00  0.00    -0.181 OA 
HETATM   27  C   UNL     1     -10.421  10.469  66.193  1.00  0.00    -0.168 C  
ENDBRANCH  23  26
BRANCH  25  28
HETATM   28  O   UNL     1      -8.113  12.718  67.686  1.00  0.00    -0.150 OA 
HETATM   29  C   UNL     1      -8.493  13.880  68.409  1.00  0.00    -0.159 C  
ENDBRANCH  25  28
BRANCH  21  30
HETATM   30  O   UNL     1      -5.842  11.916  69.272  1.00  0.00    -0.062 OA 
HETATM   31  C   UNL     1      -5.639  12.591  70.511  1.00  0.00    -0.172 C  
ENDBRANCH  21  30
ENDBRANCH   7  20
TORSDOF 4
ENDMDL
MODEL      122
REMARK 921   NORMALIZED FREE ENERGY PREDICTED BY IDOCK:   -3.93 KCAL/MOL
REMARK 922        TOTAL FREE ENERGY PREDICTED BY IDOCK:   -5.60 KCAL/MOL
REMARK 923 INTER-LIGAND FREE ENERGY PREDICTED BY IDOCK:   -4.84 KCAL/MOL
REMARK 924 INTRA-LIGAND FREE ENERGY PREDICTED BY IDOCK:   -0.76 KCAL/MOL
REMARK 927      BINDING AFFINITY PREDICTED BY RF-SCORE:    0.00 PKD
ROOT
HETATM    1  C   UNL     1     -10.093   8.303  67.526  1.00  0.00    -0.287 C  
HETATM    2  C   UNL     1     -10.783   7.176  66.808  1.00  0.00    -0.189 C  
HETATM    3  O   UNL     1     -10.052   6.005  67.224  1.00  0.00    -0.137 OA 
HETATM    4  C   UNL     1      -8.803   6.366  67.666  1.00  0.00    -0.112 C  
HETATM    5  C   UNL     1      -8.654   7.851  67.533  1.00  0.00    -0.122 C  
HETATM    6  O   UNL     1      -7.934   5.577  68.000  1.00  0.00    -0.095 OA 
HETATM    7  C   UNL     1      -7.865   8.629  68.586  1.00  0.00    -0.107 C  
HETATM    8  C   UNL     1      -7.389  14.496  69.072  1.00  0.00    -0.132 C  
HETATM    9  C   UNL     1      -8.030  10.130  68.307  1.00  0.00    -0.101 A  
HETATM   10  O   UNL     1      -6.587  13.337  69.376  1.00  0.00    -0.109 OA 
HETATM   11  C   UNL     1      -7.107  11.010  68.900  1.00  0.00    -0.098 A  
HETATM   12  C   UNL     1      -7.332  12.361  68.794  1.00  0.00    -0.076 A  
HETATM   13  C   UNL     1      -9.162  10.642  67.580  1.00  0.00    -0.151 A  
HETATM   14  C   UNL     1      -8.399  12.857  68.091  1.00  0.00    -0.168 A  
HETATM   15  C   UNL     1     -10.194   9.704  66.944  1.00  0.00    -0.237 C  
HETATM   16  H   UNL     1     -11.586  11.026  66.826  1.00  0.00     0.000 HD 
HETATM   17  O   UNL     1      -8.458  14.217  68.140  1.00  0.00    -0.156 OA 
HETATM   18  C   UNL     1      -9.308  12.036  67.451  1.00  0.00    -0.178 A  
HETATM   19  O   UNL     1     -11.523  10.151  67.190  1.00  0.00    -0.103 OA 
ENDROOT
BRANCH   7  20
HETATM   20  C   UNL     1      -8.248   8.275  70.024  1.00  0.00    -0.119 A  
HETATM   21  C   UNL     1      -7.665   7.428  72.254  1.00  0.00    -0.092 A  
HETATM   22  C   UNL     1      -7.363   7.630  70.902  1.00  0.00    -0.066 A  
HETATM   23  C   UNL     1      -9.833   8.468  71.855  1.00  0.00    -0.288 A  
HETATM   24  C   UNL     1      -9.495   8.662  70.512  1.00  0.00    -0.206 A  
HETATM   25  C   UNL     1      -8.922   7.842  72.737  1.00  0.00    -0.181 A  
BRANCH  23  26
HETATM   26  O   UNL     1     -11.056   8.840  72.367  1.00  0.00    -0.327 OA 
HETATM   27  C   UNL     1     -12.201   8.273  71.735  1.00  0.00    -0.326 C  
ENDBRANCH  23  26
BRANCH  25  28
HETATM   28  O   UNL     1      -9.341   7.778  74.047  1.00  0.00    -0.239 OA 
HETATM   29  C   UNL     1      -9.954   6.577  74.493  1.00  0.00    -0.334 C  
ENDBRANCH  25  28
BRANCH  21  30
HETATM   30  O   UNL     1      -6.758   6.883  73.127  1.00  0.00    -0.069 OA 
HETATM   31  C   UNL     1      -5.370   7.047  72.853  1.00  0.00    -0.038 C  
ENDBRANCH  21  30
ENDBRANCH   7  20
TORSDOF 4
ENDMDL
MODEL      123
REMARK 921   NORMALIZED FREE ENERGY PREDICTED BY IDOCK:   -3.90 KCAL/MOL
REMARK 922        TOTAL FREE ENERGY PREDICTED BY IDOCK:   -5.56 KCAL/MOL
REMARK 923 INTER-LIGAND FREE ENERGY PREDICTED BY IDOCK:   -6.47 KCAL/MOL
REMARK 924 INTRA-LIGAND FREE ENERGY PREDICTED BY IDOCK:    0.92 KCAL/MOL
REMARK 927      BINDING AFFINITY PREDICTED BY RF-SCORE:    0.00 PKD
ROOT
HETATM    1  C   UNL     1      -6.517  13.901  67.808  1.00  0.00    -0.178 C  
HETATM    2  C   UNL     1      -5.463  12.837  67.938  1.00  0.00    -0.108 C  
HETATM    3  O   UNL     1      -6.213  11.643  68.236  1.00  0.00    -0.049 OA 
HETATM    4  C   UNL     1      -7.441  11.979  68.752  1.00  0.00    -0.086 C  
HETATM    5  C   UNL     1      -7.538  13.472  68.833  1.00  0.00    -0.002 C  
HETATM    6  O   UNL     1      -8.257  11.175  69.174  1.00  0.00    -0.109 OA 
HETATM    7  C   UNL     1      -8.876  14.159  68.558  1.00  0.00    -0.173 C  
HETATM    8  C   UNL     1      -9.875  19.959  68.073  1.00  0.00    -0.412 C  
HETATM    9  C   UNL     1      -8.647  15.677  68.526  1.00  0.00    -0.180 A  
HETATM   10  O   UNL     1     -10.602  18.789  68.500  1.00  0.00    -0.223 OA 
HETATM   11  C   UNL     1      -9.771  16.511  68.667  1.00  0.00    -0.247 A  
HETATM   12  C   UNL     1      -9.609  17.862  68.481  1.00  0.00    -0.326 A  
HETATM   13  C   UNL     1      -7.355  16.238  68.228  1.00  0.00    -0.146 A  
HETATM   14  C   UNL     1      -8.380  18.406  68.211  1.00  0.00    -0.303 A  
HETATM   15  C   UNL     1      -6.120  15.349  68.047  1.00  0.00    -0.142 C  
HETATM   16  H   UNL     1      -5.104  16.655  67.066  1.00  0.00     0.000 HD 
HETATM   17  O   UNL     1      -8.445  19.754  68.027  1.00  0.00    -0.306 OA 
HETATM   18  C   UNL     1      -7.237  17.636  68.109  1.00  0.00    -0.218 A  
HETATM   19  O   UNL     1      -5.352  15.750  66.917  1.00  0.00    -0.254 OA 
ENDROOT
BRANCH   7  20
HETATM   20  C   UNL     1      -9.570  13.664  67.288  1.00  0.00    -0.238 A  
HETATM   21  C   UNL     1     -11.237  13.939  65.506  1.00  0.00    -0.307 A  
HETATM   22  C   UNL     1     -10.688  14.312  66.739  1.00  0.00    -0.287 A  
HETATM   23  C   UNL     1      -9.570  12.165  65.376  1.00  0.00    -0.096 A  
HETATM   24  C   UNL     1      -9.041  12.570  66.605  1.00  0.00    -0.203 A  
HETATM   25  C   UNL     1     -10.680  12.843  64.818  1.00  0.00    -0.333 A  
BRANCH  23  26
HETATM   26  O   UNL     1      -9.069  11.089  64.677  1.00  0.00    -0.189 OA 
HETATM   27  C   UNL     1      -8.925   9.876  65.411  1.00  0.00    -0.184 C  
ENDBRANCH  23  26
BRANCH  25  28
HETATM   28  O   UNL     1     -11.058  12.399  63.572  1.00  0.00    -0.435 OA 
HETATM   29  C   UNL     1     -12.325  11.768  63.446  1.00  0.00    -0.361 C  
ENDBRANCH  25  28
BRANCH  21  30
HETATM   30  O   UNL     1     -12.269  14.635  64.931  1.00  0.00    -0.401 OA 
HETATM   31  C   UNL     1     -11.956  15.749  64.100  1.00  0.00     0.020 C  
ENDBRANCH  21  30
ENDBRANCH   7  20
TORSDOF 4
ENDMDL
MODEL      124
REMARK 921   NORMALIZED FREE ENERGY PREDICTED BY IDOCK:   -3.88 KCAL/MOL
REMARK 922        TOTAL FREE ENERGY PREDICTED BY IDOCK:   -5.54 KCAL/MOL
REMARK 923 INTER-LIGAND FREE ENERGY PREDICTED BY IDOCK:   -6.15 KCAL/MOL
REMARK 924 INTRA-LIGAND FREE ENERGY PREDICTED BY IDOCK:    0.61 KCAL/MOL
REMARK 927      BINDING AFFINITY PREDICTED BY RF-SCORE:    0.00 PKD
ROOT
HETATM    1  C   UNL     1      -9.640   8.103  71.550  1.00  0.00    -0.226 C  
HETATM    2  C   UNL     1      -9.814   8.050  73.043  1.00  0.00    -0.282 C  
HETATM    3  O   UNL     1     -10.810   7.028  73.238  1.00  0.00    -0.308 OA 
HETATM    4  C   UNL     1     -11.539   6.859  72.085  1.00  0.00    -0.284 C  
HETATM    5  C   UNL     1     -11.036   7.820  71.052  1.00  0.00    -0.260 C  
HETATM    6  O   UNL     1     -12.505   6.121  71.980  1.00  0.00    -0.250 OA 
HETATM    7  C   UNL     1     -10.992   7.397  69.583  1.00  0.00    -0.186 C  
HETATM    8  C   UNL     1      -8.580  10.369  65.085  1.00  0.00    -0.180 C  
HETATM    9  C   UNL     1     -10.270   8.490  68.782  1.00  0.00    -0.217 A  
HETATM   10  O   UNL     1      -9.668   9.444  65.285  1.00  0.00    -0.263 OA 
HETATM   11  C   UNL     1     -10.443   8.501  67.387  1.00  0.00    -0.351 A  
HETATM   12  C   UNL     1      -9.682   9.367  66.640  1.00  0.00    -0.219 A  
HETATM   13  C   UNL     1      -9.340   9.394  69.409  1.00  0.00    -0.172 A  
HETATM   14  C   UNL     1      -8.805  10.240  67.230  1.00  0.00    -0.132 A  
HETATM   15  C   UNL     1      -9.116   9.386  70.925  1.00  0.00    -0.152 C  
HETATM   16  H   UNL     1      -7.404  10.260  70.856  1.00  0.00     0.000 HD 
HETATM   17  O   UNL     1      -8.126  10.983  66.312  1.00  0.00    -0.162 OA 
HETATM   18  C   UNL     1      -8.632  10.303  68.600  1.00  0.00    -0.128 A  
HETATM   19  O   UNL     1      -7.732   9.458  71.247  1.00  0.00    -0.336 OA 
ENDROOT
BRANCH   7  20
HETATM   20  C   UNL     1     -10.361   6.022  69.360  1.00  0.00    -0.298 A  
HETATM   21  C   UNL     1      -9.489   3.894  70.222  1.00  0.00    -0.185 A  
HETATM   22  C   UNL     1      -9.941   5.204  70.421  1.00  0.00    -0.316 A  
HETATM   23  C   UNL     1      -9.799   4.222  67.827  1.00  0.00    -0.074 A  
HETATM   24  C   UNL     1     -10.253   5.524  68.062  1.00  0.00    -0.233 A  
HETATM   25  C   UNL     1      -9.405   3.398  68.907  1.00  0.00    -0.168 A  
BRANCH  23  26
HETATM   26  O   UNL     1      -9.683   3.701  66.557  1.00  0.00    -0.179 OA 
HETATM   27  C   UNL     1     -10.071   4.561  65.488  1.00  0.00    -0.222 C  
ENDBRANCH  23  26
BRANCH  25  28
HETATM   28  O   UNL     1      -9.050   2.116  68.551  1.00  0.00    -0.118 OA 
HETATM   29  C   UNL     1      -7.668   1.829  68.387  1.00  0.00    -0.050 C  
ENDBRANCH  25  28
BRANCH  21  30
HETATM   30  O   UNL     1      -9.171   3.069  71.271  1.00  0.00    -0.100 OA 
HETATM   31  C   UNL     1      -9.257   3.590  72.594  1.00  0.00    -0.104 C  
ENDBRANCH  21  30
ENDBRANCH   7  20
TORSDOF 4
ENDMDL
MODEL      125
REMARK 921   NORMALIZED FREE ENERGY PREDICTED BY IDOCK:   -3.82 KCAL/MOL
REMARK 922        TOTAL FREE ENERGY PREDICTED BY IDOCK:   -5.47 KCAL/MOL
REMARK 923 INTER-LIGAND FREE ENERGY PREDICTED BY IDOCK:   -5.05 KCAL/MOL
REMARK 924 INTRA-LIGAND FREE ENERGY PREDICTED BY IDOCK:   -0.42 KCAL/MOL
REMARK 927      BINDING AFFINITY PREDICTED BY RF-SCORE:    0.00 PKD
ROOT
HETATM    1  C   UNL     1     -10.035  11.981  66.055  1.00  0.00    -0.258 C  
HETATM    2  C   UNL     1     -10.939  11.658  64.896  1.00  0.00    -0.284 C  
HETATM    3  O   UNL     1     -10.532  10.333  64.502  1.00  0.00    -0.159 OA 
HETATM    4  C   UNL     1      -9.256  10.083  64.944  1.00  0.00    -0.239 C  
HETATM    5  C   UNL     1      -8.749  11.297  65.662  1.00  0.00    -0.078 C  
HETATM    6  O   UNL     1      -8.620   9.075  64.686  1.00  0.00    -0.173 OA 
HETATM    7  C   UNL     1      -7.849  11.131  66.887  1.00  0.00    -0.152 C  
HETATM    8  C   UNL     1      -6.003  15.372  70.559  1.00  0.00    -0.026 C  
HETATM    9  C   UNL     1      -7.635  12.511  67.525  1.00  0.00    -0.156 A  
HETATM   10  O   UNL     1      -5.519  14.104  70.073  1.00  0.00    -0.095 OA 
HETATM   11  C   UNL     1      -6.558  12.659  68.418  1.00  0.00    -0.081 A  
HETATM   12  C   UNL     1      -6.446  13.835  69.118  1.00  0.00    -0.109 A  
HETATM   13  C   UNL     1      -8.574  13.586  67.331  1.00  0.00    -0.209 A  
HETATM   14  C   UNL     1      -7.327  14.868  68.929  1.00  0.00    -0.136 A  
HETATM   15  C   UNL     1      -9.768  13.441  66.381  1.00  0.00    -0.277 C  
HETATM   16  H   UNL     1     -10.794  14.864  67.171  1.00  0.00     0.000 HD 
HETATM   17  O   UNL     1      -7.061  15.925  69.744  1.00  0.00    -0.167 OA 
HETATM   18  C   UNL     1      -8.374  14.791  68.029  1.00  0.00    -0.143 A  
HETATM   19  O   UNL     1     -10.961  13.951  66.966  1.00  0.00    -0.289 OA 
ENDROOT
BRANCH   7  20
HETATM   20  C   UNL     1      -8.376  10.114  67.901  1.00  0.00    -0.117 A  
HETATM   21  C   UNL     1      -8.049   8.156  69.346  1.00  0.00    -0.116 A  
HETATM   22  C   UNL     1      -7.621   9.008  68.321  1.00  0.00    -0.091 A  
HETATM   23  C   UNL     1     -10.087   9.483  69.507  1.00  0.00    -0.206 A  
HETATM   24  C   UNL     1      -9.625  10.319  68.485  1.00  0.00    -0.165 A  
HETATM   25  C   UNL     1      -9.304   8.388  69.941  1.00  0.00    -0.155 A  
BRANCH  23  26
HETATM   26  O   UNL     1     -11.315   9.661  70.105  1.00  0.00    -0.244 OA 
HETATM   27  C   UNL     1     -11.707  11.010  70.347  1.00  0.00    -0.343 C  
ENDBRANCH  23  26
BRANCH  25  28
HETATM   28  O   UNL     1      -9.833   7.687  71.001  1.00  0.00    -0.175 OA 
HETATM   29  C   UNL     1      -9.720   8.255  72.298  1.00  0.00    -0.292 C  
ENDBRANCH  25  28
BRANCH  21  30
HETATM   30  O   UNL     1      -7.263   7.135  69.816  1.00  0.00    -0.074 OA 
HETATM   31  C   UNL     1      -6.523   7.344  71.016  1.00  0.00    -0.039 C  
ENDBRANCH  21  30
ENDBRANCH   7  20
TORSDOF 4
ENDMDL
MODEL      126
REMARK 921   NORMALIZED FREE ENERGY PREDICTED BY IDOCK:   -3.79 KCAL/MOL
REMARK 922        TOTAL FREE ENERGY PREDICTED BY IDOCK:   -5.43 KCAL/MOL
REMARK 923 INTER-LIGAND FREE ENERGY PREDICTED BY IDOCK:   -4.65 KCAL/MOL
REMARK 924 INTRA-LIGAND FREE ENERGY PREDICTED BY IDOCK:   -0.78 KCAL/MOL
REMARK 927      BINDING AFFINITY PREDICTED BY RF-SCORE:    0.00 PKD
ROOT
HETATM    1  C   UNL     1     -10.285  14.763  69.063  1.00  0.00    -0.237 C  
HETATM    2  C   UNL     1     -11.303  14.264  70.052  1.00  0.00    -0.165 C  
HETATM    3  O   UNL     1     -12.316  13.658  69.227  1.00  0.00    -0.288 OA 
HETATM    4  C   UNL     1     -12.245  14.163  67.951  1.00  0.00    -0.155 C  
HETATM    5  C   UNL     1     -11.145  15.179  67.895  1.00  0.00    -0.322 C  
HETATM    6  O   UNL     1     -13.032  13.897  67.058  1.00  0.00     0.338 OA 
HETATM    7  C   UNL     1     -10.290  15.300  66.633  1.00  0.00    -0.281 C  
HETATM    8  C   UNL     1      -5.437  18.587  65.913  1.00  0.00    -0.164 C  
HETATM    9  C   UNL     1      -9.137  16.274  66.917  1.00  0.00    -0.242 A  
HETATM   10  O   UNL     1      -6.518  18.096  65.095  1.00  0.00    -0.349 OA 
HETATM   11  C   UNL     1      -8.460  16.824  65.815  1.00  0.00     0.208 A  
HETATM   12  C   UNL     1      -7.329  17.567  66.047  1.00  0.00    -0.253 A  
HETATM   13  C   UNL     1      -8.669  16.518  68.257  1.00  0.00    -0.209 A  
HETATM   14  C   UNL     1      -6.884  17.816  67.320  1.00  0.00    -0.169 A  
HETATM   15  C   UNL     1      -9.376  15.911  69.474  1.00  0.00    -0.196 C  
HETATM   16  H   UNL     1      -7.874  16.093  70.661  1.00  0.00     0.000 HD 
HETATM   17  O   UNL     1      -5.731  18.540  67.328  1.00  0.00    -0.141 OA 
HETATM   18  C   UNL     1      -7.540  17.339  68.439  1.00  0.00    -0.241 A  
HETATM   19  O   UNL     1      -8.442  15.376  70.405  1.00  0.00     0.549 OA 
ENDROOT
BRANCH   7  20
HETATM   20  C   UNL     1      -9.781  13.958  66.107  1.00  0.00    -0.289 A  
HETATM   21  C   UNL     1      -8.382  11.953  66.336  1.00  0.00     0.005 A  
HETATM   22  C   UNL     1      -8.754  13.241  66.739  1.00  0.00    -0.093 A  
HETATM   23  C   UNL     1     -10.045  12.103  64.560  1.00  0.00    -0.259 A  
HETATM   24  C   UNL     1     -10.397  13.384  64.995  1.00  0.00    -0.361 A  
HETATM   25  C   UNL     1      -9.028  11.378  65.223  1.00  0.00    -0.008 A  
BRANCH  23  26
HETATM   26  O   UNL     1     -10.636  11.508  63.467  1.00  0.00    -0.370 OA 
HETATM   27  C   UNL     1     -11.992  11.869  63.212  1.00  0.00    -0.337 C  
ENDBRANCH  23  26
BRANCH  25  28
HETATM   28  O   UNL     1      -8.827  10.102  64.747  1.00  0.00    -0.166 OA 
HETATM   29  C   UNL     1      -9.341   9.018  65.509  1.00  0.00    -0.187 C  
ENDBRANCH  25  28
BRANCH  21  30
HETATM   30  O   UNL     1      -7.444  11.221  67.017  1.00  0.00    -0.124 OA 
HETATM   31  C   UNL     1      -6.087  11.288  66.588  1.00  0.00    -0.143 C  
ENDBRANCH  21  30
ENDBRANCH   7  20
TORSDOF 4
ENDMDL
MODEL      127
REMARK 921   NORMALIZED FREE ENERGY PREDICTED BY IDOCK:   -3.78 KCAL/MOL
REMARK 922        TOTAL FREE ENERGY PREDICTED BY IDOCK:   -5.41 KCAL/MOL
REMARK 923 INTER-LIGAND FREE ENERGY PREDICTED BY IDOCK:   -5.05 KCAL/MOL
REMARK 924 INTRA-LIGAND FREE ENERGY PREDICTED BY IDOCK:   -0.36 KCAL/MOL
REMARK 927      BINDING AFFINITY PREDICTED BY RF-SCORE:    0.00 PKD
ROOT
HETATM    1  C   UNL     1      -8.986   7.972  69.193  1.00  0.00    -0.145 C  
HETATM    2  C   UNL     1      -9.173   7.367  70.557  1.00  0.00    -0.157 C  
HETATM    3  O   UNL     1      -8.638   8.362  71.451  1.00  0.00    -0.134 OA 
HETATM    4  C   UNL     1      -7.771   9.184  70.773  1.00  0.00    -0.141 C  
HETATM    5  C   UNL     1      -7.688   8.726  69.349  1.00  0.00    -0.093 C  
HETATM    6  O   UNL     1      -7.104  10.064  71.292  1.00  0.00    -0.235 OA 
HETATM    7  C   UNL     1      -7.544   9.757  68.229  1.00  0.00    -0.081 C  
HETATM    8  C   UNL     1      -7.787   8.767  62.412  1.00  0.00    -0.135 C  
HETATM    9  C   UNL     1      -7.670   9.034  66.881  1.00  0.00    -0.098 A  
HETATM   10  O   UNL     1      -7.137   9.694  63.305  1.00  0.00    -0.102 OA 
HETATM   11  C   UNL     1      -7.200   9.700  65.735  1.00  0.00    -0.100 A  
HETATM   12  C   UNL     1      -7.448   9.141  64.505  1.00  0.00    -0.101 A  
HETATM   13  C   UNL     1      -8.364   7.778  66.761  1.00  0.00    -0.125 A  
HETATM   14  C   UNL     1      -8.096   7.939  64.383  1.00  0.00    -0.103 A  
HETATM   15  C   UNL     1      -8.906   7.044  67.992  1.00  0.00    -0.124 C  
HETATM   16  H   UNL     1     -10.175   5.976  67.017  1.00  0.00     0.000 HD 
HETATM   17  O   UNL     1      -8.272   7.581  63.081  1.00  0.00    -0.085 OA 
HETATM   18  C   UNL     1      -8.536   7.221  65.479  1.00  0.00    -0.090 A  
HETATM   19  O   UNL     1     -10.225   6.556  67.768  1.00  0.00    -0.140 OA 
ENDROOT
BRANCH   7  20
HETATM   20  C   UNL     1      -8.528  10.923  68.340  1.00  0.00    -0.141 A  
HETATM   21  C   UNL     1      -9.066  13.308  68.106  1.00  0.00    -0.207 A  
HETATM   22  C   UNL     1      -8.141  12.257  68.138  1.00  0.00    -0.158 A  
HETATM   23  C   UNL     1     -10.824  11.684  68.571  1.00  0.00    -0.219 A  
HETATM   24  C   UNL     1      -9.874  10.658  68.587  1.00  0.00    -0.183 A  
HETATM   25  C   UNL     1     -10.425  13.022  68.337  1.00  0.00    -0.252 A  
BRANCH  23  26
HETATM   26  O   UNL     1     -12.161  11.454  68.809  1.00  0.00    -0.480 OA 
HETATM   27  C   UNL     1     -12.482  10.864  70.066  1.00  0.00    -0.263 C  
ENDBRANCH  23  26
BRANCH  25  28
HETATM   28  O   UNL     1     -11.461  13.926  68.271  1.00  0.00    -0.274 OA 
HETATM   29  C   UNL     1     -11.843  14.409  66.991  1.00  0.00    -0.412 C  
ENDBRANCH  25  28
BRANCH  21  30
HETATM   30  O   UNL     1      -8.693  14.595  67.813  1.00  0.00    -0.159 OA 
HETATM   31  C   UNL     1      -7.533  15.127  68.448  1.00  0.00    -0.115 C  
ENDBRANCH  21  30
ENDBRANCH   7  20
TORSDOF 4
ENDMDL
MODEL      128
REMARK 921   NORMALIZED FREE ENERGY PREDICTED BY IDOCK:   -3.78 KCAL/MOL
REMARK 922        TOTAL FREE ENERGY PREDICTED BY IDOCK:   -5.41 KCAL/MOL
REMARK 923 INTER-LIGAND FREE ENERGY PREDICTED BY IDOCK:   -5.63 KCAL/MOL
REMARK 924 INTRA-LIGAND FREE ENERGY PREDICTED BY IDOCK:    0.22 KCAL/MOL
REMARK 927      BINDING AFFINITY PREDICTED BY RF-SCORE:    0.00 PKD
ROOT
HETATM    1  C   UNL     1     -12.059  13.783  71.125  1.00  0.00    -0.272 C  
HETATM    2  C   UNL     1     -12.632  13.753  72.515  1.00  0.00    -0.006 C  
HETATM    3  O   UNL     1     -12.988  12.370  72.711  1.00  0.00     0.125 OA 
HETATM    4  C   UNL     1     -13.138  11.749  71.495  1.00  0.00    -0.287 C  
HETATM    5  C   UNL     1     -12.894  12.751  70.408  1.00  0.00     0.144 C  
HETATM    6  O   UNL     1     -13.518  10.599  71.349  1.00  0.00    -0.248 OA 
HETATM    7  C   UNL     1     -12.194  12.315  69.120  1.00  0.00    -0.075 C  
HETATM    8  C   UNL     1     -10.346  15.785  64.714  1.00  0.00     0.122 C  
HETATM    9  C   UNL     1     -11.911  13.564  68.273  1.00  0.00    -0.401 A  
HETATM   10  O   UNL     1     -10.825  14.434  64.872  1.00  0.00    -0.376 OA 
HETATM   11  C   UNL     1     -11.627  13.377  66.909  1.00  0.00    -0.404 A  
HETATM   12  C   UNL     1     -11.215  14.461  66.172  1.00  0.00    -0.336 A  
HETATM   13  C   UNL     1     -11.803  14.870  68.868  1.00  0.00    -0.334 A  
HETATM   14  C   UNL     1     -11.123  15.711  66.728  1.00  0.00    -0.169 A  
HETATM   15  C   UNL     1     -12.085  15.095  70.358  1.00  0.00    -0.328 C  
HETATM   16  H   UNL     1     -11.116  16.753  70.473  1.00  0.00     0.000 HD 
HETATM   17  O   UNL     1     -10.664  16.634  65.839  1.00  0.00    -0.278 OA 
HETATM   18  C   UNL     1     -11.436  15.956  68.051  1.00  0.00    -0.236 A  
HETATM   19  O   UNL     1     -11.100  15.933  70.952  1.00  0.00    -0.333 OA 
ENDROOT
BRANCH   7  20
HETATM   20  C   UNL     1     -10.927  11.493  69.359  1.00  0.00    -0.233 A  
HETATM   21  C   UNL     1      -9.805   9.462  70.163  1.00  0.00    -0.232 A  
HETATM   22  C   UNL     1     -10.938  10.278  70.062  1.00  0.00    -0.371 A  
HETATM   23  C   UNL     1      -8.568  11.138  68.896  1.00  0.00    -0.087 A  
HETATM   24  C   UNL     1      -9.721  11.924  68.807  1.00  0.00    -0.051 A  
HETATM   25  C   UNL     1      -8.599   9.901  69.583  1.00  0.00    -0.194 A  
BRANCH  23  26
HETATM   26  O   UNL     1      -7.363  11.535  68.360  1.00  0.00    -0.084 OA 
HETATM   27  C   UNL     1      -6.797  12.726  68.902  1.00  0.00    -0.096 C  
ENDBRANCH  23  26
BRANCH  25  28
HETATM   28  O   UNL     1      -7.422   9.188  69.535  1.00  0.00    -0.072 OA 
HETATM   29  C   UNL     1      -7.322   8.130  68.592  1.00  0.00    -0.089 C  
ENDBRANCH  25  28
BRANCH  21  30
HETATM   30  O   UNL     1      -9.847   8.232  70.769  1.00  0.00    -0.175 OA 
HETATM   31  C   UNL     1     -11.120   7.634  71.000  1.00  0.00    -0.257 C  
ENDBRANCH  21  30
ENDBRANCH   7  20
TORSDOF 4
ENDMDL
MODEL      129
REMARK 921   NORMALIZED FREE ENERGY PREDICTED BY IDOCK:   -3.77 KCAL/MOL
REMARK 922        TOTAL FREE ENERGY PREDICTED BY IDOCK:   -5.40 KCAL/MOL
REMARK 923 INTER-LIGAND FREE ENERGY PREDICTED BY IDOCK:   -5.02 KCAL/MOL
REMARK 924 INTRA-LIGAND FREE ENERGY PREDICTED BY IDOCK:   -0.38 KCAL/MOL
REMARK 927      BINDING AFFINITY PREDICTED BY RF-SCORE:    0.00 PKD
ROOT
HETATM    1  C   UNL     1      -6.923   8.674  70.925  1.00  0.00    -0.064 C  
HETATM    2  C   UNL     1      -5.732   8.374  71.792  1.00  0.00    -0.041 C  
HETATM    3  O   UNL     1      -6.229   7.409  72.739  1.00  0.00    -0.054 OA 
HETATM    4  C   UNL     1      -7.597   7.497  72.822  1.00  0.00    -0.088 C  
HETATM    5  C   UNL     1      -8.067   8.584  71.904  1.00  0.00    -0.185 C  
HETATM    6  O   UNL     1      -8.285   6.860  73.604  1.00  0.00    -0.110 OA 
HETATM    7  C   UNL     1      -9.389   8.422  71.152  1.00  0.00    -0.223 C  
HETATM    8  C   UNL     1     -11.554  11.951  66.941  1.00  0.00    -0.285 C  
HETATM    9  C   UNL     1      -9.529   9.583  70.158  1.00  0.00    -0.287 A  
HETATM   10  O   UNL     1     -12.072  11.086  67.972  1.00  0.00    -0.615 OA 
HETATM   11  C   UNL     1     -10.809   9.850  69.641  1.00  0.00    -0.281 A  
HETATM   12  C   UNL     1     -10.927  10.776  68.633  1.00  0.00    -0.239 A  
HETATM   13  C   UNL     1      -8.379  10.293  69.661  1.00  0.00    -0.139 A  
HETATM   14  C   UNL     1      -9.840  11.466  68.164  1.00  0.00    -0.191 A  
HETATM   15  C   UNL     1      -6.971  10.005  70.192  1.00  0.00    -0.148 C  
HETATM   16  H   UNL     1      -6.054  10.751  68.675  1.00  0.00     0.000 HD 
HETATM   17  O   UNL     1     -10.168  12.307  67.144  1.00  0.00    -0.210 OA 
HETATM   18  C   UNL     1      -8.569  11.276  68.671  1.00  0.00    -0.139 A  
HETATM   19  O   UNL     1      -6.024   9.919  69.133  1.00  0.00    -0.035 OA 
ENDROOT
BRANCH   7  20
HETATM   20  C   UNL     1      -9.539   7.065  70.464  1.00  0.00    -0.169 A  
HETATM   21  C   UNL     1      -9.281   5.614  68.500  1.00  0.00    -0.121 A  
HETATM   22  C   UNL     1      -9.273   6.879  69.098  1.00  0.00    -0.141 A  
HETATM   23  C   UNL     1      -9.916   4.672  70.657  1.00  0.00    -0.223 A  
HETATM   24  C   UNL     1      -9.890   5.950  71.224  1.00  0.00    -0.215 A  
HETATM   25  C   UNL     1      -9.617   4.494  69.285  1.00  0.00    -0.188 A  
BRANCH  23  26
HETATM   26  O   UNL     1     -10.257   3.552  71.382  1.00  0.00    -0.055 OA 
HETATM   27  C   UNL     1      -9.983   3.601  72.780  1.00  0.00    -0.154 C  
ENDBRANCH  23  26
BRANCH  25  28
HETATM   28  O   UNL     1      -9.602   3.183  68.866  1.00  0.00    -0.157 OA 
HETATM   29  C   UNL     1      -8.348   2.518  68.803  1.00  0.00    -0.063 C  
ENDBRANCH  25  28
BRANCH  21  30
HETATM   30  O   UNL     1      -8.926   5.429  67.188  1.00  0.00    -0.113 OA 
HETATM   31  C   UNL     1      -7.557   5.583  66.826  1.00  0.00    -0.088 C  
ENDBRANCH  21  30
ENDBRANCH   7  20
TORSDOF 4
ENDMDL
MODEL      130
REMARK 921   NORMALIZED FREE ENERGY PREDICTED BY IDOCK:   -3.74 KCAL/MOL
REMARK 922        TOTAL FREE ENERGY PREDICTED BY IDOCK:   -5.36 KCAL/MOL
REMARK 923 INTER-LIGAND FREE ENERGY PREDICTED BY IDOCK:   -4.68 KCAL/MOL
REMARK 924 INTRA-LIGAND FREE ENERGY PREDICTED BY IDOCK:   -0.69 KCAL/MOL
REMARK 927      BINDING AFFINITY PREDICTED BY RF-SCORE:    0.00 PKD
ROOT
HETATM    1  C   UNL     1      -8.902   8.467  65.888  1.00  0.00    -0.212 C  
HETATM    2  C   UNL     1      -8.393   8.253  64.488  1.00  0.00    -0.087 C  
HETATM    3  O   UNL     1      -8.605   9.526  63.848  1.00  0.00    -0.186 OA 
HETATM    4  C   UNL     1      -9.568  10.236  64.522  1.00  0.00    -0.316 C  
HETATM    5  C   UNL     1     -10.060   9.410  65.671  1.00  0.00    -0.074 C  
HETATM    6  O   UNL     1     -10.014  11.313  64.160  1.00  0.00    -0.252 OA 
HETATM    7  C   UNL     1     -10.434  10.091  66.988  1.00  0.00    -0.302 C  
HETATM    8  C   UNL     1     -11.828   7.467  72.091  1.00  0.00    -0.286 C  
HETATM    9  C   UNL     1     -10.722   9.004  68.034  1.00  0.00    -0.184 A  
HETATM   10  O   UNL     1     -12.154   8.692  71.403  1.00  0.00    -0.288 OA 
HETATM   11  C   UNL     1     -11.439   9.378  69.184  1.00  0.00     0.280 A  
HETATM   12  C   UNL     1     -11.567   8.463  70.201  1.00  0.00     0.104 A  
HETATM   13  C   UNL     1     -10.166   7.681  67.919  1.00  0.00    -0.250 A  
HETATM   14  C   UNL     1     -11.054   7.196  70.093  1.00  0.00    -0.272 A  
HETATM   15  C   UNL     1      -9.361   7.257  66.685  1.00  0.00    -0.171 C  
HETATM   16  H   UNL     1      -8.471   5.788  67.552  1.00  0.00     0.000 HD 
HETATM   17  O   UNL     1     -11.258   6.463  71.222  1.00  0.00    -0.268 OA 
HETATM   18  C   UNL     1     -10.381   6.765  68.966  1.00  0.00    -0.212 A  
HETATM   19  O   UNL     1      -8.185   6.544  67.053  1.00  0.00    -0.111 OA 
ENDROOT
BRANCH   7  20
HETATM   20  C   UNL     1      -9.386  11.088  67.481  1.00  0.00    -0.167 A  
HETATM   21  C   UNL     1      -7.064  11.663  68.039  1.00  0.00    -0.080 A  
HETATM   22  C   UNL     1      -8.051  10.723  67.719  1.00  0.00    -0.111 A  
HETATM   23  C   UNL     1      -8.782  13.391  67.969  1.00  0.00    -0.178 A  
HETATM   24  C   UNL     1      -9.741  12.427  67.642  1.00  0.00    -0.195 A  
HETATM   25  C   UNL     1      -7.434  13.015  68.178  1.00  0.00    -0.130 A  
BRANCH  23  26
HETATM   26  O   UNL     1      -9.102  14.721  68.133  1.00  0.00    -0.171 OA 
HETATM   27  C   UNL     1     -10.428  15.097  67.770  1.00  0.00    -0.247 C  
ENDBRANCH  23  26
BRANCH  25  28
HETATM   28  O   UNL     1      -6.576  14.064  68.420  1.00  0.00    -0.088 OA 
HETATM   29  C   UNL     1      -6.181  14.305  69.763  1.00  0.00    -0.139 C  
ENDBRANCH  25  28
BRANCH  21  30
HETATM   30  O   UNL     1      -5.746  11.313  68.176  1.00  0.00    -0.046 OA 
HETATM   31  C   UNL     1      -5.435   9.987  68.598  1.00  0.00    -0.039 C  
ENDBRANCH  21  30
ENDBRANCH   7  20
TORSDOF 4
ENDMDL
MODEL      131
REMARK 921   NORMALIZED FREE ENERGY PREDICTED BY IDOCK:   -3.70 KCAL/MOL
REMARK 922        TOTAL FREE ENERGY PREDICTED BY IDOCK:   -5.32 KCAL/MOL
REMARK 923 INTER-LIGAND FREE ENERGY PREDICTED BY IDOCK:   -6.12 KCAL/MOL
REMARK 924 INTRA-LIGAND FREE ENERGY PREDICTED BY IDOCK:    0.80 KCAL/MOL
REMARK 927      BINDING AFFINITY PREDICTED BY RF-SCORE:    0.00 PKD
ROOT
HETATM    1  C   UNL     1      -9.767   8.193  71.491  1.00  0.00    -0.230 C  
HETATM    2  C   UNL     1      -9.974   8.162  72.980  1.00  0.00    -0.233 C  
HETATM    3  O   UNL     1     -11.059   7.232  73.158  1.00  0.00    -0.331 OA 
HETATM    4  C   UNL     1     -11.777   7.122  71.992  1.00  0.00    -0.289 C  
HETATM    5  C   UNL     1     -11.173   8.031  70.966  1.00  0.00    -0.287 C  
HETATM    6  O   UNL     1     -12.802   6.471  71.870  1.00  0.00    -0.301 OA 
HETATM    7  C   UNL     1     -11.137   7.600  69.499  1.00  0.00    -0.031 C  
HETATM    8  C   UNL     1      -8.390  10.332  65.043  1.00  0.00    -0.168 C  
HETATM    9  C   UNL     1     -10.307   8.623  68.711  1.00  0.00    -0.228 A  
HETATM   10  O   UNL     1      -9.558   9.507  65.223  1.00  0.00    -0.283 OA 
HETATM   11  C   UNL     1     -10.452   8.643  67.312  1.00  0.00    -0.360 A  
HETATM   12  C   UNL     1      -9.604   9.437  66.579  1.00  0.00    -0.208 A  
HETATM   13  C   UNL     1      -9.314   9.445  69.353  1.00  0.00    -0.172 A  
HETATM   14  C   UNL     1      -8.666  10.233  67.183  1.00  0.00    -0.129 A  
HETATM   15  C   UNL     1      -9.122   9.424  70.874  1.00  0.00    -0.152 C  
HETATM   16  H   UNL     1      -7.339  10.145  70.836  1.00  0.00     0.000 HD 
HETATM   17  O   UNL     1      -7.908  10.910  66.277  1.00  0.00    -0.155 OA 
HETATM   18  C   UNL     1      -8.515  10.285  68.556  1.00  0.00    -0.121 A  
HETATM   19  O   UNL     1      -7.743   9.376  71.222  1.00  0.00    -0.336 OA 
ENDROOT
BRANCH   7  20
HETATM   20  C   UNL     1     -10.624   6.175  69.292  1.00  0.00    -0.348 A  
HETATM   21  C   UNL     1      -9.802   4.380  67.831  1.00  0.00    -0.080 A  
HETATM   22  C   UNL     1     -10.398   5.633  68.017  1.00  0.00    -0.258 A  
HETATM   23  C   UNL     1      -9.715   4.137  70.255  1.00  0.00    -0.207 A  
HETATM   24  C   UNL     1     -10.304   5.397  70.404  1.00  0.00    -0.353 A  
HETATM   25  C   UNL     1      -9.466   3.614  68.965  1.00  0.00    -0.156 A  
BRANCH  23  26
HETATM   26  O   UNL     1      -9.387   3.346  71.334  1.00  0.00    -0.113 OA 
HETATM   27  C   UNL     1     -10.143   3.560  72.523  1.00  0.00    -0.165 C  
ENDBRANCH  23  26
BRANCH  25  28
HETATM   28  O   UNL     1      -8.815   2.401  68.952  1.00  0.00    -0.076 OA 
HETATM   29  C   UNL     1      -7.419   2.396  68.688  1.00  0.00    -0.047 C  
ENDBRANCH  25  28
BRANCH  21  30
HETATM   30  O   UNL     1      -9.497   3.899  66.584  1.00  0.00    -0.178 OA 
HETATM   31  C   UNL     1     -10.372   4.211  65.503  1.00  0.00    -0.124 C  
ENDBRANCH  21  30
ENDBRANCH   7  20
TORSDOF 4
ENDMDL
MODEL      132
REMARK 921   NORMALIZED FREE ENERGY PREDICTED BY IDOCK:   -3.62 KCAL/MOL
REMARK 922        TOTAL FREE ENERGY PREDICTED BY IDOCK:   -5.22 KCAL/MOL
REMARK 923 INTER-LIGAND FREE ENERGY PREDICTED BY IDOCK:   -4.77 KCAL/MOL
REMARK 924 INTRA-LIGAND FREE ENERGY PREDICTED BY IDOCK:   -0.45 KCAL/MOL
REMARK 927      BINDING AFFINITY PREDICTED BY RF-SCORE:    0.00 PKD
ROOT
HETATM    1  C   UNL     1      -7.106   9.836  69.093  1.00  0.00    -0.067 C  
HETATM    2  C   UNL     1      -6.797   9.768  70.564  1.00  0.00    -0.127 C  
HETATM    3  O   UNL     1      -6.281  11.078  70.868  1.00  0.00    -0.362 OA 
HETATM    4  C   UNL     1      -5.821  11.678  69.722  1.00  0.00    -0.111 C  
HETATM    5  C   UNL     1      -6.010  10.734  68.574  1.00  0.00    -0.043 C  
HETATM    6  O   UNL     1      -5.252  12.758  69.687  1.00  0.00    -0.072 OA 
HETATM    7  C   UNL     1      -6.390  11.281  67.198  1.00  0.00    -0.096 C  
HETATM    8  C   UNL     1      -7.902   8.169  62.412  1.00  0.00    -0.138 C  
HETATM    9  C   UNL     1      -6.697  10.097  66.270  1.00  0.00    -0.102 A  
HETATM   10  O   UNL     1      -7.263   9.429  62.701  1.00  0.00    -0.101 OA 
HETATM   11  C   UNL     1      -6.697  10.336  64.884  1.00  0.00    -0.099 A  
HETATM   12  C   UNL     1      -7.125   9.333  64.048  1.00  0.00    -0.098 A  
HETATM   13  C   UNL     1      -7.106   8.818  66.790  1.00  0.00    -0.081 A  
HETATM   14  C   UNL     1      -7.502   8.108  64.534  1.00  0.00    -0.102 A  
HETATM   15  C   UNL     1      -7.137   8.541  68.297  1.00  0.00    -0.085 C  
HETATM   16  H   UNL     1      -8.347   7.051  68.178  1.00  0.00     0.000 HD 
HETATM   17  O   UNL     1      -7.925   7.272  63.546  1.00  0.00    -0.123 OA 
HETATM   18  C   UNL     1      -7.476   7.807  65.883  1.00  0.00    -0.081 A  
HETATM   19  O   UNL     1      -8.328   7.861  68.676  1.00  0.00    -0.126 OA 
ENDROOT
BRANCH   7  20
HETATM   20  C   UNL     1      -7.542  12.286  67.235  1.00  0.00    -0.152 A  
HETATM   21  C   UNL     1      -8.379  14.587  67.417  1.00  0.00    -0.200 A  
HETATM   22  C   UNL     1      -7.346  13.647  67.516  1.00  0.00    -0.178 A  
HETATM   23  C   UNL     1      -9.886  12.768  66.815  1.00  0.00    -0.242 A  
HETATM   24  C   UNL     1      -8.830  11.858  66.915  1.00  0.00    -0.197 A  
HETATM   25  C   UNL     1      -9.671  14.143  67.073  1.00  0.00    -0.258 A  
BRANCH  23  26
HETATM   26  O   UNL     1     -11.169  12.377  66.500  1.00  0.00    -0.285 OA 
HETATM   27  C   UNL     1     -11.378  11.930  65.163  1.00  0.00    -0.269 C  
ENDBRANCH  23  26
BRANCH  25  28
HETATM   28  O   UNL     1     -10.770  14.945  66.868  1.00  0.00    -0.295 OA 
HETATM   29  C   UNL     1     -10.797  15.753  65.699  1.00  0.00    -0.307 C  
ENDBRANCH  25  28
BRANCH  21  30
HETATM   30  O   UNL     1      -8.159  15.929  67.599  1.00  0.00    -0.135 OA 
HETATM   31  C   UNL     1      -8.125  16.436  68.930  1.00  0.00    -0.236 C  
ENDBRANCH  21  30
ENDBRANCH   7  20
TORSDOF 4
ENDMDL
MODEL      133
REMARK 921   NORMALIZED FREE ENERGY PREDICTED BY IDOCK:   -3.55 KCAL/MOL
REMARK 922        TOTAL FREE ENERGY PREDICTED BY IDOCK:   -5.13 KCAL/MOL
REMARK 923 INTER-LIGAND FREE ENERGY PREDICTED BY IDOCK:   -4.32 KCAL/MOL
REMARK 924 INTRA-LIGAND FREE ENERGY PREDICTED BY IDOCK:   -0.82 KCAL/MOL
REMARK 927      BINDING AFFINITY PREDICTED BY RF-SCORE:    0.00 PKD
ROOT
HETATM    1  C   UNL     1     -10.069   7.663  68.593  1.00  0.00    -0.201 C  
HETATM    2  C   UNL     1     -10.681   8.974  69.004  1.00  0.00    -0.141 C  
HETATM    3  O   UNL     1     -11.366   8.664  70.233  1.00  0.00    -0.235 OA 
HETATM    4  C   UNL     1     -11.619   7.316  70.301  1.00  0.00    -0.174 C  
HETATM    5  C   UNL     1     -11.102   6.665  69.054  1.00  0.00    -0.318 C  
HETATM    6  O   UNL     1     -12.260   6.777  71.188  1.00  0.00    -0.368 OA 
HETATM    7  C   UNL     1     -10.484   5.268  69.129  1.00  0.00    -0.227 C  
HETATM    8  C   UNL     1      -7.701   2.361  64.807  1.00  0.00    -0.073 C  
HETATM    9  C   UNL     1      -9.878   4.929  67.759  1.00  0.00    -0.196 A  
HETATM   10  O   UNL     1      -8.497   2.035  65.965  1.00  0.00    -0.091 OA 
HETATM   11  C   UNL     1      -9.600   3.579  67.484  1.00  0.00    -0.177 A  
HETATM   12  C   UNL     1      -8.914   3.273  66.334  1.00  0.00    -0.151 A  
HETATM   13  C   UNL     1      -9.480   5.959  66.835  1.00  0.00    -0.145 A  
HETATM   14  C   UNL     1      -8.543   4.246  65.442  1.00  0.00    -0.120 A  
HETATM   15  C   UNL     1      -9.751   7.440  67.123  1.00  0.00    -0.171 C  
HETATM   16  H   UNL     1      -8.415   8.103  65.909  1.00  0.00     0.000 HD 
HETATM   17  O   UNL     1      -7.843   3.738  64.391  1.00  0.00    -0.083 OA 
HETATM   18  C   UNL     1      -8.833   5.582  65.643  1.00  0.00    -0.154 A  
HETATM   19  O   UNL     1      -8.614   8.243  66.827  1.00  0.00    -0.121 OA 
ENDROOT
BRANCH   7  20
HETATM   20  C   UNL     1      -9.461   5.111  70.255  1.00  0.00    -0.233 A  
HETATM   21  C   UNL     1      -8.722   4.072  72.353  1.00  0.00    -0.106 A  
HETATM   22  C   UNL     1      -9.707   4.324  71.391  1.00  0.00    -0.252 A  
HETATM   23  C   UNL     1      -7.206   5.490  71.075  1.00  0.00    -0.078 A  
HETATM   24  C   UNL     1      -8.211   5.714  70.129  1.00  0.00    -0.114 A  
HETATM   25  C   UNL     1      -7.456   4.672  72.202  1.00  0.00    -0.082 A  
BRANCH  23  26
HETATM   26  O   UNL     1      -5.960   6.070  70.978  1.00  0.00    -0.027 OA 
HETATM   27  C   UNL     1      -5.909   7.483  71.160  1.00  0.00    -0.035 C  
ENDBRANCH  23  26
BRANCH  25  28
HETATM   28  O   UNL     1      -6.367   4.469  73.018  1.00  0.00    -0.033 OA 
HETATM   29  C   UNL     1      -6.307   5.191  74.241  1.00  0.00    -0.064 C  
ENDBRANCH  25  28
BRANCH  21  30
HETATM   30  O   UNL     1      -8.939   3.226  73.410  1.00  0.00    -0.085 OA 
HETATM   31  C   UNL     1      -8.690   1.834  73.228  1.00  0.00    -0.062 C  
ENDBRANCH  21  30
ENDBRANCH   7  20
TORSDOF 4
ENDMDL
MODEL      134
REMARK 921   NORMALIZED FREE ENERGY PREDICTED BY IDOCK:   -3.52 KCAL/MOL
REMARK 922        TOTAL FREE ENERGY PREDICTED BY IDOCK:   -5.09 KCAL/MOL
REMARK 923 INTER-LIGAND FREE ENERGY PREDICTED BY IDOCK:   -4.56 KCAL/MOL
REMARK 924 INTRA-LIGAND FREE ENERGY PREDICTED BY IDOCK:   -0.54 KCAL/MOL
REMARK 927      BINDING AFFINITY PREDICTED BY RF-SCORE:    0.00 PKD
ROOT
HETATM    1  C   UNL     1      -8.643   9.387  69.274  1.00  0.00    -0.143 C  
HETATM    2  C   UNL     1      -8.846   8.817  70.651  1.00  0.00    -0.182 C  
HETATM    3  O   UNL     1      -7.904   9.542  71.465  1.00  0.00    -0.243 OA 
HETATM    4  C   UNL     1      -6.908  10.064  70.677  1.00  0.00    -0.047 C  
HETATM    5  C   UNL     1      -7.161   9.668  69.254  1.00  0.00    -0.069 C  
HETATM    6  O   UNL     1      -5.928  10.655  71.102  1.00  0.00    -0.320 OA 
HETATM    7  C   UNL     1      -6.828  10.644  68.126  1.00  0.00    -0.068 C  
HETATM    8  C   UNL     1      -8.115  10.043  62.394  1.00  0.00    -0.133 C  
HETATM    9  C   UNL     1      -7.354  10.061  66.806  1.00  0.00    -0.095 A  
HETATM   10  O   UNL     1      -7.089  10.667  63.191  1.00  0.00    -0.043 OA 
HETATM   11  C   UNL     1      -6.839  10.587  65.608  1.00  0.00    -0.112 A  
HETATM   12  C   UNL     1      -7.411  10.193  64.423  1.00  0.00    -0.123 A  
HETATM   13  C   UNL     1      -8.433   9.107  66.780  1.00  0.00    -0.125 A  
HETATM   14  C   UNL     1      -8.429   9.275  64.388  1.00  0.00    -0.188 A  
HETATM   15  C   UNL     1      -9.027   8.537  68.073  1.00  0.00    -0.141 C  
HETATM   16  H   UNL     1     -10.688   7.986  67.276  1.00  0.00     0.000 HD 
HETATM   17  O   UNL     1      -8.875   9.052  63.121  1.00  0.00    -0.163 OA 
HETATM   18  C   UNL     1      -8.939   8.694  65.533  1.00  0.00    -0.209 A  
HETATM   19  O   UNL     1     -10.449   8.517  68.027  1.00  0.00    -0.221 OA 
ENDROOT
BRANCH   7  20
HETATM   20  C   UNL     1      -7.350  12.060  68.367  1.00  0.00    -0.096 A  
HETATM   21  C   UNL     1      -6.971  14.423  68.921  1.00  0.00    -0.105 A  
HETATM   22  C   UNL     1      -6.525  13.098  68.830  1.00  0.00    -0.097 A  
HETATM   23  C   UNL     1      -9.155  13.671  68.144  1.00  0.00    -0.195 A  
HETATM   24  C   UNL     1      -8.675  12.361  68.056  1.00  0.00    -0.186 A  
HETATM   25  C   UNL     1      -8.307  14.714  68.585  1.00  0.00    -0.165 A  
BRANCH  23  26
HETATM   26  O   UNL     1     -10.459  13.999  67.842  1.00  0.00    -0.236 OA 
HETATM   27  C   UNL     1     -11.467  13.292  68.561  1.00  0.00    -0.312 C  
ENDBRANCH  23  26
BRANCH  25  28
HETATM   28  O   UNL     1      -8.874  15.968  68.555  1.00  0.00    -0.183 OA 
HETATM   29  C   UNL     1      -9.017  16.605  67.293  1.00  0.00    -0.200 C  
ENDBRANCH  25  28
BRANCH  21  30
HETATM   30  O   UNL     1      -6.133  15.446  69.284  1.00  0.00    -0.105 OA 
HETATM   31  C   UNL     1      -5.707  15.527  70.641  1.00  0.00    -0.050 C  
ENDBRANCH  21  30
ENDBRANCH   7  20
TORSDOF 4
ENDMDL
MODEL      135
REMARK 921   NORMALIZED FREE ENERGY PREDICTED BY IDOCK:   -3.51 KCAL/MOL
REMARK 922        TOTAL FREE ENERGY PREDICTED BY IDOCK:   -5.09 KCAL/MOL
REMARK 923 INTER-LIGAND FREE ENERGY PREDICTED BY IDOCK:   -5.76 KCAL/MOL
REMARK 924 INTRA-LIGAND FREE ENERGY PREDICTED BY IDOCK:    0.67 KCAL/MOL
REMARK 927      BINDING AFFINITY PREDICTED BY RF-SCORE:    0.00 PKD
ROOT
HETATM    1  C   UNL     1      -7.080  11.695  68.584  1.00  0.00    -0.099 C  
HETATM    2  C   UNL     1      -6.301  10.605  69.269  1.00  0.00    -0.057 C  
HETATM    3  O   UNL     1      -7.171   9.459  69.191  1.00  0.00    -0.064 OA 
HETATM    4  C   UNL     1      -8.469   9.869  69.003  1.00  0.00    -0.136 C  
HETATM    5  C   UNL     1      -8.502  11.366  68.967  1.00  0.00     0.051 C  
HETATM    6  O   UNL     1      -9.433   9.121  68.984  1.00  0.00    -0.149 OA 
HETATM    7  C   UNL     1      -9.475  12.080  68.028  1.00  0.00    -0.199 C  
HETATM    8  C   UNL     1      -9.737  17.868  66.889  1.00  0.00    -0.309 C  
HETATM    9  C   UNL     1      -9.168  13.584  68.060  1.00  0.00    -0.209 A  
HETATM   10  O   UNL     1     -10.649  16.753  66.934  1.00  0.00    -0.298 OA 
HETATM   11  C   UNL     1     -10.157  14.463  67.583  1.00  0.00    -0.222 A  
HETATM   12  C   UNL     1      -9.841  15.793  67.454  1.00  0.00    -0.233 A  
HETATM   13  C   UNL     1      -7.870  14.081  68.435  1.00  0.00    -0.144 A  
HETATM   14  C   UNL     1      -8.612  16.277  67.821  1.00  0.00    -0.171 A  
HETATM   15  C   UNL     1      -6.768  13.140  68.936  1.00  0.00    -0.099 C  
HETATM   16  H   UNL     1      -5.319  14.347  68.556  1.00  0.00     0.000 HD 
HETATM   17  O   UNL     1      -8.493  17.612  67.580  1.00  0.00    -0.220 OA 
HETATM   18  C   UNL     1      -7.623  15.464  68.340  1.00  0.00    -0.116 A  
HETATM   19  O   UNL     1      -5.514  13.443  68.336  1.00  0.00    -0.075 OA 
ENDROOT
BRANCH   7  20
HETATM   20  C   UNL     1      -9.465  11.530  66.602  1.00  0.00    -0.208 A  
HETATM   21  C   UNL     1     -10.495  11.290  64.385  1.00  0.00    -0.345 A  
HETATM   22  C   UNL     1     -10.556  11.673  65.730  1.00  0.00    -0.320 A  
HETATM   23  C   UNL     1      -8.217  10.516  64.779  1.00  0.00    -0.100 A  
HETATM   24  C   UNL     1      -8.310  10.919  66.115  1.00  0.00    -0.168 A  
HETATM   25  C   UNL     1      -9.314  10.693  63.903  1.00  0.00    -0.267 A  
BRANCH  23  26
HETATM   26  O   UNL     1      -7.090   9.912  64.269  1.00  0.00    -0.122 OA 
HETATM   27  C   UNL     1      -5.845  10.524  64.598  1.00  0.00    -0.083 C  
ENDBRANCH  23  26
BRANCH  25  28
HETATM   28  O   UNL     1      -9.072  10.326  62.599  1.00  0.00    -0.228 OA 
HETATM   29  C   UNL     1      -8.746   8.969  62.337  1.00  0.00    -0.207 C  
ENDBRANCH  25  28
BRANCH  21  30
HETATM   30  O   UNL     1     -11.531  11.520  63.517  1.00  0.00    -0.404 OA 
HETATM   31  C   UNL     1     -12.140  12.809  63.514  1.00  0.00    -0.559 C  
ENDBRANCH  21  30
ENDBRANCH   7  20
TORSDOF 4
ENDMDL
MODEL      136
REMARK 921   NORMALIZED FREE ENERGY PREDICTED BY IDOCK:   -3.51 KCAL/MOL
REMARK 922        TOTAL FREE ENERGY PREDICTED BY IDOCK:   -5.08 KCAL/MOL
REMARK 923 INTER-LIGAND FREE ENERGY PREDICTED BY IDOCK:   -4.84 KCAL/MOL
REMARK 924 INTRA-LIGAND FREE ENERGY PREDICTED BY IDOCK:   -0.24 KCAL/MOL
REMARK 927      BINDING AFFINITY PREDICTED BY RF-SCORE:    0.00 PKD
ROOT
HETATM    1  C   UNL     1      -7.514   6.008  69.091  1.00  0.00    -0.086 C  
HETATM    2  C   UNL     1      -6.739   6.260  70.355  1.00  0.00    -0.053 C  
HETATM    3  O   UNL     1      -6.311   7.630  70.230  1.00  0.00    -0.033 OA 
HETATM    4  C   UNL     1      -6.323   8.005  68.908  1.00  0.00    -0.040 C  
HETATM    5  C   UNL     1      -6.761   6.836  68.079  1.00  0.00    -0.068 C  
HETATM    6  O   UNL     1      -5.929   9.082  68.492  1.00  0.00    -0.044 OA 
HETATM    7  C   UNL     1      -7.629   7.068  66.842  1.00  0.00    -0.094 C  
HETATM    8  C   UNL     1     -10.232   2.964  63.488  1.00  0.00    -0.177 C  
HETATM    9  C   UNL     1      -8.078   5.704  66.299  1.00  0.00    -0.107 A  
HETATM   10  O   UNL     1      -9.688   4.288  63.315  1.00  0.00    -0.140 OA 
HETATM   11  C   UNL     1      -8.556   5.652  64.978  1.00  0.00    -0.108 A  
HETATM   12  C   UNL     1      -9.110   4.479  64.529  1.00  0.00    -0.148 A  
HETATM   13  C   UNL     1      -8.141   4.540  67.144  1.00  0.00    -0.102 A  
HETATM   14  C   UNL     1      -9.161   3.361  65.321  1.00  0.00    -0.146 A  
HETATM   15  C   UNL     1      -7.648   4.578  68.595  1.00  0.00    -0.064 C  
HETATM   16  H   UNL     1      -8.646   3.034  69.160  1.00  0.00     0.000 HD 
HETATM   17  O   UNL     1      -9.779   2.319  64.700  1.00  0.00    -0.101 OA 
HETATM   18  C   UNL     1      -8.662   3.346  66.610  1.00  0.00    -0.129 A  
HETATM   19  O   UNL     1      -8.562   3.928  69.471  1.00  0.00    -0.066 OA 
ENDROOT
BRANCH   7  20
HETATM   20  C   UNL     1      -8.817   7.997  67.093  1.00  0.00    -0.138 A  
HETATM   21  C   UNL     1     -10.494   8.981  68.594  1.00  0.00    -0.200 A  
HETATM   22  C   UNL     1      -9.496   8.037  68.322  1.00  0.00    -0.147 A  
HETATM   23  C   UNL     1     -10.207   9.839  66.331  1.00  0.00    -0.217 A  
HETATM   24  C   UNL     1      -9.208   8.889  66.095  1.00  0.00    -0.273 A  
HETATM   25  C   UNL     1     -10.865   9.888  67.583  1.00  0.00    -0.257 A  
BRANCH  23  26
HETATM   26  O   UNL     1     -10.614  10.733  65.366  1.00  0.00    -0.242 OA 
HETATM   27  C   UNL     1      -9.861  10.738  64.155  1.00  0.00    -0.326 C  
ENDBRANCH  23  26
BRANCH  25  28
HETATM   28  O   UNL     1     -11.773  10.914  67.715  1.00  0.00    -0.569 OA 
HETATM   29  C   UNL     1     -11.335  12.116  68.333  1.00  0.00    -0.286 C  
ENDBRANCH  25  28
BRANCH  21  30
HETATM   30  O   UNL     1     -11.086   9.075  69.828  1.00  0.00    -0.206 OA 
HETATM   31  C   UNL     1     -10.256   9.025  70.985  1.00  0.00    -0.277 C  
ENDBRANCH  21  30
ENDBRANCH   7  20
TORSDOF 4
ENDMDL
MODEL      137
REMARK 921   NORMALIZED FREE ENERGY PREDICTED BY IDOCK:   -3.51 KCAL/MOL
REMARK 922        TOTAL FREE ENERGY PREDICTED BY IDOCK:   -5.08 KCAL/MOL
REMARK 923 INTER-LIGAND FREE ENERGY PREDICTED BY IDOCK:   -4.47 KCAL/MOL
REMARK 924 INTRA-LIGAND FREE ENERGY PREDICTED BY IDOCK:   -0.60 KCAL/MOL
REMARK 927      BINDING AFFINITY PREDICTED BY RF-SCORE:    0.00 PKD
ROOT
HETATM    1  C   UNL     1      -7.308   8.507  69.242  1.00  0.00    -0.071 C  
HETATM    2  C   UNL     1      -5.934   8.832  68.725  1.00  0.00    -0.044 C  
HETATM    3  O   UNL     1      -5.226   7.581  68.820  1.00  0.00    -0.020 OA 
HETATM    4  C   UNL     1      -5.841   6.763  69.737  1.00  0.00    -0.019 C  
HETATM    5  C   UNL     1      -7.017   7.487  70.316  1.00  0.00    -0.055 C  
HETATM    6  O   UNL     1      -5.415   5.674  70.087  1.00  0.00    -0.008 OA 
HETATM    7  C   UNL     1      -8.290   6.712  70.660  1.00  0.00    -0.129 C  
HETATM    8  C   UNL     1     -13.483   8.950  72.361  1.00  0.00    -0.450 C  
HETATM    9  C   UNL     1      -9.381   7.717  71.054  1.00  0.00    -0.156 A  
HETATM   10  O   UNL     1     -12.727   7.741  72.574  1.00  0.00    -0.093 OA 
HETATM   11  C   UNL     1     -10.494   7.229  71.762  1.00  0.00    -0.218 A  
HETATM   12  C   UNL     1     -11.552   8.077  71.983  1.00  0.00    -0.316 A  
HETATM   13  C   UNL     1      -9.345   9.084  70.605  1.00  0.00    -0.283 A  
HETATM   14  C   UNL     1     -11.520   9.384  71.571  1.00  0.00    -0.397 A  
HETATM   15  C   UNL     1      -8.154   9.634  69.812  1.00  0.00    -0.155 C  
HETATM   16  H   UNL     1      -9.114  11.123  69.062  1.00  0.00     0.000 HD 
HETATM   17  O   UNL     1     -12.678  10.040  71.856  1.00  0.00    -0.395 OA 
HETATM   18  C   UNL     1     -10.431   9.925  70.914  1.00  0.00    -0.192 A  
HETATM   19  O   UNL     1      -8.585  10.418  68.705  1.00  0.00    -0.124 OA 
ENDROOT
BRANCH   7  20
HETATM   20  C   UNL     1      -8.757   5.777  69.544  1.00  0.00    -0.111 A  
HETATM   21  C   UNL     1      -9.359   5.365  67.199  1.00  0.00    -0.117 A  
HETATM   22  C   UNL     1      -9.062   6.237  68.253  1.00  0.00    -0.113 A  
HETATM   23  C   UNL     1      -9.126   3.506  68.760  1.00  0.00    -0.145 A  
HETATM   24  C   UNL     1      -8.825   4.406  69.788  1.00  0.00    -0.129 A  
HETATM   25  C   UNL     1      -9.403   3.980  67.456  1.00  0.00    -0.183 A  
BRANCH  23  26
HETATM   26  O   UNL     1      -9.199   2.147  68.969  1.00  0.00    -0.117 OA 
HETATM   27  C   UNL     1      -8.239   1.598  69.868  1.00  0.00    -0.044 C  
ENDBRANCH  23  26
BRANCH  25  28
HETATM   28  O   UNL     1      -9.611   2.994  66.518  1.00  0.00    -0.067 OA 
HETATM   29  C   UNL     1      -8.471   2.369  65.945  1.00  0.00    -0.100 C  
ENDBRANCH  25  28
BRANCH  21  30
HETATM   30  O   UNL     1      -9.562   5.815  65.920  1.00  0.00    -0.110 OA 
HETATM   31  C   UNL     1      -8.437   5.923  65.052  1.00  0.00    -0.111 C  
ENDBRANCH  21  30
ENDBRANCH   7  20
TORSDOF 4
ENDMDL
MODEL      138
REMARK 921   NORMALIZED FREE ENERGY PREDICTED BY IDOCK:   -3.48 KCAL/MOL
REMARK 922        TOTAL FREE ENERGY PREDICTED BY IDOCK:   -5.04 KCAL/MOL
REMARK 923 INTER-LIGAND FREE ENERGY PREDICTED BY IDOCK:   -4.49 KCAL/MOL
REMARK 924 INTRA-LIGAND FREE ENERGY PREDICTED BY IDOCK:   -0.56 KCAL/MOL
REMARK 927      BINDING AFFINITY PREDICTED BY RF-SCORE:    0.00 PKD
ROOT
HETATM    1  C   UNL     1      -8.529  10.288  64.114  1.00  0.00    -0.180 C  
HETATM    2  C   UNL     1      -7.964  10.494  62.735  1.00  0.00    -0.138 C  
HETATM    3  O   UNL     1      -6.648   9.913  62.812  1.00  0.00    -0.108 OA 
HETATM    4  C   UNL     1      -6.237   9.857  64.121  1.00  0.00    -0.124 C  
HETATM    5  C   UNL     1      -7.309  10.441  64.989  1.00  0.00    -0.070 C  
HETATM    6  O   UNL     1      -5.130   9.490  64.483  1.00  0.00    -0.047 OA 
HETATM    7  C   UNL     1      -7.577   9.841  66.370  1.00  0.00    -0.099 C  
HETATM    8  C   UNL     1     -11.996  11.184  70.049  1.00  0.00    -0.367 C  
HETATM    9  C   UNL     1      -8.832  10.504  66.954  1.00  0.00    -0.143 A  
HETATM   10  O   UNL     1     -10.633  10.726  70.150  1.00  0.00    -0.133 OA 
HETATM   11  C   UNL     1      -9.046  10.391  68.339  1.00  0.00    -0.147 A  
HETATM   12  C   UNL     1     -10.239  10.836  68.855  1.00  0.00    -0.203 A  
HETATM   13  C   UNL     1      -9.831  11.105  66.109  1.00  0.00    -0.265 A  
HETATM   14  C   UNL     1     -11.189  11.422  68.060  1.00  0.00    -0.281 A  
HETATM   15  C   UNL     1      -9.631  11.219  64.593  1.00  0.00    -0.231 C  
HETATM   16  H   UNL     1     -11.499  11.431  64.185  1.00  0.00     0.000 HD 
HETATM   17  O   UNL     1     -12.307  11.759  68.760  1.00  0.00    -0.314 OA 
HETATM   18  C   UNL     1     -11.008  11.600  66.701  1.00  0.00    -0.349 A  
HETATM   19  O   UNL     1     -10.810  10.850  63.885  1.00  0.00    -0.283 OA 
ENDROOT
BRANCH   7  20
HETATM   20  C   UNL     1      -7.692   8.316  66.363  1.00  0.00    -0.091 A  
HETATM   21  C   UNL     1      -6.701   6.087  66.642  1.00  0.00    -0.061 A  
HETATM   22  C   UNL     1      -6.578   7.475  66.513  1.00  0.00    -0.053 A  
HETATM   23  C   UNL     1      -9.112   6.344  66.387  1.00  0.00    -0.154 A  
HETATM   24  C   UNL     1      -8.953   7.729  66.271  1.00  0.00    -0.209 A  
HETATM   25  C   UNL     1      -7.984   5.509  66.567  1.00  0.00    -0.101 A  
BRANCH  23  26
HETATM   26  O   UNL     1     -10.344   5.735  66.302  1.00  0.00    -0.158 OA 
HETATM   27  C   UNL     1     -11.380   6.298  67.104  1.00  0.00     0.033 C  
ENDBRANCH  23  26
BRANCH  25  28
HETATM   28  O   UNL     1      -8.278   4.176  66.743  1.00  0.00    -0.101 OA 
HETATM   29  C   UNL     1      -8.051   3.294  65.654  1.00  0.00    -0.090 C  
ENDBRANCH  25  28
BRANCH  21  30
HETATM   30  O   UNL     1      -5.618   5.281  66.883  1.00  0.00    -0.015 OA 
HETATM   31  C   UNL     1      -5.182   5.116  68.230  1.00  0.00    -0.003 C  
ENDBRANCH  21  30
ENDBRANCH   7  20
TORSDOF 4
ENDMDL
MODEL      139
REMARK 921   NORMALIZED FREE ENERGY PREDICTED BY IDOCK:   -3.47 KCAL/MOL
REMARK 922        TOTAL FREE ENERGY PREDICTED BY IDOCK:   -5.03 KCAL/MOL
REMARK 923 INTER-LIGAND FREE ENERGY PREDICTED BY IDOCK:   -4.53 KCAL/MOL
REMARK 924 INTRA-LIGAND FREE ENERGY PREDICTED BY IDOCK:   -0.50 KCAL/MOL
REMARK 927      BINDING AFFINITY PREDICTED BY RF-SCORE:    0.00 PKD
ROOT
HETATM    1  C   UNL     1      -6.321  14.846  67.615  1.00  0.00    -0.147 C  
HETATM    2  C   UNL     1      -5.190  13.855  67.621  1.00  0.00     0.087 C  
HETATM    3  O   UNL     1      -5.746  12.701  68.282  1.00  0.00    -0.054 OA 
HETATM    4  C   UNL     1      -6.825  13.075  69.046  1.00  0.00    -0.081 C  
HETATM    5  C   UNL     1      -7.012  14.556  68.924  1.00  0.00    -0.110 C  
HETATM    6  O   UNL     1      -7.443  12.324  69.784  1.00  0.00     0.534 OA 
HETATM    7  C   UNL     1      -8.425  15.142  68.912  1.00  0.00    -0.199 C  
HETATM    8  C   UNL     1      -9.954  20.745  67.841  1.00  0.00    -0.007 C  
HETATM    9  C   UNL     1      -8.328  16.641  68.593  1.00  0.00    -0.246 A  
HETATM   10  O   UNL     1     -10.456  19.637  68.615  1.00  0.00    -0.360 OA 
HETATM   11  C   UNL     1      -9.439  17.447  68.898  1.00  0.00    -0.201 A  
HETATM   12  C   UNL     1      -9.434  18.754  68.475  1.00  0.00    -0.358 A  
HETATM   13  C   UNL     1      -7.201  17.190  67.884  1.00  0.00    -0.177 A  
HETATM   14  C   UNL     1      -8.359  19.288  67.812  1.00  0.00    -0.300 A  
HETATM   15  C   UNL     1      -5.988  16.326  67.520  1.00  0.00    -0.160 C  
HETATM   16  H   UNL     1      -5.358  17.487  66.122  1.00  0.00     0.000 HD 
HETATM   17  O   UNL     1      -8.571  20.584  67.452  1.00  0.00    -0.341 OA 
HETATM   18  C   UNL     1      -7.224  18.552  67.530  1.00  0.00    -0.214 A  
HETATM   19  O   UNL     1      -5.566  16.562  66.181  1.00  0.00     0.005 OA 
ENDROOT
BRANCH   7  20
HETATM   20  C   UNL     1      -9.378  14.421  67.958  1.00  0.00    -0.200 A  
HETATM   21  C   UNL     1      -9.986  13.645  65.709  1.00  0.00    -0.261 A  
HETATM   22  C   UNL     1      -9.191  14.415  66.567  1.00  0.00    -0.269 A  
HETATM   23  C   UNL     1     -11.257  12.910  67.655  1.00  0.00    -0.278 A  
HETATM   24  C   UNL     1     -10.439  13.684  68.483  1.00  0.00    -0.249 A  
HETATM   25  C   UNL     1     -11.041  12.889  66.257  1.00  0.00    -0.288 A  
BRANCH  23  26
HETATM   26  O   UNL     1     -12.311  12.170  68.144  1.00  0.00    -0.265 OA 
HETATM   27  C   UNL     1     -11.971  11.083  69.002  1.00  0.00    -0.293 C  
ENDBRANCH  23  26
BRANCH  25  28
HETATM   28  O   UNL     1     -11.862  12.032  65.560  1.00  0.00    -0.386 OA 
HETATM   29  C   UNL     1     -12.964  12.589  64.857  1.00  0.00     0.069 C  
ENDBRANCH  25  28
BRANCH  21  30
HETATM   30  O   UNL     1      -9.737  13.570  64.362  1.00  0.00    -0.047 OA 
HETATM   31  C   UNL     1      -9.419  12.300  63.800  1.00  0.00     0.266 C  
ENDBRANCH  21  30
ENDBRANCH   7  20
TORSDOF 4
ENDMDL
MODEL      140
REMARK 921   NORMALIZED FREE ENERGY PREDICTED BY IDOCK:   -3.46 KCAL/MOL
REMARK 922        TOTAL FREE ENERGY PREDICTED BY IDOCK:   -5.02 KCAL/MOL
REMARK 923 INTER-LIGAND FREE ENERGY PREDICTED BY IDOCK:   -4.69 KCAL/MOL
REMARK 924 INTRA-LIGAND FREE ENERGY PREDICTED BY IDOCK:   -0.34 KCAL/MOL
REMARK 927      BINDING AFFINITY PREDICTED BY RF-SCORE:    0.00 PKD
ROOT
HETATM    1  C   UNL     1      -8.475   9.831  64.462  1.00  0.00    -0.182 C  
HETATM    2  C   UNL     1      -7.824  10.058  63.125  1.00  0.00    -0.145 C  
HETATM    3  O   UNL     1      -6.544   9.408  63.251  1.00  0.00    -0.091 OA 
HETATM    4  C   UNL     1      -6.211   9.283  64.577  1.00  0.00    -0.076 C  
HETATM    5  C   UNL     1      -7.300   9.890  65.408  1.00  0.00    -0.128 C  
HETATM    6  O   UNL     1      -5.146   8.847  64.984  1.00  0.00    -0.037 OA 
HETATM    7  C   UNL     1      -7.674   9.255  66.747  1.00  0.00    -0.094 C  
HETATM    8  C   UNL     1     -12.223  10.690  70.230  1.00  0.00    -0.334 C  
HETATM    9  C   UNL     1      -8.927   9.960  67.288  1.00  0.00    -0.145 A  
HETATM   10  O   UNL     1     -10.891  10.158  70.387  1.00  0.00    -0.292 OA 
HETATM   11  C   UNL     1      -9.223   9.808  68.654  1.00  0.00    -0.137 A  
HETATM   12  C   UNL     1     -10.420  10.295  69.121  1.00  0.00    -0.224 A  
HETATM   13  C   UNL     1      -9.845  10.641  66.413  1.00  0.00    -0.259 A  
HETATM   14  C   UNL     1     -11.293  10.958  68.298  1.00  0.00    -0.308 A  
HETATM   15  C   UNL     1      -9.555  10.800  64.917  1.00  0.00    -0.256 C  
HETATM   16  H   UNL     1     -11.384  11.123  64.416  1.00  0.00     0.000 HD 
HETATM   17  O   UNL     1     -12.431  11.326  68.949  1.00  0.00    -0.433 OA 
HETATM   18  C   UNL     1     -11.028  11.175  66.959  1.00  0.00    -0.348 A  
HETATM   19  O   UNL     1     -10.708  10.518  64.131  1.00  0.00    -0.052 OA 
ENDROOT
BRANCH   7  20
HETATM   20  C   UNL     1      -7.865   7.739  66.675  1.00  0.00    -0.102 A  
HETATM   21  C   UNL     1      -8.569   5.719  65.469  1.00  0.00    -0.151 A  
HETATM   22  C   UNL     1      -8.515   7.112  65.600  1.00  0.00    -0.141 A  
HETATM   23  C   UNL     1      -7.362   5.541  67.580  1.00  0.00    -0.076 A  
HETATM   24  C   UNL     1      -7.319   6.935  67.675  1.00  0.00    -0.096 A  
HETATM   25  C   UNL     1      -7.995   4.920  66.478  1.00  0.00    -0.107 A  
BRANCH  23  26
HETATM   26  O   UNL     1      -6.831   4.720  68.550  1.00  0.00    -0.049 OA 
HETATM   27  C   UNL     1      -5.494   5.006  68.952  1.00  0.00    -0.008 C  
ENDBRANCH  23  26
BRANCH  25  28
HETATM   28  O   UNL     1      -7.905   3.546  66.462  1.00  0.00    -0.083 OA 
HETATM   29  C   UNL     1      -8.951   2.803  67.071  1.00  0.00    -0.156 C  
ENDBRANCH  25  28
BRANCH  21  30
HETATM   30  O   UNL     1      -9.122   5.115  64.370  1.00  0.00    -0.056 OA 
HETATM   31  C   UNL     1      -8.322   4.971  63.199  1.00  0.00    -0.118 C  
ENDBRANCH  21  30
ENDBRANCH   7  20
TORSDOF 4
ENDMDL
MODEL      141
REMARK 921   NORMALIZED FREE ENERGY PREDICTED BY IDOCK:   -3.46 KCAL/MOL
REMARK 922        TOTAL FREE ENERGY PREDICTED BY IDOCK:   -5.02 KCAL/MOL
REMARK 923 INTER-LIGAND FREE ENERGY PREDICTED BY IDOCK:   -4.22 KCAL/MOL
REMARK 924 INTRA-LIGAND FREE ENERGY PREDICTED BY IDOCK:   -0.80 KCAL/MOL
REMARK 927      BINDING AFFINITY PREDICTED BY RF-SCORE:    0.00 PKD
ROOT
HETATM    1  C   UNL     1      -8.941   4.998  68.458  1.00  0.00    -0.125 C  
HETATM    2  C   UNL     1      -9.350   3.985  67.424  1.00  0.00    -0.183 C  
HETATM    3  O   UNL     1     -10.204   4.728  66.533  1.00  0.00    -0.233 OA 
HETATM    4  C   UNL     1     -10.698   5.838  67.176  1.00  0.00    -0.275 C  
HETATM    5  C   UNL     1     -10.178   5.853  68.580  1.00  0.00    -0.243 C  
HETATM    6  O   UNL     1     -11.515   6.607  66.696  1.00  0.00    -0.011 OA 
HETATM    7  C   UNL     1      -9.829   7.186  69.244  1.00  0.00    -0.161 C  
HETATM    8  C   UNL     1      -7.169   7.991  74.454  1.00  0.00    -0.166 C  
HETATM    9  C   UNL     1      -9.153   6.898  70.592  1.00  0.00    -0.155 A  
HETATM   10  O   UNL     1      -8.127   8.688  73.632  1.00  0.00    -0.406 OA 
HETATM   11  C   UNL     1      -9.092   7.944  71.529  1.00  0.00    -0.169 A  
HETATM   12  C   UNL     1      -8.354   7.755  72.672  1.00  0.00    -0.132 A  
HETATM   13  C   UNL     1      -8.483   5.649  70.847  1.00  0.00    -0.125 A  
HETATM   14  C   UNL     1      -7.724   6.565  72.930  1.00  0.00    -0.101 A  
HETATM   15  C   UNL     1      -8.515   4.502  69.831  1.00  0.00    -0.065 C  
HETATM   16  H   UNL     1      -6.963   3.605  70.527  1.00  0.00     0.000 HD 
HETATM   17  O   UNL     1      -7.020   6.599  74.094  1.00  0.00    -0.083 OA 
HETATM   18  C   UNL     1      -7.792   5.490  72.063  1.00  0.00    -0.106 A  
HETATM   19  O   UNL     1      -7.229   3.915  69.670  1.00  0.00    -0.045 OA 
ENDROOT
BRANCH   7  20
HETATM   20  C   UNL     1      -8.975   8.102  68.366  1.00  0.00    -0.136 A  
HETATM   21  C   UNL     1      -6.871   8.613  67.206  1.00  0.00    -0.067 A  
HETATM   22  C   UNL     1      -7.616   7.852  68.115  1.00  0.00    -0.116 A  
HETATM   23  C   UNL     1      -8.855   9.978  66.826  1.00  0.00    -0.132 A  
HETATM   24  C   UNL     1      -9.572   9.191  67.734  1.00  0.00    -0.173 A  
HETATM   25  C   UNL     1      -7.494   9.699  66.559  1.00  0.00    -0.094 A  
BRANCH  23  26
HETATM   26  O   UNL     1      -9.418  11.059  66.185  1.00  0.00    -0.190 OA 
HETATM   27  C   UNL     1      -9.756  12.172  67.009  1.00  0.00    -0.202 C  
ENDBRANCH  23  26
BRANCH  25  28
HETATM   28  O   UNL     1      -6.923  10.495  65.593  1.00  0.00    -0.135 OA 
HETATM   29  C   UNL     1      -6.878  10.000  64.262  1.00  0.00    -0.126 C  
ENDBRANCH  25  28
BRANCH  21  30
HETATM   30  O   UNL     1      -5.572   8.304  66.895  1.00  0.00    -0.035 OA 
HETATM   31  C   UNL     1      -5.318   7.131  66.126  1.00  0.00    -0.024 C  
ENDBRANCH  21  30
ENDBRANCH   7  20
TORSDOF 4
ENDMDL
MODEL      142
REMARK 921   NORMALIZED FREE ENERGY PREDICTED BY IDOCK:   -3.45 KCAL/MOL
REMARK 922        TOTAL FREE ENERGY PREDICTED BY IDOCK:   -5.01 KCAL/MOL
REMARK 923 INTER-LIGAND FREE ENERGY PREDICTED BY IDOCK:   -4.29 KCAL/MOL
REMARK 924 INTRA-LIGAND FREE ENERGY PREDICTED BY IDOCK:   -0.72 KCAL/MOL
REMARK 927      BINDING AFFINITY PREDICTED BY RF-SCORE:    0.00 PKD
ROOT
HETATM    1  C   UNL     1      -6.964   6.872  71.350  1.00  0.00    -0.066 C  
HETATM    2  C   UNL     1      -6.430   6.127  72.543  1.00  0.00    -0.059 C  
HETATM    3  O   UNL     1      -7.118   6.726  73.658  1.00  0.00    -0.076 OA 
HETATM    4  C   UNL     1      -7.571   7.976  73.313  1.00  0.00    -0.147 C  
HETATM    5  C   UNL     1      -7.164   8.263  71.900  1.00  0.00    -0.100 C  
HETATM    6  O   UNL     1      -8.115   8.750  74.083  1.00  0.00    -0.355 OA 
HETATM    7  C   UNL     1      -8.100   9.057  70.989  1.00  0.00    -0.199 C  
HETATM    8  C   UNL     1      -7.469  10.024  65.197  1.00  0.00    -0.139 C  
HETATM    9  C   UNL     1      -7.523   9.042  69.566  1.00  0.00    -0.076 A  
HETATM   10  O   UNL     1      -8.050  10.702  66.330  1.00  0.00    -0.139 OA 
HETATM   11  C   UNL     1      -7.999  10.004  68.658  1.00  0.00    -0.097 A  
HETATM   12  C   UNL     1      -7.617   9.907  67.342  1.00  0.00    -0.091 A  
HETATM   13  C   UNL     1      -6.629   8.003  69.125  1.00  0.00    -0.040 A  
HETATM   14  C   UNL     1      -6.754   8.930  66.917  1.00  0.00    -0.069 A  
HETATM   15  C   UNL     1      -6.114   6.929  70.090  1.00  0.00    -0.024 C  
HETATM   16  H   UNL     1      -5.640   5.669  68.717  1.00  0.00     0.000 HD 
HETATM   17  O   UNL     1      -6.533   8.989  65.575  1.00  0.00    -0.066 OA 
HETATM   18  C   UNL     1      -6.221   7.989  67.778  1.00  0.00    -0.051 A  
HETATM   19  O   UNL     1      -6.171   5.634  69.504  1.00  0.00    -0.029 OA 
ENDROOT
BRANCH   7  20
HETATM   20  C   UNL     1      -9.547   8.564  71.018  1.00  0.00    -0.241 A  
HETATM   21  C   UNL     1     -11.900   8.849  71.661  1.00  0.00    -0.345 A  
HETATM   22  C   UNL     1     -10.553   9.222  71.743  1.00  0.00    -0.286 A  
HETATM   23  C   UNL     1     -11.241   7.054  70.150  1.00  0.00    -0.284 A  
HETATM   24  C   UNL     1      -9.906   7.459  70.248  1.00  0.00    -0.187 A  
HETATM   25  C   UNL     1     -12.250   7.743  70.863  1.00  0.00    -0.145 A  
BRANCH  23  26
HETATM   26  O   UNL     1     -11.627   5.967  69.396  1.00  0.00    -0.275 OA 
HETATM   27  C   UNL     1     -10.586   5.278  68.708  1.00  0.00    -0.045 C  
ENDBRANCH  23  26
BRANCH  25  28
HETATM   28  O   UNL     1     -13.530   7.296  70.624  1.00  0.00     0.089 OA 
HETATM   29  C   UNL     1     -14.219   6.648  71.684  1.00  0.00     0.047 C  
ENDBRANCH  25  28
BRANCH  21  30
HETATM   30  O   UNL     1     -12.889   9.556  72.296  1.00  0.00    -0.380 OA 
HETATM   31  C   UNL     1     -13.286  10.810  71.749  1.00  0.00    -0.418 C  
ENDBRANCH  21  30
ENDBRANCH   7  20
TORSDOF 4
ENDMDL
MODEL      143
REMARK 921   NORMALIZED FREE ENERGY PREDICTED BY IDOCK:   -3.43 KCAL/MOL
REMARK 922        TOTAL FREE ENERGY PREDICTED BY IDOCK:   -4.99 KCAL/MOL
REMARK 923 INTER-LIGAND FREE ENERGY PREDICTED BY IDOCK:   -4.83 KCAL/MOL
REMARK 924 INTRA-LIGAND FREE ENERGY PREDICTED BY IDOCK:   -0.16 KCAL/MOL
REMARK 927      BINDING AFFINITY PREDICTED BY RF-SCORE:    0.00 PKD
ROOT
HETATM    1  C   UNL     1      -8.372   3.702  66.394  1.00  0.00    -0.105 C  
HETATM    2  C   UNL     1      -8.231   2.913  65.121  1.00  0.00    -0.091 C  
HETATM    3  O   UNL     1      -9.296   3.411  64.288  1.00  0.00    -0.123 OA 
HETATM    4  C   UNL     1     -10.268   3.991  65.066  1.00  0.00    -0.181 C  
HETATM    5  C   UNL     1      -9.867   3.872  66.505  1.00  0.00    -0.125 C  
HETATM    6  O   UNL     1     -11.327   4.423  64.641  1.00  0.00    -0.244 OA 
HETATM    7  C   UNL     1     -10.194   5.006  67.478  1.00  0.00    -0.184 C  
HETATM    8  C   UNL     1      -8.404   5.527  73.081  1.00  0.00    -0.118 C  
HETATM    9  C   UNL     1      -9.514   4.706  68.822  1.00  0.00    -0.214 A  
HETATM   10  O   UNL     1      -9.542   5.922  72.289  1.00  0.00    -0.151 OA 
HETATM   11  C   UNL     1      -9.976   5.397  69.956  1.00  0.00    -0.303 A  
HETATM   12  C   UNL     1      -9.279   5.263  71.132  1.00  0.00    -0.145 A  
HETATM   13  C   UNL     1      -8.357   3.854  68.907  1.00  0.00    -0.087 A  
HETATM   14  C   UNL     1      -8.184   4.443  71.226  1.00  0.00    -0.083 A  
HETATM   15  C   UNL     1      -7.821   3.109  67.680  1.00  0.00    -0.075 C  
HETATM   16  H   UNL     1      -6.058   2.831  68.399  1.00  0.00     0.000 HD 
HETATM   17  O   UNL     1      -7.620   4.481  72.464  1.00  0.00    -0.080 OA 
HETATM   18  C   UNL     1      -7.718   3.706  70.153  1.00  0.00    -0.047 A  
HETATM   19  O   UNL     1      -6.403   3.202  67.595  1.00  0.00    -0.034 OA 
ENDROOT
BRANCH   7  20
HETATM   20  C   UNL     1      -9.821   6.392  66.951  1.00  0.00    -0.202 A  
HETATM   21  C   UNL     1      -8.500   7.844  65.476  1.00  0.00    -0.139 A  
HETATM   22  C   UNL     1      -8.755   6.598  66.061  1.00  0.00    -0.155 A  
HETATM   23  C   UNL     1     -10.370   8.751  66.750  1.00  0.00    -0.258 A  
HETATM   24  C   UNL     1     -10.602   7.490  67.309  1.00  0.00    -0.394 A  
HETATM   25  C   UNL     1      -9.310   8.940  65.832  1.00  0.00    -0.236 A  
BRANCH  23  26
HETATM   26  O   UNL     1     -11.125   9.854  67.082  1.00  0.00    -0.163 OA 
HETATM   27  C   UNL     1     -10.964  10.348  68.409  1.00  0.00    -0.264 C  
ENDBRANCH  23  26
BRANCH  25  28
HETATM   28  O   UNL     1      -9.233  10.205  65.296  1.00  0.00    -0.177 OA 
HETATM   29  C   UNL     1      -9.757  10.410  63.991  1.00  0.00    -0.311 C  
ENDBRANCH  25  28
BRANCH  21  30
HETATM   30  O   UNL     1      -7.517   8.016  64.535  1.00  0.00    -0.089 OA 
HETATM   31  C   UNL     1      -6.166   8.121  64.976  1.00  0.00    -0.048 C  
ENDBRANCH  21  30
ENDBRANCH   7  20
TORSDOF 4
ENDMDL
MODEL      144
REMARK 921   NORMALIZED FREE ENERGY PREDICTED BY IDOCK:   -3.42 KCAL/MOL
REMARK 922        TOTAL FREE ENERGY PREDICTED BY IDOCK:   -4.98 KCAL/MOL
REMARK 923 INTER-LIGAND FREE ENERGY PREDICTED BY IDOCK:   -4.66 KCAL/MOL
REMARK 924 INTRA-LIGAND FREE ENERGY PREDICTED BY IDOCK:   -0.32 KCAL/MOL
REMARK 927      BINDING AFFINITY PREDICTED BY RF-SCORE:    0.00 PKD
ROOT
HETATM    1  C   UNL     1     -11.849   7.148  71.567  1.00  0.00    -0.348 C  
HETATM    2  C   UNL     1     -13.344   7.300  71.511  1.00  0.00    -0.369 C  
HETATM    3  O   UNL     1     -13.538   8.704  71.252  1.00  0.00    -0.265 OA 
HETATM    4  C   UNL     1     -12.420   9.408  71.629  1.00  0.00    -0.378 C  
HETATM    5  C   UNL     1     -11.414   8.451  72.191  1.00  0.00    -0.442 C  
HETATM    6  O   UNL     1     -12.330  10.625  71.604  1.00  0.00    -0.342 OA 
HETATM    7  C   UNL     1      -9.924   8.683  71.936  1.00  0.00    -0.392 C  
HETATM    8  C   UNL     1      -5.468   5.046  73.275  1.00  0.00    -0.013 C  
HETATM    9  C   UNL     1      -9.146   7.467  72.459  1.00  0.00    -0.189 A  
HETATM   10  O   UNL     1      -5.677   6.467  73.147  1.00  0.00    -0.041 OA 
HETATM   11  C   UNL     1      -7.765   7.620  72.676  1.00  0.00    -0.116 A  
HETATM   12  C   UNL     1      -7.025   6.506  72.989  1.00  0.00    -0.077 A  
HETATM   13  C   UNL     1      -9.768   6.176  72.599  1.00  0.00    -0.164 A  
HETATM   14  C   UNL     1      -7.611   5.275  73.137  1.00  0.00    -0.096 A  
HETATM   15  C   UNL     1     -11.267   5.980  72.346  1.00  0.00    -0.292 C  
HETATM   16  H   UNL     1     -11.150   4.081  72.058  1.00  0.00     0.000 HD 
HETATM   17  O   UNL     1      -6.699   4.302  73.412  1.00  0.00    -0.049 OA 
HETATM   18  C   UNL     1      -8.971   5.081  72.982  1.00  0.00    -0.115 A  
HETATM   19  O   UNL     1     -11.514   4.812  71.571  1.00  0.00     0.660 OA 
ENDROOT
BRANCH   7  20
HETATM   20  C   UNL     1      -9.592   8.981  70.473  1.00  0.00    -0.264 A  
HETATM   21  C   UNL     1      -9.352  10.555  68.604  1.00  0.00    -0.172 A  
HETATM   22  C   UNL     1      -9.781  10.248  69.901  1.00  0.00    -0.119 A  
HETATM   23  C   UNL     1      -8.586   8.251  68.385  1.00  0.00    -0.133 A  
HETATM   24  C   UNL     1      -9.019   7.982  69.687  1.00  0.00    -0.145 A  
HETATM   25  C   UNL     1      -8.756   9.541  67.829  1.00  0.00    -0.115 A  
BRANCH  23  26
HETATM   26  O   UNL     1      -8.015   7.286  67.585  1.00  0.00    -0.111 OA 
HETATM   27  C   UNL     1      -8.831   6.157  67.282  1.00  0.00    -0.107 C  
ENDBRANCH  23  26
BRANCH  25  28
HETATM   28  O   UNL     1      -8.222   9.699  66.570  1.00  0.00    -0.118 OA 
HETATM   29  C   UNL     1      -6.873  10.134  66.469  1.00  0.00    -0.090 C  
ENDBRANCH  25  28
BRANCH  21  30
HETATM   30  O   UNL     1      -9.454  11.820  68.086  1.00  0.00    -0.181 OA 
HETATM   31  C   UNL     1     -10.268  12.770  68.769  1.00  0.00    -0.079 C  
ENDBRANCH  21  30
ENDBRANCH   7  20
TORSDOF 4
ENDMDL
MODEL      145
REMARK 921   NORMALIZED FREE ENERGY PREDICTED BY IDOCK:   -3.42 KCAL/MOL
REMARK 922        TOTAL FREE ENERGY PREDICTED BY IDOCK:   -4.98 KCAL/MOL
REMARK 923 INTER-LIGAND FREE ENERGY PREDICTED BY IDOCK:   -5.79 KCAL/MOL
REMARK 924 INTRA-LIGAND FREE ENERGY PREDICTED BY IDOCK:    0.81 KCAL/MOL
REMARK 927      BINDING AFFINITY PREDICTED BY RF-SCORE:    0.00 PKD
ROOT
HETATM    1  C   UNL     1      -9.011   9.224  68.837  1.00  0.00    -0.136 C  
HETATM    2  C   UNL     1      -8.842   8.239  69.961  1.00  0.00    -0.134 C  
HETATM    3  O   UNL     1      -9.372   7.011  69.425  1.00  0.00    -0.147 OA 
HETATM    4  C   UNL     1     -10.223   7.284  68.382  1.00  0.00    -0.180 C  
HETATM    5  C   UNL     1     -10.300   8.769  68.199  1.00  0.00    -0.266 C  
HETATM    6  O   UNL     1     -10.882   6.445  67.790  1.00  0.00    -0.271 OA 
HETATM    7  C   UNL     1     -10.422   9.353  66.791  1.00  0.00    -0.265 C  
HETATM    8  C   UNL     1     -10.145  15.049  65.256  1.00  0.00    -0.343 C  
HETATM    9  C   UNL     1     -10.294  10.881  66.885  1.00  0.00    -0.285 A  
HETATM   10  O   UNL     1     -10.791  13.851  64.779  1.00  0.00    -0.376 OA 
HETATM   11  C   UNL     1     -10.747  11.642  65.793  1.00  0.00    -0.331 A  
HETATM   12  C   UNL     1     -10.496  12.993  65.789  1.00  0.00    -0.280 A  
HETATM   13  C   UNL     1      -9.615  11.515  67.985  1.00  0.00    -0.180 A  
HETATM   14  C   UNL     1      -9.863  13.607  66.839  1.00  0.00    -0.261 A  
HETATM   15  C   UNL     1      -9.093  10.704  69.176  1.00  0.00    -0.139 C  
HETATM   16  H   UNL     1      -7.830  12.034  69.756  1.00  0.00     0.000 HD 
HETATM   17  O   UNL     1      -9.681  14.938  66.620  1.00  0.00    -0.239 OA 
HETATM   18  C   UNL     1      -9.441  12.911  67.956  1.00  0.00    -0.213 A  
HETATM   19  O   UNL     1      -7.779  11.109  69.544  1.00  0.00    -0.043 OA 
ENDROOT
BRANCH   7  20
HETATM   20  C   UNL     1      -9.424   8.762  65.794  1.00  0.00    -0.239 A  
HETATM   21  C   UNL     1      -8.041   6.899  64.990  1.00  0.00    -0.117 A  
HETATM   22  C   UNL     1      -8.847   7.494  65.968  1.00  0.00    -0.179 A  
HETATM   23  C   UNL     1      -8.312   8.911  63.639  1.00  0.00    -0.162 A  
HETATM   24  C   UNL     1      -9.120   9.471  64.633  1.00  0.00    -0.263 A  
HETATM   25  C   UNL     1      -7.759   7.620  63.813  1.00  0.00    -0.126 A  
BRANCH  23  26
HETATM   26  O   UNL     1      -7.994   9.585  62.481  1.00  0.00    -0.113 OA 
HETATM   27  C   UNL     1      -8.536  10.897  62.350  1.00  0.00    -0.297 C  
ENDBRANCH  23  26
BRANCH  25  28
HETATM   28  O   UNL     1      -7.045   7.150  62.734  1.00  0.00    -0.058 OA 
HETATM   29  C   UNL     1      -5.630   7.275  62.764  1.00  0.00    -0.038 C  
ENDBRANCH  25  28
BRANCH  21  30
HETATM   30  O   UNL     1      -7.559   5.623  65.125  1.00  0.00    -0.072 OA 
HETATM   31  C   UNL     1      -6.346   5.428  65.847  1.00  0.00    -0.035 C  
ENDBRANCH  21  30
ENDBRANCH   7  20
TORSDOF 4
ENDMDL
MODEL      146
REMARK 921   NORMALIZED FREE ENERGY PREDICTED BY IDOCK:   -3.41 KCAL/MOL
REMARK 922        TOTAL FREE ENERGY PREDICTED BY IDOCK:   -4.96 KCAL/MOL
REMARK 923 INTER-LIGAND FREE ENERGY PREDICTED BY IDOCK:   -4.19 KCAL/MOL
REMARK 924 INTRA-LIGAND FREE ENERGY PREDICTED BY IDOCK:   -0.77 KCAL/MOL
REMARK 927      BINDING AFFINITY PREDICTED BY RF-SCORE:    0.00 PKD
ROOT
HETATM    1  C   UNL     1      -8.943   4.827  68.695  1.00  0.00    -0.136 C  
HETATM    2  C   UNL     1      -9.259   3.725  67.721  1.00  0.00    -0.173 C  
HETATM    3  O   UNL     1     -10.041   4.379  66.703  1.00  0.00    -0.230 OA 
HETATM    4  C   UNL     1     -10.594   5.531  67.206  1.00  0.00    -0.219 C  
HETATM    5  C   UNL     1     -10.192   5.672  68.642  1.00  0.00    -0.263 C  
HETATM    6  O   UNL     1     -11.373   6.246  66.597  1.00  0.00    -0.165 OA 
HETATM    7  C   UNL     1      -9.908   7.061  69.216  1.00  0.00    -0.159 C  
HETATM    8  C   UNL     1      -7.694   8.338  74.539  1.00  0.00    -0.244 C  
HETATM    9  C   UNL     1      -9.344   6.897  70.635  1.00  0.00    -0.162 A  
HETATM   10  O   UNL     1      -8.586   8.951  73.586  1.00  0.00    -0.164 OA 
HETATM   11  C   UNL     1      -9.368   8.019  71.481  1.00  0.00    -0.196 A  
HETATM   12  C   UNL     1      -8.726   7.937  72.693  1.00  0.00    -0.167 A  
HETATM   13  C   UNL     1      -8.689   5.683  71.049  1.00  0.00    -0.136 A  
HETATM   14  C   UNL     1      -8.112   6.782  73.102  1.00  0.00    -0.107 A  
HETATM   15  C   UNL     1      -8.630   4.454  70.135  1.00  0.00    -0.073 C  
HETATM   16  H   UNL     1      -7.134   3.641  71.031  1.00  0.00     0.000 HD 
HETATM   17  O   UNL     1      -7.507   6.923  74.313  1.00  0.00    -0.099 OA 
HETATM   18  C   UNL     1      -8.101   5.637  72.327  1.00  0.00    -0.108 A  
HETATM   19  O   UNL     1      -7.330   3.873  70.131  1.00  0.00    -0.041 OA 
ENDROOT
BRANCH   7  20
HETATM   20  C   UNL     1      -8.990   7.911  68.337  1.00  0.00    -0.133 A  
HETATM   21  C   UNL     1      -8.557   9.929  67.005  1.00  0.00    -0.128 A  
HETATM   22  C   UNL     1      -9.430   9.081  67.697  1.00  0.00    -0.166 A  
HETATM   23  C   UNL     1      -6.749   8.377  67.520  1.00  0.00    -0.063 A  
HETATM   24  C   UNL     1      -7.648   7.557  68.211  1.00  0.00    -0.114 A  
HETATM   25  C   UNL     1      -7.199   9.568  66.904  1.00  0.00    -0.087 A  
BRANCH  23  26
HETATM   26  O   UNL     1      -5.417   8.055  67.380  1.00  0.00    -0.035 OA 
HETATM   27  C   UNL     1      -5.135   6.734  66.926  1.00  0.00    -0.012 C  
ENDBRANCH  23  26
BRANCH  25  28
HETATM   28  O   UNL     1      -6.207  10.324  66.321  1.00  0.00    -0.071 OA 
HETATM   29  C   UNL     1      -6.021  10.210  64.918  1.00  0.00    -0.124 C  
ENDBRANCH  25  28
BRANCH  21  30
HETATM   30  O   UNL     1      -8.976  11.118  66.465  1.00  0.00    -0.167 OA 
HETATM   31  C   UNL     1     -10.026  11.093  65.502  1.00  0.00    -0.249 C  
ENDBRANCH  21  30
ENDBRANCH   7  20
TORSDOF 4
ENDMDL
MODEL      147
REMARK 921   NORMALIZED FREE ENERGY PREDICTED BY IDOCK:   -3.40 KCAL/MOL
REMARK 922        TOTAL FREE ENERGY PREDICTED BY IDOCK:   -4.95 KCAL/MOL
REMARK 923 INTER-LIGAND FREE ENERGY PREDICTED BY IDOCK:   -4.32 KCAL/MOL
REMARK 924 INTRA-LIGAND FREE ENERGY PREDICTED BY IDOCK:   -0.63 KCAL/MOL
REMARK 927      BINDING AFFINITY PREDICTED BY RF-SCORE:    0.00 PKD
ROOT
HETATM    1  C   UNL     1      -8.653   7.516  70.686  1.00  0.00    -0.137 C  
HETATM    2  C   UNL     1      -8.573   8.345  71.939  1.00  0.00    -0.186 C  
HETATM    3  O   UNL     1      -7.665   9.408  71.592  1.00  0.00    -0.294 OA 
HETATM    4  C   UNL     1      -6.883   9.027  70.529  1.00  0.00    -0.061 C  
HETATM    5  C   UNL     1      -7.253   7.630  70.134  1.00  0.00    -0.067 C  
HETATM    6  O   UNL     1      -5.967   9.691  70.071  1.00  0.00    -0.038 OA 
HETATM    7  C   UNL     1      -7.239   7.231  68.658  1.00  0.00    -0.090 C  
HETATM    8  C   UNL     1      -9.160   2.163  66.312  1.00  0.00    -0.050 C  
HETATM    9  C   UNL     1      -7.833   5.821  68.528  1.00  0.00    -0.097 A  
HETATM   10  O   UNL     1      -8.154   3.154  66.020  1.00  0.00    -0.087 OA 
HETATM   11  C   UNL     1      -7.576   5.111  67.342  1.00  0.00    -0.088 A  
HETATM   12  C   UNL     1      -8.227   3.918  67.141  1.00  0.00    -0.099 A  
HETATM   13  C   UNL     1      -8.732   5.287  69.518  1.00  0.00    -0.114 A  
HETATM   14  C   UNL     1      -9.074   3.396  68.084  1.00  0.00    -0.157 A  
HETATM   15  C   UNL     1      -9.046   6.053  70.808  1.00  0.00    -0.153 C  
HETATM   16  H   UNL     1     -10.684   5.115  71.176  1.00  0.00     0.000 HD 
HETATM   17  O   UNL     1      -9.642   2.228  67.673  1.00  0.00    -0.128 OA 
HETATM   18  C   UNL     1      -9.324   4.031  69.286  1.00  0.00    -0.238 A  
HETATM   19  O   UNL     1     -10.439   6.030  71.100  1.00  0.00    -0.212 OA 
ENDROOT
BRANCH   7  20
HETATM   20  C   UNL     1      -7.952   8.231  67.747  1.00  0.00    -0.122 A  
HETATM   21  C   UNL     1      -9.884   9.650  67.211  1.00  0.00    -0.175 A  
HETATM   22  C   UNL     1      -9.279   8.636  67.964  1.00  0.00    -0.147 A  
HETATM   23  C   UNL     1      -7.824   9.829  65.920  1.00  0.00    -0.108 A  
HETATM   24  C   UNL     1      -7.247   8.819  66.697  1.00  0.00    -0.081 A  
HETATM   25  C   UNL     1      -9.152  10.248  66.167  1.00  0.00    -0.155 A  
BRANCH  23  26
HETATM   26  O   UNL     1      -7.153  10.429  64.878  1.00  0.00    -0.122 OA 
HETATM   27  C   UNL     1      -5.854  10.936  65.176  1.00  0.00     0.062 C  
ENDBRANCH  23  26
BRANCH  25  28
HETATM   28  O   UNL     1      -9.577  11.299  65.386  1.00  0.00    -0.216 OA 
HETATM   29  C   UNL     1     -10.309  10.999  64.206  1.00  0.00    -0.364 C  
ENDBRANCH  25  28
BRANCH  21  30
HETATM   30  O   UNL     1     -11.146  10.106  67.491  1.00  0.00    -0.298 OA 
HETATM   31  C   UNL     1     -11.337  10.907  68.654  1.00  0.00    -0.295 C  
ENDBRANCH  21  30
ENDBRANCH   7  20
TORSDOF 4
ENDMDL
MODEL      148
REMARK 921   NORMALIZED FREE ENERGY PREDICTED BY IDOCK:   -3.40 KCAL/MOL
REMARK 922        TOTAL FREE ENERGY PREDICTED BY IDOCK:   -4.94 KCAL/MOL
REMARK 923 INTER-LIGAND FREE ENERGY PREDICTED BY IDOCK:   -4.19 KCAL/MOL
REMARK 924 INTRA-LIGAND FREE ENERGY PREDICTED BY IDOCK:   -0.76 KCAL/MOL
REMARK 927      BINDING AFFINITY PREDICTED BY RF-SCORE:    0.00 PKD
ROOT
HETATM    1  C   UNL     1      -9.602   8.264  69.273  1.00  0.00    -0.164 C  
HETATM    2  C   UNL     1     -10.319   8.053  70.578  1.00  0.00    -0.202 C  
HETATM    3  O   UNL     1      -9.589   8.875  71.509  1.00  0.00    -0.258 OA 
HETATM    4  C   UNL     1      -8.325   9.119  71.028  1.00  0.00    -0.152 C  
HETATM    5  C   UNL     1      -8.167   8.418  69.713  1.00  0.00    -0.119 C  
HETATM    6  O   UNL     1      -7.455   9.716  71.641  1.00  0.00    -0.118 OA 
HETATM    7  C   UNL     1      -7.345   9.071  68.601  1.00  0.00    -0.077 C  
HETATM    8  C   UNL     1      -6.805   7.233  63.015  1.00  0.00    -0.054 C  
HETATM    9  C   UNL     1      -7.504   8.235  67.323  1.00  0.00    -0.089 A  
HETATM   10  O   UNL     1      -6.006   7.947  63.980  1.00  0.00    -0.055 OA 
HETATM   11  C   UNL     1      -6.559   8.422  66.299  1.00  0.00    -0.058 A  
HETATM   12  C   UNL     1      -6.774   7.805  65.090  1.00  0.00    -0.051 A  
HETATM   13  C   UNL     1      -8.649   7.388  67.113  1.00  0.00    -0.118 A  
HETATM   14  C   UNL     1      -7.854   6.985  64.887  1.00  0.00    -0.126 A  
HETATM   15  C   UNL     1      -9.705   7.186  68.206  1.00  0.00    -0.144 C  
HETATM   16  H   UNL     1     -11.087   6.592  67.008  1.00  0.00     0.000 HD 
HETATM   17  O   UNL     1      -7.900   6.504  63.614  1.00  0.00    -0.110 OA 
HETATM   18  C   UNL     1      -8.786   6.731  65.876  1.00  0.00    -0.147 A  
HETATM   19  O   UNL     1     -11.023   7.265  67.675  1.00  0.00    -0.194 OA 
ENDROOT
BRANCH   7  20
HETATM   20  C   UNL     1      -7.695  10.540  68.364  1.00  0.00    -0.104 A  
HETATM   21  C   UNL     1      -9.259  12.282  67.624  1.00  0.00    -0.183 A  
HETATM   22  C   UNL     1      -8.877  10.939  67.720  1.00  0.00    -0.135 A  
HETATM   23  C   UNL     1      -7.194  12.883  68.772  1.00  0.00    -0.081 A  
HETATM   24  C   UNL     1      -6.847  11.531  68.858  1.00  0.00    -0.095 A  
HETATM   25  C   UNL     1      -8.403  13.271  68.146  1.00  0.00    -0.161 A  
BRANCH  23  26
HETATM   26  O   UNL     1      -6.379  13.884  69.252  1.00  0.00    -0.100 OA 
HETATM   27  C   UNL     1      -5.795  13.659  70.533  1.00  0.00    -0.169 C  
ENDBRANCH  23  26
BRANCH  25  28
HETATM   28  O   UNL     1      -8.666  14.621  68.192  1.00  0.00    -0.156 OA 
HETATM   29  C   UNL     1      -8.450  15.383  67.013  1.00  0.00    -0.231 C  
ENDBRANCH  25  28
BRANCH  21  30
HETATM   30  O   UNL     1     -10.461  12.658  67.079  1.00  0.00    -0.231 OA 
HETATM   31  C   UNL     1     -11.632  11.939  67.457  1.00  0.00    -0.304 C  
ENDBRANCH  21  30
ENDBRANCH   7  20
TORSDOF 4
ENDMDL
MODEL      149
REMARK 921   NORMALIZED FREE ENERGY PREDICTED BY IDOCK:   -3.36 KCAL/MOL
REMARK 922        TOTAL FREE ENERGY PREDICTED BY IDOCK:   -4.90 KCAL/MOL
REMARK 923 INTER-LIGAND FREE ENERGY PREDICTED BY IDOCK:   -5.02 KCAL/MOL
REMARK 924 INTRA-LIGAND FREE ENERGY PREDICTED BY IDOCK:    0.12 KCAL/MOL
REMARK 927      BINDING AFFINITY PREDICTED BY RF-SCORE:    0.00 PKD
ROOT
HETATM    1  C   UNL     1     -11.832  13.527  69.328  1.00  0.00    -0.392 C  
HETATM    2  C   UNL     1     -13.095  13.525  70.144  1.00  0.00     0.507 C  
HETATM    3  O   UNL     1     -13.095  14.817  70.781  1.00  0.00    -0.361 OA 
HETATM    4  C   UNL     1     -11.818  15.322  70.817  1.00  0.00    -0.338 C  
HETATM    5  C   UNL     1     -10.888  14.326  70.192  1.00  0.00     0.185 C  
HETATM    6  O   UNL     1     -11.500  16.361  71.371  1.00  0.00    -0.399 OA 
HETATM    7  C   UNL     1      -9.702  14.815  69.360  1.00  0.00    -0.047 C  
HETATM    8  C   UNL     1      -6.025  11.528  66.113  1.00  0.00     0.158 C  
HETATM    9  C   UNL     1      -9.038  13.600  68.697  1.00  0.00    -0.035 A  
HETATM   10  O   UNL     1      -5.970  12.762  66.857  1.00  0.00    -0.230 OA 
HETATM   11  C   UNL     1      -7.731  13.758  68.205  1.00  0.00    -0.140 A  
HETATM   12  C   UNL     1      -7.182  12.736  67.469  1.00  0.00    -0.154 A  
HETATM   13  C   UNL     1      -9.765  12.380  68.460  1.00  0.00    -0.140 A  
HETATM   14  C   UNL     1      -7.861  11.565  67.250  1.00  0.00    -0.153 A  
HETATM   15  C   UNL     1     -11.199  12.192  68.966  1.00  0.00    -0.260 C  
HETATM   16  H   UNL     1     -11.634  10.773  67.743  1.00  0.00     0.000 HD 
HETATM   17  O   UNL     1      -7.155  10.701  66.470  1.00  0.00    -0.117 OA 
HETATM   18  C   UNL     1      -9.129  11.342  67.752  1.00  0.00    -0.158 A  
HETATM   19  O   UNL     1     -12.030  11.607  67.969  1.00  0.00    -0.577 OA 
ENDROOT
BRANCH   7  20
HETATM   20  C   UNL     1     -10.074  15.887  68.335  1.00  0.00    -0.223 A  
HETATM   21  C   UNL     1     -10.012  18.209  67.538  1.00  0.00    -0.332 A  
HETATM   22  C   UNL     1      -9.794  17.248  68.533  1.00  0.00    -0.307 A  
HETATM   23  C   UNL     1     -10.892  16.437  66.114  1.00  0.00    -0.075 A  
HETATM   24  C   UNL     1     -10.654  15.503  67.127  1.00  0.00    -0.300 A  
HETATM   25  C   UNL     1     -10.579  17.802  66.315  1.00  0.00    -0.220 A  
BRANCH  23  26
HETATM   26  O   UNL     1     -11.462  16.088  64.910  1.00  0.00    -0.241 OA 
HETATM   27  C   UNL     1     -10.933  14.924  64.279  1.00  0.00     0.176 C  
ENDBRANCH  23  26
BRANCH  25  28
HETATM   28  O   UNL     1     -10.790  18.607  65.218  1.00  0.00    -0.591 OA 
HETATM   29  C   UNL     1     -10.190  19.895  65.212  1.00  0.00     0.335 C  
ENDBRANCH  25  28
BRANCH  21  30
HETATM   30  O   UNL     1      -9.648  19.521  67.704  1.00  0.00    -0.312 OA 
HETATM   31  C   UNL     1      -8.396  19.805  68.323  1.00  0.00    -0.274 C  
ENDBRANCH  21  30
ENDBRANCH   7  20
TORSDOF 4
ENDMDL
MODEL      150
REMARK 921   NORMALIZED FREE ENERGY PREDICTED BY IDOCK:   -3.26 KCAL/MOL
REMARK 922        TOTAL FREE ENERGY PREDICTED BY IDOCK:   -4.77 KCAL/MOL
REMARK 923 INTER-LIGAND FREE ENERGY PREDICTED BY IDOCK:   -5.37 KCAL/MOL
REMARK 924 INTRA-LIGAND FREE ENERGY PREDICTED BY IDOCK:    0.60 KCAL/MOL
REMARK 927      BINDING AFFINITY PREDICTED BY RF-SCORE:    0.00 PKD
ROOT
HETATM    1  C   UNL     1     -10.437  10.203  69.105  1.00  0.00    -0.242 C  
HETATM    2  C   UNL     1     -10.625   9.013  70.006  1.00  0.00    -0.228 C  
HETATM    3  O   UNL     1      -9.311   8.427  70.080  1.00  0.00    -0.160 OA 
HETATM    4  C   UNL     1      -8.560   8.823  69.000  1.00  0.00    -0.132 C  
HETATM    5  C   UNL     1      -9.398   9.709  68.129  1.00  0.00    -0.140 C  
HETATM    6  O   UNL     1      -7.436   8.417  68.753  1.00  0.00    -0.088 OA 
HETATM    7  C   UNL     1      -8.751  10.893  67.409  1.00  0.00    -0.130 C  
HETATM    8  C   UNL     1     -11.492  15.140  64.355  1.00  0.00    -0.235 C  
HETATM    9  C   UNL     1      -9.860  11.725  66.749  1.00  0.00    -0.218 A  
HETATM   10  O   UNL     1     -10.215  14.470  64.331  1.00  0.00    -0.125 OA 
HETATM   11  C   UNL     1      -9.485  12.625  65.735  1.00  0.00    -0.043 A  
HETATM   12  C   UNL     1     -10.433  13.491  65.246  1.00  0.00    -0.336 A  
HETATM   13  C   UNL     1     -11.216  11.695  67.232  1.00  0.00    -0.365 A  
HETATM   14  C   UNL     1     -11.729  13.458  65.690  1.00  0.00    -0.346 A  
HETATM   15  C   UNL     1     -11.644  10.739  68.351  1.00  0.00    -0.239 C  
HETATM   16  H   UNL     1     -13.216  11.733  68.840  1.00  0.00     0.000 HD 
HETATM   17  O   UNL     1     -12.496  14.419  65.104  1.00  0.00    -0.419 OA 
HETATM   18  C   UNL     1     -12.160  12.562  66.650  1.00  0.00    -0.212 A  
HETATM   19  O   UNL     1     -12.463  11.397  69.311  1.00  0.00    -0.276 OA 
ENDROOT
BRANCH   7  20
HETATM   20  C   UNL     1      -7.863  11.748  68.313  1.00  0.00    -0.137 A  
HETATM   21  C   UNL     1      -6.065  11.967  69.971  1.00  0.00    -0.153 A  
HETATM   22  C   UNL     1      -6.972  11.189  69.242  1.00  0.00    -0.118 A  
HETATM   23  C   UNL     1      -6.995  13.944  68.890  1.00  0.00    -0.110 A  
HETATM   24  C   UNL     1      -7.882  13.135  68.172  1.00  0.00    -0.145 A  
HETATM   25  C   UNL     1      -6.082  13.365  69.803  1.00  0.00    -0.128 A  
BRANCH  23  26
HETATM   26  O   UNL     1      -6.988  15.316  68.771  1.00  0.00    -0.103 OA 
HETATM   27  C   UNL     1      -8.178  15.907  68.255  1.00  0.00    -0.152 C  
ENDBRANCH  23  26
BRANCH  25  28
HETATM   28  O   UNL     1      -5.213  14.257  70.389  1.00  0.00    -0.094 OA 
HETATM   29  C   UNL     1      -5.380  14.539  71.772  1.00  0.00    -0.140 C  
ENDBRANCH  25  28
BRANCH  21  30
HETATM   30  O   UNL     1      -5.133  11.404  70.806  1.00  0.00    -0.092 OA 
HETATM   31  C   UNL     1      -5.207  10.004  71.061  1.00  0.00    -0.067 C  
ENDBRANCH  21  30
ENDBRANCH   7  20
TORSDOF 4
ENDMDL
MODEL      151
REMARK 921   NORMALIZED FREE ENERGY PREDICTED BY IDOCK:   -3.25 KCAL/MOL
REMARK 922        TOTAL FREE ENERGY PREDICTED BY IDOCK:   -4.76 KCAL/MOL
REMARK 923 INTER-LIGAND FREE ENERGY PREDICTED BY IDOCK:   -4.84 KCAL/MOL
REMARK 924 INTRA-LIGAND FREE ENERGY PREDICTED BY IDOCK:    0.09 KCAL/MOL
REMARK 927      BINDING AFFINITY PREDICTED BY RF-SCORE:    0.00 PKD
ROOT
HETATM    1  C   UNL     1      -7.217  11.974  68.518  1.00  0.00    -0.101 C  
HETATM    2  C   UNL     1      -6.478  10.927  69.305  1.00  0.00    -0.071 C  
HETATM    3  O   UNL     1      -7.260   9.733  69.108  1.00  0.00    -0.067 OA 
HETATM    4  C   UNL     1      -8.541  10.067  68.740  1.00  0.00    -0.131 C  
HETATM    5  C   UNL     1      -8.656  11.560  68.699  1.00  0.00    -0.109 C  
HETATM    6  O   UNL     1      -9.447   9.265  68.587  1.00  0.00    -0.145 OA 
HETATM    7  C   UNL     1      -9.530  12.223  67.633  1.00  0.00    -0.188 C  
HETATM    8  C   UNL     1      -9.972  17.994  66.465  1.00  0.00    -0.371 C  
HETATM    9  C   UNL     1      -9.320  13.742  67.706  1.00  0.00    -0.213 A  
HETATM   10  O   UNL     1     -10.814  16.827  66.382  1.00  0.00    -0.157 OA 
HETATM   11  C   UNL     1     -10.282  14.565  67.095  1.00  0.00    -0.260 A  
HETATM   12  C   UNL     1     -10.031  15.913  67.010  1.00  0.00    -0.247 A  
HETATM   13  C   UNL     1      -8.118  14.311  68.258  1.00  0.00    -0.143 A  
HETATM   14  C   UNL     1      -8.896  16.465  67.546  1.00  0.00    -0.179 A  
HETATM   15  C   UNL     1      -7.043  13.433  68.909  1.00  0.00    -0.084 C  
HETATM   16  H   UNL     1      -5.629  14.725  68.733  1.00  0.00     0.000 HD 
HETATM   17  O   UNL     1      -8.824  17.806  67.322  1.00  0.00    -0.233 OA 
HETATM   18  C   UNL     1      -7.942  15.707  68.198  1.00  0.00    -0.129 A  
HETATM   19  O   UNL     1      -5.737  13.813  68.489  1.00  0.00    -0.080 OA 
ENDROOT
BRANCH   7  20
HETATM   20  C   UNL     1      -9.289  11.685  66.222  1.00  0.00    -0.228 A  
HETATM   21  C   UNL     1      -7.900  10.486  64.590  1.00  0.00    -0.004 A  
HETATM   22  C   UNL     1      -8.073  11.098  65.837  1.00  0.00    -0.017 A  
HETATM   23  C   UNL     1     -10.188  11.120  64.037  1.00  0.00    -0.361 A  
HETATM   24  C   UNL     1     -10.329  11.714  65.295  1.00  0.00    -0.316 A  
HETATM   25  C   UNL     1      -8.967  10.505  63.671  1.00  0.00    -0.218 A  
BRANCH  23  26
HETATM   26  O   UNL     1     -11.198  11.131  63.100  1.00  0.00    -0.041 OA 
HETATM   27  C   UNL     1     -12.425  11.731  63.506  1.00  0.00    -0.389 C  
ENDBRANCH  23  26
BRANCH  25  28
HETATM   28  O   UNL     1      -8.980   9.891  62.439  1.00  0.00    -0.227 OA 
HETATM   29  C   UNL     1      -8.799   8.483  62.394  1.00  0.00     0.033 C  
ENDBRANCH  25  28
BRANCH  21  30
HETATM   30  O   UNL     1      -6.742   9.831  64.257  1.00  0.00    -0.107 OA 
HETATM   31  C   UNL     1      -6.115   9.017  65.245  1.00  0.00    -0.059 C  
ENDBRANCH  21  30
ENDBRANCH   7  20
TORSDOF 4
ENDMDL
MODEL      152
REMARK 921   NORMALIZED FREE ENERGY PREDICTED BY IDOCK:   -3.19 KCAL/MOL
REMARK 922        TOTAL FREE ENERGY PREDICTED BY IDOCK:   -4.68 KCAL/MOL
REMARK 923 INTER-LIGAND FREE ENERGY PREDICTED BY IDOCK:   -4.46 KCAL/MOL
REMARK 924 INTRA-LIGAND FREE ENERGY PREDICTED BY IDOCK:   -0.22 KCAL/MOL
REMARK 927      BINDING AFFINITY PREDICTED BY RF-SCORE:    0.00 PKD
ROOT
HETATM    1  C   UNL     1      -6.633   8.938  70.578  1.00  0.00    -0.049 C  
HETATM    2  C   UNL     1      -5.381   8.720  71.382  1.00  0.00    -0.037 C  
HETATM    3  O   UNL     1      -5.786   7.792  72.406  1.00  0.00    -0.036 OA 
HETATM    4  C   UNL     1      -7.148   7.842  72.572  1.00  0.00    -0.085 C  
HETATM    5  C   UNL     1      -7.710   8.865  71.632  1.00  0.00    -0.061 C  
HETATM    6  O   UNL     1      -7.764   7.228  73.428  1.00  0.00    -0.090 OA 
HETATM    7  C   UNL     1      -9.070   8.623  70.976  1.00  0.00    -0.248 C  
HETATM    8  C   UNL     1     -11.610  11.857  66.737  1.00  0.00    -0.268 C  
HETATM    9  C   UNL     1      -9.311   9.726  69.934  1.00  0.00    -0.262 A  
HETATM   10  O   UNL     1     -12.034  11.034  67.842  1.00  0.00    -0.620 OA 
HETATM   11  C   UNL     1     -10.629   9.925  69.487  1.00  0.00    -0.264 A  
HETATM   12  C   UNL     1     -10.841  10.793  68.443  1.00  0.00    -0.232 A  
HETATM   13  C   UNL     1      -8.219  10.443  69.329  1.00  0.00    -0.163 A  
HETATM   14  C   UNL     1      -9.809  11.491  67.871  1.00  0.00    -0.185 A  
HETATM   15  C   UNL     1      -6.771  10.226  69.783  1.00  0.00    -0.103 C  
HETATM   16  H   UNL     1      -5.976  10.919  68.175  1.00  0.00     0.000 HD 
HETATM   17  O   UNL     1     -10.227  12.266  66.833  1.00  0.00    -0.212 OA 
HETATM   18  C   UNL     1      -8.502  11.366  68.305  1.00  0.00    -0.154 A  
HETATM   19  O   UNL     1      -5.889  10.113  68.672  1.00  0.00    -0.041 OA 
ENDROOT
BRANCH   7  20
HETATM   20  C   UNL     1      -9.218   7.228  70.368  1.00  0.00    -0.158 A  
HETATM   21  C   UNL     1      -9.832   4.858  70.556  1.00  0.00    -0.227 A  
HETATM   22  C   UNL     1      -9.566   6.105  71.135  1.00  0.00    -0.193 A  
HETATM   23  C   UNL     1      -9.317   5.831  68.382  1.00  0.00    -0.121 A  
HETATM   24  C   UNL     1      -9.067   7.065  68.991  1.00  0.00    -0.135 A  
HETATM   25  C   UNL     1      -9.696   4.714  69.162  1.00  0.00    -0.185 A  
BRANCH  23  26
HETATM   26  O   UNL     1      -9.179   5.639  67.025  1.00  0.00    -0.115 OA 
HETATM   27  C   UNL     1     -10.362   5.792  66.245  1.00  0.00    -0.074 C  
ENDBRANCH  23  26
BRANCH  25  28
HETATM   28  O   UNL     1      -9.986   3.580  68.438  1.00  0.00     0.064 OA 
HETATM   29  C   UNL     1      -9.062   2.502  68.488  1.00  0.00    -0.157 C  
ENDBRANCH  25  28
BRANCH  21  30
HETATM   30  O   UNL     1     -10.264   3.790  71.301  1.00  0.00    -0.067 OA 
HETATM   31  C   UNL     1     -10.791   4.038  72.601  1.00  0.00     0.012 C  
ENDBRANCH  21  30
ENDBRANCH   7  20
TORSDOF 4
ENDMDL
MODEL      153
REMARK 921   NORMALIZED FREE ENERGY PREDICTED BY IDOCK:   -3.18 KCAL/MOL
REMARK 922        TOTAL FREE ENERGY PREDICTED BY IDOCK:   -4.68 KCAL/MOL
REMARK 923 INTER-LIGAND FREE ENERGY PREDICTED BY IDOCK:   -5.16 KCAL/MOL
REMARK 924 INTRA-LIGAND FREE ENERGY PREDICTED BY IDOCK:    0.48 KCAL/MOL
REMARK 927      BINDING AFFINITY PREDICTED BY RF-SCORE:    0.00 PKD
ROOT
HETATM    1  C   UNL     1     -10.634  10.664  69.226  1.00  0.00    -0.263 C  
HETATM    2  C   UNL     1     -10.884   9.551  70.207  1.00  0.00    -0.269 C  
HETATM    3  O   UNL     1      -9.661   8.790  70.182  1.00  0.00    -0.163 OA 
HETATM    4  C   UNL     1      -8.982   9.032  69.013  1.00  0.00    -0.140 C  
HETATM    5  C   UNL     1      -9.780   9.990  68.181  1.00  0.00    -0.156 C  
HETATM    6  O   UNL     1      -7.956   8.463  68.679  1.00  0.00    -0.116 OA 
HETATM    7  C   UNL     1      -9.060  11.041  67.336  1.00  0.00    -0.143 C  
HETATM    8  C   UNL     1     -11.510  15.499  64.337  1.00  0.00    -0.259 C  
HETATM    9  C   UNL     1     -10.109  11.992  66.743  1.00  0.00    -0.223 A  
HETATM   10  O   UNL     1     -10.345  14.657  64.224  1.00  0.00     0.057 OA 
HETATM   11  C   UNL     1      -9.725  12.788  65.649  1.00  0.00    -0.131 A  
HETATM   12  C   UNL     1     -10.595  13.756  65.209  1.00  0.00    -0.353 A  
HETATM   13  C   UNL     1     -11.398  12.171  67.359  1.00  0.00    -0.393 A  
HETATM   14  C   UNL     1     -11.829  13.924  65.780  1.00  0.00    -0.378 A  
HETATM   15  C   UNL     1     -11.830  11.332  68.567  1.00  0.00    -0.285 C  
HETATM   16  H   UNL     1     -13.194  12.555  69.153  1.00  0.00     0.000 HD 
HETATM   17  O   UNL     1     -12.517  14.957  65.221  1.00  0.00    -0.131 OA 
HETATM   18  C   UNL     1     -12.273  13.137  66.826  1.00  0.00    -0.306 A  
HETATM   19  O   UNL     1     -12.447  12.137  69.565  1.00  0.00    -0.033 OA 
ENDROOT
BRANCH   7  20
HETATM   20  C   UNL     1      -7.973  11.800  68.098  1.00  0.00    -0.146 A  
HETATM   21  C   UNL     1      -7.015  13.893  68.954  1.00  0.00    -0.110 A  
HETATM   22  C   UNL     1      -7.927  13.203  68.147  1.00  0.00    -0.154 A  
HETATM   23  C   UNL     1      -6.095  11.742  69.640  1.00  0.00    -0.119 A  
HETATM   24  C   UNL     1      -7.026  11.085  68.830  1.00  0.00    -0.081 A  
HETATM   25  C   UNL     1      -6.077  13.156  69.703  1.00  0.00    -0.120 A  
BRANCH  23  26
HETATM   26  O   UNL     1      -5.149  11.063  70.375  1.00  0.00    -0.056 OA 
HETATM   27  C   UNL     1      -5.634  10.007  71.199  1.00  0.00    -0.076 C  
ENDBRANCH  23  26
BRANCH  25  28
HETATM   28  O   UNL     1      -5.166  13.680  70.591  1.00  0.00    -0.102 OA 
HETATM   29  C   UNL     1      -5.606  13.952  71.914  1.00  0.00    -0.189 C  
ENDBRANCH  25  28
BRANCH  21  30
HETATM   30  O   UNL     1      -7.038  15.260  69.070  1.00  0.00    -0.121 OA 
HETATM   31  C   UNL     1      -8.230  15.952  68.707  1.00  0.00    -0.196 C  
ENDBRANCH  21  30
ENDBRANCH   7  20
TORSDOF 4
ENDMDL
MODEL      154
REMARK 921   NORMALIZED FREE ENERGY PREDICTED BY IDOCK:   -3.16 KCAL/MOL
REMARK 922        TOTAL FREE ENERGY PREDICTED BY IDOCK:   -4.65 KCAL/MOL
REMARK 923 INTER-LIGAND FREE ENERGY PREDICTED BY IDOCK:   -5.01 KCAL/MOL
REMARK 924 INTRA-LIGAND FREE ENERGY PREDICTED BY IDOCK:    0.36 KCAL/MOL
REMARK 927      BINDING AFFINITY PREDICTED BY RF-SCORE:    0.00 PKD
ROOT
HETATM    1  C   UNL     1      -8.134   9.479  64.176  1.00  0.00    -0.147 C  
HETATM    2  C   UNL     1      -7.331   9.409  62.906  1.00  0.00    -0.101 C  
HETATM    3  O   UNL     1      -6.231   8.541  63.240  1.00  0.00    -0.084 OA 
HETATM    4  C   UNL     1      -6.053   8.515  64.602  1.00  0.00    -0.065 C  
HETATM    5  C   UNL     1      -7.063   9.420  65.238  1.00  0.00    -0.092 C  
HETATM    6  O   UNL     1      -5.143   7.932  65.169  1.00  0.00    -0.028 OA 
HETATM    7  C   UNL     1      -7.681   9.038  66.584  1.00  0.00    -0.096 C  
HETATM    8  C   UNL     1     -12.131  11.748  69.364  1.00  0.00    -0.238 C  
HETATM    9  C   UNL     1      -8.804  10.035  66.905  1.00  0.00    -0.142 A  
HETATM   10  O   UNL     1     -10.959  10.989  69.725  1.00  0.00    -0.250 OA 
HETATM   11  C   UNL     1      -9.249  10.111  68.237  1.00  0.00    -0.130 A  
HETATM   12  C   UNL     1     -10.356  10.876  68.513  1.00  0.00    -0.187 A  
HETATM   13  C   UNL     1      -9.478  10.772  65.868  1.00  0.00    -0.236 A  
HETATM   14  C   UNL     1     -10.994  11.592  67.534  1.00  0.00    -0.259 A  
HETATM   15  C   UNL     1      -9.027  10.687  64.405  1.00  0.00    -0.195 C  
HETATM   16  H   UNL     1     -10.695  11.300  63.670  1.00  0.00     0.000 HD 
HETATM   17  O   UNL     1     -12.086  12.253  68.011  1.00  0.00    -0.439 OA 
HETATM   18  C   UNL     1     -10.569  11.589  66.219  1.00  0.00    -0.309 A  
HETATM   19  O   UNL     1     -10.137  10.544  63.526  1.00  0.00    -0.286 OA 
ENDROOT
BRANCH   7  20
HETATM   20  C   UNL     1      -8.175   7.592  66.642  1.00  0.00    -0.125 A  
HETATM   21  C   UNL     1      -9.112   5.692  67.884  1.00  0.00    -0.107 A  
HETATM   22  C   UNL     1      -8.535   6.967  67.847  1.00  0.00    -0.120 A  
HETATM   23  C   UNL     1      -8.905   5.600  65.457  1.00  0.00    -0.130 A  
HETATM   24  C   UNL     1      -8.339   6.879  65.456  1.00  0.00    -0.138 A  
HETATM   25  C   UNL     1      -9.291   4.992  66.675  1.00  0.00    -0.138 A  
BRANCH  23  26
HETATM   26  O   UNL     1      -9.082   4.872  64.302  1.00  0.00    -0.123 OA 
HETATM   27  C   UNL     1      -8.362   5.324  63.158  1.00  0.00    -0.108 C  
ENDBRANCH  23  26
BRANCH  25  28
HETATM   28  O   UNL     1      -9.904   3.767  66.537  1.00  0.00    -0.173 OA 
HETATM   29  C   UNL     1      -9.219   2.621  67.021  1.00  0.00    -0.113 C  
ENDBRANCH  25  28
BRANCH  21  30
HETATM   30  O   UNL     1      -9.549   5.127  69.055  1.00  0.00    -0.124 OA 
HETATM   31  C   UNL     1     -10.708   5.671  69.681  1.00  0.00    -0.328 C  
ENDBRANCH  21  30
ENDBRANCH   7  20
TORSDOF 4
ENDMDL
MODEL      155
REMARK 921   NORMALIZED FREE ENERGY PREDICTED BY IDOCK:   -3.15 KCAL/MOL
REMARK 922        TOTAL FREE ENERGY PREDICTED BY IDOCK:   -4.64 KCAL/MOL
REMARK 923 INTER-LIGAND FREE ENERGY PREDICTED BY IDOCK:   -3.86 KCAL/MOL
REMARK 924 INTRA-LIGAND FREE ENERGY PREDICTED BY IDOCK:   -0.79 KCAL/MOL
REMARK 927      BINDING AFFINITY PREDICTED BY RF-SCORE:    0.00 PKD
ROOT
HETATM    1  C   UNL     1      -9.901   7.869  69.289  1.00  0.00    -0.177 C  
HETATM    2  C   UNL     1     -11.104   7.191  69.884  1.00  0.00    -0.235 C  
HETATM    3  O   UNL     1     -11.461   6.200  68.902  1.00  0.00    -0.305 OA 
HETATM    4  C   UNL     1     -10.946   6.547  67.677  1.00  0.00    -0.337 C  
HETATM    5  C   UNL     1     -10.214   7.847  67.813  1.00  0.00    -0.276 C  
HETATM    6  O   UNL     1     -11.158   5.940  66.640  1.00  0.00    -0.246 OA 
HETATM    7  C   UNL     1      -8.938   8.086  67.004  1.00  0.00    -0.156 C  
HETATM    8  C   UNL     1      -5.214  12.645  67.479  1.00  0.00    -0.091 C  
HETATM    9  C   UNL     1      -8.304   9.404  67.472  1.00  0.00    -0.122 A  
HETATM   10  O   UNL     1      -5.660  11.741  66.447  1.00  0.00    -0.274 OA 
HETATM   11  C   UNL     1      -7.355  10.008  66.629  1.00  0.00    -0.103 A  
HETATM   12  C   UNL     1      -6.661  11.097  67.100  1.00  0.00    -0.106 A  
HETATM   13  C   UNL     1      -8.562   9.941  68.783  1.00  0.00    -0.130 A  
HETATM   14  C   UNL     1      -6.910  11.623  68.341  1.00  0.00    -0.071 A  
HETATM   15  C   UNL     1      -9.575   9.287  69.730  1.00  0.00    -0.190 C  
HETATM   16  H   UNL     1      -8.859  10.080  71.330  1.00  0.00     0.000 HD 
HETATM   17  O   UNL     1      -6.093  12.673  68.626  1.00  0.00    -0.061 OA 
HETATM   18  C   UNL     1      -7.866  11.095  69.189  1.00  0.00    -0.065 A  
HETATM   19  O   UNL     1      -9.063   9.193  71.054  1.00  0.00    -0.236 OA 
ENDROOT
BRANCH   7  20
HETATM   20  C   UNL     1      -7.945   6.926  67.069  1.00  0.00    -0.116 A  
HETATM   21  C   UNL     1      -6.424   5.469  68.331  1.00  0.00    -0.039 A  
HETATM   22  C   UNL     1      -7.228   6.611  68.234  1.00  0.00    -0.085 A  
HETATM   23  C   UNL     1      -6.984   4.958  66.015  1.00  0.00    -0.066 A  
HETATM   24  C   UNL     1      -7.786   6.102  65.955  1.00  0.00    -0.107 A  
HETATM   25  C   UNL     1      -6.289   4.636  67.204  1.00  0.00    -0.040 A  
BRANCH  23  26
HETATM   26  O   UNL     1      -6.808   4.125  64.932  1.00  0.00    -0.047 OA 
HETATM   27  C   UNL     1      -7.778   4.232  63.893  1.00  0.00    -0.079 C  
ENDBRANCH  23  26
BRANCH  25  28
HETATM   28  O   UNL     1      -5.595   3.448  67.160  1.00  0.00    -0.020 OA 
HETATM   29  C   UNL     1      -6.233   2.284  67.667  1.00  0.00    -0.024 C  
ENDBRANCH  25  28
BRANCH  21  30
HETATM   30  O   UNL     1      -5.803   5.117  69.502  1.00  0.00    -0.018 OA 
HETATM   31  C   UNL     1      -6.605   4.921  70.664  1.00  0.00    -0.031 C  
ENDBRANCH  21  30
ENDBRANCH   7  20
TORSDOF 4
ENDMDL
MODEL      156
REMARK 921   NORMALIZED FREE ENERGY PREDICTED BY IDOCK:   -3.14 KCAL/MOL
REMARK 922        TOTAL FREE ENERGY PREDICTED BY IDOCK:   -4.63 KCAL/MOL
REMARK 923 INTER-LIGAND FREE ENERGY PREDICTED BY IDOCK:   -3.90 KCAL/MOL
REMARK 924 INTRA-LIGAND FREE ENERGY PREDICTED BY IDOCK:   -0.72 KCAL/MOL
REMARK 927      BINDING AFFINITY PREDICTED BY RF-SCORE:    0.00 PKD
ROOT
HETATM    1  C   UNL     1      -6.856   8.465  72.056  1.00  0.00    -0.095 C  
HETATM    2  C   UNL     1      -6.071   8.646  73.327  1.00  0.00    -0.091 C  
HETATM    3  O   UNL     1      -6.834   7.921  74.310  1.00  0.00    -0.107 OA 
HETATM    4  C   UNL     1      -8.133   7.781  73.884  1.00  0.00    -0.199 C  
HETATM    5  C   UNL     1      -8.280   8.456  72.554  1.00  0.00    -0.198 C  
HETATM    6  O   UNL     1      -9.028   7.284  74.547  1.00  0.00    -0.197 OA 
HETATM    7  C   UNL     1      -9.201   7.850  71.495  1.00  0.00    -0.171 C  
HETATM    8  C   UNL     1      -9.795   9.571  65.877  1.00  0.00    -0.290 C  
HETATM    9  C   UNL     1      -9.019   8.632  70.186  1.00  0.00    -0.157 A  
HETATM   10  O   UNL     1     -10.617   8.961  66.893  1.00  0.00    -0.263 OA 
HETATM   11  C   UNL     1     -10.017   8.503  69.204  1.00  0.00    -0.194 A  
HETATM   12  C   UNL     1      -9.796   9.064  67.970  1.00  0.00    -0.166 A  
HETATM   13  C   UNL     1      -7.811   9.364  69.907  1.00  0.00    -0.126 A  
HETATM   14  C   UNL     1      -8.655   9.775  67.700  1.00  0.00    -0.125 A  
HETATM   15  C   UNL     1      -6.698   9.498  70.952  1.00  0.00    -0.083 C  
HETATM   16  H   UNL     1      -5.316   9.929  69.685  1.00  0.00     0.000 HD 
HETATM   17  O   UNL     1      -8.616  10.213  66.412  1.00  0.00    -0.128 OA 
HETATM   18  C   UNL     1      -7.665   9.970  68.645  1.00  0.00    -0.086 A  
HETATM   19  O   UNL     1      -5.415   9.284  70.376  1.00  0.00    -0.029 OA 
ENDROOT
BRANCH   7  20
HETATM   20  C   UNL     1      -8.996   6.349  71.291  1.00  0.00    -0.142 A  
HETATM   21  C   UNL     1      -9.729   4.023  71.581  1.00  0.00    -0.172 A  
HETATM   22  C   UNL     1      -9.835   5.387  71.876  1.00  0.00    -0.218 A  
HETATM   23  C   UNL     1      -7.841   4.552  70.132  1.00  0.00    -0.060 A  
HETATM   24  C   UNL     1      -7.981   5.908  70.443  1.00  0.00    -0.106 A  
HETATM   25  C   UNL     1      -8.711   3.595  70.706  1.00  0.00    -0.074 A  
BRANCH  23  26
HETATM   26  O   UNL     1      -6.850   4.087  69.297  1.00  0.00    -0.044 OA 
HETATM   27  C   UNL     1      -6.799   4.671  67.997  1.00  0.00    -0.056 C  
ENDBRANCH  23  26
BRANCH  25  28
HETATM   28  O   UNL     1      -8.519   2.306  70.264  1.00  0.00    -0.041 OA 
HETATM   29  C   UNL     1      -9.330   1.841  69.194  1.00  0.00    -0.121 C  
ENDBRANCH  25  28
BRANCH  21  30
HETATM   30  O   UNL     1     -10.612   3.101  72.082  1.00  0.00     0.017 OA 
HETATM   31  C   UNL     1     -11.084   3.268  73.416  1.00  0.00    -0.180 C  
ENDBRANCH  21  30
ENDBRANCH   7  20
TORSDOF 4
ENDMDL
MODEL      157
REMARK 921   NORMALIZED FREE ENERGY PREDICTED BY IDOCK:   -3.11 KCAL/MOL
REMARK 922        TOTAL FREE ENERGY PREDICTED BY IDOCK:   -4.59 KCAL/MOL
REMARK 923 INTER-LIGAND FREE ENERGY PREDICTED BY IDOCK:   -3.90 KCAL/MOL
REMARK 924 INTRA-LIGAND FREE ENERGY PREDICTED BY IDOCK:   -0.69 KCAL/MOL
REMARK 927      BINDING AFFINITY PREDICTED BY RF-SCORE:    0.00 PKD
ROOT
HETATM    1  C   UNL     1     -10.180   6.453  68.634  1.00  0.00    -0.201 C  
HETATM    2  C   UNL     1     -11.295   6.386  69.641  1.00  0.00    -0.412 C  
HETATM    3  O   UNL     1     -10.797   7.150  70.757  1.00  0.00    -0.234 OA 
HETATM    4  C   UNL     1      -9.426   7.216  70.705  1.00  0.00    -0.161 C  
HETATM    5  C   UNL     1      -8.952   6.447  69.510  1.00  0.00    -0.136 C  
HETATM    6  O   UNL     1      -8.726   7.727  71.564  1.00  0.00    -0.117 OA 
HETATM    7  C   UNL     1      -7.742   6.948  68.719  1.00  0.00    -0.110 C  
HETATM    8  C   UNL     1      -5.702   4.829  63.598  1.00  0.00    -0.017 C  
HETATM    9  C   UNL     1      -7.594   6.086  67.457  1.00  0.00    -0.090 A  
HETATM   10  O   UNL     1      -5.164   5.479  64.768  1.00  0.00    -0.009 OA 
HETATM   11  C   UNL     1      -6.358   6.113  66.789  1.00  0.00    -0.045 A  
HETATM   12  C   UNL     1      -6.256   5.478  65.575  1.00  0.00    -0.034 A  
HETATM   13  C   UNL     1      -8.714   5.378  66.892  1.00  0.00    -0.112 A  
HETATM   14  C   UNL     1      -7.313   4.789  65.037  1.00  0.00    -0.072 A  
HETATM   15  C   UNL     1     -10.078   5.353  67.590  1.00  0.00    -0.175 C  
HETATM   16  H   UNL     1     -11.074   4.883  66.013  1.00  0.00     0.000 HD 
HETATM   17  O   UNL     1      -7.015   4.265  63.816  1.00  0.00    -0.043 OA 
HETATM   18  C   UNL     1      -8.535   4.693  65.676  1.00  0.00    -0.118 A  
HETATM   19  O   UNL     1     -11.138   5.571  66.666  1.00  0.00    -0.163 OA 
ENDROOT
BRANCH   7  20
HETATM   20  C   UNL     1      -7.805   8.439  68.382  1.00  0.00    -0.113 A  
HETATM   21  C   UNL     1      -8.789  10.322  67.151  1.00  0.00    -0.136 A  
HETATM   22  C   UNL     1      -8.631   8.948  67.367  1.00  0.00    -0.119 A  
HETATM   23  C   UNL     1      -7.197  10.721  68.953  1.00  0.00    -0.088 A  
HETATM   24  C   UNL     1      -7.069   9.342  69.148  1.00  0.00    -0.062 A  
HETATM   25  C   UNL     1      -8.054  11.223  67.946  1.00  0.00    -0.121 A  
BRANCH  23  26
HETATM   26  O   UNL     1      -6.485  11.638  69.694  1.00  0.00    -0.118 OA 
HETATM   27  C   UNL     1      -5.739  11.116  70.791  1.00  0.00    -0.089 C  
ENDBRANCH  23  26
BRANCH  25  28
HETATM   28  O   UNL     1      -8.150  12.595  67.904  1.00  0.00    -0.140 OA 
HETATM   29  C   UNL     1      -9.359  13.193  68.352  1.00  0.00    -0.154 C  
ENDBRANCH  25  28
BRANCH  21  30
HETATM   30  O   UNL     1      -9.670  10.813  66.222  1.00  0.00    -0.191 OA 
HETATM   31  C   UNL     1      -9.664  10.246  64.914  1.00  0.00    -0.320 C  
ENDBRANCH  21  30
ENDBRANCH   7  20
TORSDOF 4
ENDMDL
MODEL      158
REMARK 921   NORMALIZED FREE ENERGY PREDICTED BY IDOCK:   -3.07 KCAL/MOL
REMARK 922        TOTAL FREE ENERGY PREDICTED BY IDOCK:   -4.54 KCAL/MOL
REMARK 923 INTER-LIGAND FREE ENERGY PREDICTED BY IDOCK:   -4.52 KCAL/MOL
REMARK 924 INTRA-LIGAND FREE ENERGY PREDICTED BY IDOCK:   -0.01 KCAL/MOL
REMARK 927      BINDING AFFINITY PREDICTED BY RF-SCORE:    0.00 PKD
ROOT
HETATM    1  C   UNL     1      -6.400  15.498  68.048  1.00  0.00    -0.151 C  
HETATM    2  C   UNL     1      -5.130  14.769  68.393  1.00  0.00    -0.108 C  
HETATM    3  O   UNL     1      -5.475  14.017  69.572  1.00  0.00    -0.083 OA 
HETATM    4  C   UNL     1      -6.565  14.583  70.187  1.00  0.00    -0.128 C  
HETATM    5  C   UNL     1      -6.984  15.792  69.407  1.00  0.00    -0.202 C  
HETATM    6  O   UNL     1      -7.029  14.210  71.252  1.00  0.00     0.759 OA 
HETATM    7  C   UNL     1      -8.469  16.132  69.277  1.00  0.00    -0.187 C  
HETATM    8  C   UNL     1     -10.886  20.320  65.887  1.00  0.00     0.108 C  
HETATM    9  C   UNL     1      -8.617  17.296  68.286  1.00  0.00    -0.247 A  
HETATM   10  O   UNL     1     -11.179  19.667  67.138  1.00  0.00    -0.326 OA 
HETATM   11  C   UNL     1      -9.826  18.014  68.298  1.00  0.00    -0.357 A  
HETATM   12  C   UNL     1     -10.040  18.950  67.316  1.00  0.00    -0.357 A  
HETATM   13  C   UNL     1      -7.619  17.565  67.284  1.00  0.00    -0.217 A  
HETATM   14  C   UNL     1      -9.088  19.223  66.367  1.00  0.00    -0.352 A  
HETATM   15  C   UNL     1      -6.303  16.780  67.236  1.00  0.00    -0.180 C  
HETATM   16  H   UNL     1      -5.917  17.195  65.398  1.00  0.00     0.000 HD 
HETATM   17  O   UNL     1      -9.513  20.154  65.469  1.00  0.00    -0.173 OA 
HETATM   18  C   UNL     1      -7.866  18.579  66.340  1.00  0.00    -0.296 A  
HETATM   19  O   UNL     1      -5.977  16.394  65.905  1.00  0.00     0.786 OA 
ENDROOT
BRANCH   7  20
HETATM   20  C   UNL     1      -9.338  14.938  68.882  1.00  0.00    -0.197 A  
HETATM   21  C   UNL     1      -9.605  12.721  67.859  1.00  0.00    -0.211 A  
HETATM   22  C   UNL     1      -8.851  13.875  68.105  1.00  0.00    -0.184 A  
HETATM   23  C   UNL     1     -11.430  13.724  69.127  1.00  0.00    -0.298 A  
HETATM   24  C   UNL     1     -10.645  14.859  69.361  1.00  0.00    -0.255 A  
HETATM   25  C   UNL     1     -10.917  12.647  68.366  1.00  0.00    -0.257 A  
BRANCH  23  26
HETATM   26  O   UNL     1     -12.723  13.616  69.588  1.00  0.00    -0.078 OA 
HETATM   27  C   UNL     1     -12.999  14.242  70.838  1.00  0.00    -0.329 C  
ENDBRANCH  23  26
BRANCH  25  28
HETATM   28  O   UNL     1     -11.756  11.561  68.271  1.00  0.00    -0.385 OA 
HETATM   29  C   UNL     1     -11.648  10.546  69.259  1.00  0.00    -0.236 C  
ENDBRANCH  25  28
BRANCH  21  30
HETATM   30  O   UNL     1      -9.088  11.648  67.180  1.00  0.00    -0.164 OA 
HETATM   31  C   UNL     1      -9.623  11.335  65.897  1.00  0.00    -0.221 C  
ENDBRANCH  21  30
ENDBRANCH   7  20
TORSDOF 4
ENDMDL
MODEL      159
REMARK 921   NORMALIZED FREE ENERGY PREDICTED BY IDOCK:   -2.99 KCAL/MOL
REMARK 922        TOTAL FREE ENERGY PREDICTED BY IDOCK:   -4.44 KCAL/MOL
REMARK 923 INTER-LIGAND FREE ENERGY PREDICTED BY IDOCK:   -3.77 KCAL/MOL
REMARK 924 INTRA-LIGAND FREE ENERGY PREDICTED BY IDOCK:   -0.67 KCAL/MOL
REMARK 927      BINDING AFFINITY PREDICTED BY RF-SCORE:    0.00 PKD
ROOT
HETATM    1  C   UNL     1      -8.672   9.504  69.835  1.00  0.00    -0.224 C  
HETATM    2  C   UNL     1      -8.512  10.828  69.139  1.00  0.00    -0.097 C  
HETATM    3  O   UNL     1      -7.313  10.663  68.357  1.00  0.00    -0.084 OA 
HETATM    4  C   UNL     1      -6.549   9.648  68.880  1.00  0.00    -0.046 C  
HETATM    5  C   UNL     1      -7.241   9.098  70.089  1.00  0.00    -0.070 C  
HETATM    6  O   UNL     1      -5.440   9.340  68.476  1.00  0.00    -0.037 OA 
HETATM    7  C   UNL     1      -7.168   7.599  70.387  1.00  0.00    -0.063 C  
HETATM    8  C   UNL     1     -10.124   4.641  74.556  1.00  0.00    -0.231 C  
HETATM    9  C   UNL     1      -8.107   7.289  71.561  1.00  0.00    -0.101 A  
HETATM   10  O   UNL     1      -8.858   4.534  73.874  1.00  0.00    -0.104 OA 
HETATM   11  C   UNL     1      -7.921   6.074  72.243  1.00  0.00    -0.102 A  
HETATM   12  C   UNL     1      -8.847   5.706  73.189  1.00  0.00    -0.122 A  
HETATM   13  C   UNL     1      -9.226   8.139  71.877  1.00  0.00    -0.243 A  
HETATM   14  C   UNL     1      -9.907   6.516  73.506  1.00  0.00    -0.193 A  
HETATM   15  C   UNL     1      -9.463   9.458  71.132  1.00  0.00    -0.116 C  
HETATM   16  H   UNL     1     -11.327   9.585  71.589  1.00  0.00     0.000 HD 
HETATM   17  O   UNL     1     -10.723   5.951  74.438  1.00  0.00    -0.141 OA 
HETATM   18  C   UNL     1     -10.109   7.741  72.899  1.00  0.00    -0.363 A  
HETATM   19  O   UNL     1     -10.832   9.615  70.778  1.00  0.00    -0.282 OA 
ENDROOT
BRANCH   7  20
HETATM   20  C   UNL     1      -7.469   6.719  69.174  1.00  0.00    -0.095 A  
HETATM   21  C   UNL     1      -6.821   4.969  67.577  1.00  0.00    -0.060 A  
HETATM   22  C   UNL     1      -6.507   5.872  68.599  1.00  0.00    -0.045 A  
HETATM   23  C   UNL     1      -9.107   5.814  67.623  1.00  0.00    -0.106 A  
HETATM   24  C   UNL     1      -8.761   6.698  68.650  1.00  0.00    -0.124 A  
HETATM   25  C   UNL     1      -8.136   4.945  67.072  1.00  0.00    -0.107 A  
BRANCH  23  26
HETATM   26  O   UNL     1     -10.375   5.768  67.087  1.00  0.00    -0.186 OA 
HETATM   27  C   UNL     1     -11.082   7.005  67.042  1.00  0.00    -0.177 C  
ENDBRANCH  23  26
BRANCH  25  28
HETATM   28  O   UNL     1      -8.617   4.073  66.123  1.00  0.00    -0.109 OA 
HETATM   29  C   UNL     1      -9.262   2.889  66.571  1.00  0.00    -0.105 C  
ENDBRANCH  25  28
BRANCH  21  30
HETATM   30  O   UNL     1      -5.899   4.079  67.087  1.00  0.00    -0.022 OA 
HETATM   31  C   UNL     1      -5.449   3.030  67.939  1.00  0.00    -0.017 C  
ENDBRANCH  21  30
ENDBRANCH   7  20
TORSDOF 4
ENDMDL
MODEL      160
REMARK 921   NORMALIZED FREE ENERGY PREDICTED BY IDOCK:   -2.94 KCAL/MOL
REMARK 922        TOTAL FREE ENERGY PREDICTED BY IDOCK:   -4.38 KCAL/MOL
REMARK 923 INTER-LIGAND FREE ENERGY PREDICTED BY IDOCK:   -4.77 KCAL/MOL
REMARK 924 INTRA-LIGAND FREE ENERGY PREDICTED BY IDOCK:    0.40 KCAL/MOL
REMARK 927      BINDING AFFINITY PREDICTED BY RF-SCORE:    0.00 PKD
ROOT
HETATM    1  C   UNL     1     -11.207  14.767  65.882  1.00  0.00    -0.340 C  
HETATM    2  C   UNL     1     -12.273  14.358  64.903  1.00  0.00    -0.433 C  
HETATM    3  O   UNL     1     -11.920  13.005  64.555  1.00  0.00    -0.356 OA 
HETATM    4  C   UNL     1     -10.590  12.786  64.817  1.00  0.00    -0.327 C  
HETATM    5  C   UNL     1      -9.990  14.050  65.353  1.00  0.00    -0.292 C  
HETATM    6  O   UNL     1      -9.992  11.758  64.544  1.00  0.00    -0.249 OA 
HETATM    7  C   UNL     1      -8.913  13.977  66.437  1.00  0.00    -0.041 C  
HETATM    8  C   UNL     1      -6.567  18.484  69.445  1.00  0.00    -0.214 C  
HETATM    9  C   UNL     1      -8.616  15.402  66.926  1.00  0.00    -0.291 A  
HETATM   10  O   UNL     1      -6.151  17.180  68.991  1.00  0.00    -0.166 OA 
HETATM   11  C   UNL     1      -7.418  15.614  67.630  1.00  0.00    -0.186 A  
HETATM   12  C   UNL     1      -7.211  16.841  68.212  1.00  0.00    -0.173 A  
HETATM   13  C   UNL     1      -9.582  16.461  66.793  1.00  0.00    -0.263 A  
HETATM   14  C   UNL     1      -8.119  17.860  68.079  1.00  0.00    -0.252 A  
HETATM   15  C   UNL     1     -10.906  16.248  66.050  1.00  0.00    -0.123 C  
HETATM   16  H   UNL     1     -11.812  17.732  66.873  1.00  0.00     0.000 HD 
HETATM   17  O   UNL     1      -7.740  18.976  68.760  1.00  0.00    -0.337 OA 
HETATM   18  C   UNL     1      -9.289  17.717  67.357  1.00  0.00    -0.252 A  
HETATM   19  O   UNL     1     -12.000  16.806  66.768  1.00  0.00     1.470 OA 
ENDROOT
BRANCH   7  20
HETATM   20  C   UNL     1      -9.272  13.045  67.594  1.00  0.00    -0.200 A  
HETATM   21  C   UNL     1     -10.878  12.189  69.243  1.00  0.00    -0.051 A  
HETATM   22  C   UNL     1     -10.497  13.127  68.276  1.00  0.00    -0.258 A  
HETATM   23  C   UNL     1      -8.732  11.080  68.919  1.00  0.00    -0.117 A  
HETATM   24  C   UNL     1      -8.386  12.029  67.951  1.00  0.00    -0.155 A  
HETATM   25  C   UNL     1      -9.981  11.156  69.579  1.00  0.00     0.204 A  
BRANCH  23  26
HETATM   26  O   UNL     1      -7.879  10.065  69.292  1.00  0.00    -0.101 OA 
HETATM   27  C   UNL     1      -8.094   8.802  68.666  1.00  0.00    -0.116 C  
ENDBRANCH  23  26
BRANCH  25  28
HETATM   28  O   UNL     1     -10.233  10.123  70.453  1.00  0.00    -0.228 OA 
HETATM   29  C   UNL     1     -11.586   9.844  70.782  1.00  0.00    -0.349 C  
ENDBRANCH  25  28
BRANCH  21  30
HETATM   30  O   UNL     1     -12.114  12.220  69.836  1.00  0.00    -0.299 OA 
HETATM   31  C   UNL     1     -12.491  13.389  70.559  1.00  0.00    -0.279 C  
ENDBRANCH  21  30
ENDBRANCH   7  20
TORSDOF 4
ENDMDL
MODEL      161
REMARK 921   NORMALIZED FREE ENERGY PREDICTED BY IDOCK:   -2.91 KCAL/MOL
REMARK 922        TOTAL FREE ENERGY PREDICTED BY IDOCK:   -4.34 KCAL/MOL
REMARK 923 INTER-LIGAND FREE ENERGY PREDICTED BY IDOCK:   -3.68 KCAL/MOL
REMARK 924 INTRA-LIGAND FREE ENERGY PREDICTED BY IDOCK:   -0.66 KCAL/MOL
REMARK 927      BINDING AFFINITY PREDICTED BY RF-SCORE:    0.00 PKD
ROOT
HETATM    1  C   UNL     1      -8.279   5.000  67.731  1.00  0.00    -0.098 C  
HETATM    2  C   UNL     1      -8.779   3.689  67.191  1.00  0.00    -0.116 C  
HETATM    3  O   UNL     1      -9.960   4.050  66.449  1.00  0.00    -0.197 OA 
HETATM    4  C   UNL     1     -10.439   5.260  66.891  1.00  0.00    -0.254 C  
HETATM    5  C   UNL     1      -9.560   5.749  68.002  1.00  0.00    -0.131 C  
HETATM    6  O   UNL     1     -11.475   5.776  66.505  1.00  0.00     0.197 OA 
HETATM    7  C   UNL     1      -9.274   7.245  68.138  1.00  0.00    -0.132 C  
HETATM    8  C   UNL     1      -5.453   9.825  71.827  1.00  0.00    -0.041 C  
HETATM    9  C   UNL     1      -8.213   7.441  69.230  1.00  0.00    -0.131 A  
HETATM   10  O   UNL     1      -6.706  10.156  71.194  1.00  0.00    -0.335 OA 
HETATM   11  C   UNL     1      -8.074   8.726  69.783  1.00  0.00    -0.111 A  
HETATM   12  C   UNL     1      -7.027   8.958  70.642  1.00  0.00    -0.064 A  
HETATM   13  C   UNL     1      -7.295   6.390  69.587  1.00  0.00    -0.080 A  
HETATM   14  C   UNL     1      -6.157   7.960  70.998  1.00  0.00    -0.034 A  
HETATM   15  C   UNL     1      -7.412   4.987  68.980  1.00  0.00    -0.065 C  
HETATM   16  H   UNL     1      -5.598   4.476  69.366  1.00  0.00     0.000 HD 
HETATM   17  O   UNL     1      -5.175   8.407  71.827  1.00  0.00    -0.033 OA 
HETATM   18  C   UNL     1      -6.278   6.669  70.519  1.00  0.00    -0.035 A  
HETATM   19  O   UNL     1      -6.140   4.484  68.586  1.00  0.00    -0.028 OA 
ENDROOT
BRANCH   7  20
HETATM   20  C   UNL     1      -8.865   7.912  66.824  1.00  0.00    -0.154 A  
HETATM   21  C   UNL     1      -7.475   7.998  64.802  1.00  0.00    -0.091 A  
HETATM   22  C   UNL     1      -7.767   7.475  66.067  1.00  0.00    -0.094 A  
HETATM   23  C   UNL     1      -9.376   9.503  65.060  1.00  0.00    -0.229 A  
HETATM   24  C   UNL     1      -9.643   8.952  66.317  1.00  0.00    -0.328 A  
HETATM   25  C   UNL     1      -8.283   9.034  64.293  1.00  0.00    -0.164 A  
BRANCH  23  26
HETATM   26  O   UNL     1     -10.127  10.529  64.531  1.00  0.00    -0.334 OA 
HETATM   27  C   UNL     1     -10.314  11.667  65.369  1.00  0.00    -0.267 C  
ENDBRANCH  23  26
BRANCH  25  28
HETATM   28  O   UNL     1      -8.171   9.603  63.045  1.00  0.00    -0.133 OA 
HETATM   29  C   UNL     1      -7.025  10.398  62.775  1.00  0.00    -0.113 C  
ENDBRANCH  25  28
BRANCH  21  30
HETATM   30  O   UNL     1      -6.458   7.500  64.027  1.00  0.00    -0.048 OA 
HETATM   31  C   UNL     1      -6.666   6.266  63.345  1.00  0.00    -0.040 C  
ENDBRANCH  21  30
ENDBRANCH   7  20
TORSDOF 4
ENDMDL
MODEL      162
REMARK 921   NORMALIZED FREE ENERGY PREDICTED BY IDOCK:   -2.88 KCAL/MOL
REMARK 922        TOTAL FREE ENERGY PREDICTED BY IDOCK:   -4.31 KCAL/MOL
REMARK 923 INTER-LIGAND FREE ENERGY PREDICTED BY IDOCK:   -4.68 KCAL/MOL
REMARK 924 INTRA-LIGAND FREE ENERGY PREDICTED BY IDOCK:    0.37 KCAL/MOL
REMARK 927      BINDING AFFINITY PREDICTED BY RF-SCORE:    0.00 PKD
ROOT
HETATM    1  C   UNL     1      -8.008   7.382  67.072  1.00  0.00    -0.116 C  
HETATM    2  C   UNL     1      -7.283   6.123  66.683  1.00  0.00    -0.074 C  
HETATM    3  O   UNL     1      -6.274   5.978  67.701  1.00  0.00    -0.026 OA 
HETATM    4  C   UNL     1      -6.033   7.192  68.297  1.00  0.00    -0.030 C  
HETATM    5  C   UNL     1      -6.901   8.228  67.650  1.00  0.00    -0.070 C  
HETATM    6  O   UNL     1      -5.169   7.391  69.136  1.00  0.00    -0.014 OA 
HETATM    7  C   UNL     1      -7.491   9.357  68.496  1.00  0.00    -0.080 C  
HETATM    8  C   UNL     1     -11.458  13.388  66.798  1.00  0.00    -0.343 C  
HETATM    9  C   UNL     1      -8.475  10.154  67.627  1.00  0.00    -0.118 A  
HETATM   10  O   UNL     1     -10.364  13.304  67.733  1.00  0.00    -0.226 OA 
HETATM   11  C   UNL     1      -8.842  11.438  68.066  1.00  0.00    -0.155 A  
HETATM   12  C   UNL     1      -9.839  12.099  67.391  1.00  0.00    -0.189 A  
HETATM   13  C   UNL     1      -9.111   9.566  66.477  1.00  0.00    -0.185 A  
HETATM   14  C   UNL     1     -10.439  11.554  66.286  1.00  0.00    -0.251 A  
HETATM   15  C   UNL     1      -8.745   8.159  65.993  1.00  0.00    -0.156 C  
HETATM   16  H   UNL     1     -10.367   7.888  64.995  1.00  0.00     0.000 HD 
HETATM   17  O   UNL     1     -11.423  12.354  65.789  1.00  0.00    -0.335 OA 
HETATM   18  C   UNL     1     -10.083  10.315  65.787  1.00  0.00    -0.325 A  
HETATM   19  O   UNL     1      -9.907   7.402  65.670  1.00  0.00     0.506 OA 
ENDROOT
BRANCH   7  20
HETATM   20  C   UNL     1      -8.142   8.875  69.793  1.00  0.00    -0.109 A  
HETATM   21  C   UNL     1      -8.014   7.743  71.968  1.00  0.00    -0.105 A  
HETATM   22  C   UNL     1      -7.465   8.071  70.723  1.00  0.00    -0.072 A  
HETATM   23  C   UNL     1     -10.017   8.981  71.336  1.00  0.00    -0.318 A  
HETATM   24  C   UNL     1      -9.434   9.296  70.104  1.00  0.00    -0.258 A  
HETATM   25  C   UNL     1      -9.312   8.193  72.277  1.00  0.00    -0.224 A  
BRANCH  23  26
HETATM   26  O   UNL     1     -11.290   9.384  71.673  1.00  0.00    -0.372 OA 
HETATM   27  C   UNL     1     -12.014  10.085  70.665  1.00  0.00    -0.313 C  
ENDBRANCH  23  26
BRANCH  25  28
HETATM   28  O   UNL     1      -9.961   8.016  73.478  1.00  0.00    -0.244 OA 
HETATM   29  C   UNL     1     -10.433   6.714  73.795  1.00  0.00    -0.333 C  
ENDBRANCH  25  28
BRANCH  21  30
HETATM   30  O   UNL     1      -7.309   7.037  72.909  1.00  0.00    -0.074 OA 
HETATM   31  C   UNL     1      -6.636   5.848  72.503  1.00  0.00    -0.067 C  
ENDBRANCH  21  30
ENDBRANCH   7  20
TORSDOF 4
ENDMDL
MODEL      163
REMARK 921   NORMALIZED FREE ENERGY PREDICTED BY IDOCK:   -2.84 KCAL/MOL
REMARK 922        TOTAL FREE ENERGY PREDICTED BY IDOCK:   -4.26 KCAL/MOL
REMARK 923 INTER-LIGAND FREE ENERGY PREDICTED BY IDOCK:   -3.97 KCAL/MOL
REMARK 924 INTRA-LIGAND FREE ENERGY PREDICTED BY IDOCK:   -0.28 KCAL/MOL
REMARK 927      BINDING AFFINITY PREDICTED BY RF-SCORE:    0.00 PKD
ROOT
HETATM    1  C   UNL     1      -8.132   3.733  67.584  1.00  0.00    -0.089 C  
HETATM    2  C   UNL     1      -7.753   3.115  66.266  1.00  0.00    -0.077 C  
HETATM    3  O   UNL     1      -8.531   3.854  65.304  1.00  0.00    -0.110 OA 
HETATM    4  C   UNL     1      -9.609   4.440  65.923  1.00  0.00    -0.188 C  
HETATM    5  C   UNL     1      -9.587   4.074  67.376  1.00  0.00    -0.222 C  
HETATM    6  O   UNL     1     -10.487   5.057  65.344  1.00  0.00    -0.010 OA 
HETATM    7  C   UNL     1     -10.039   5.096  68.420  1.00  0.00    -0.205 C  
HETATM    8  C   UNL     1      -9.642   4.610  74.292  1.00  0.00    -0.128 C  
HETATM    9  C   UNL     1      -9.740   4.530  69.816  1.00  0.00    -0.285 A  
HETATM   10  O   UNL     1     -10.510   5.252  73.337  1.00  0.00    -0.193 OA 
HETATM   11  C   UNL     1     -10.402   5.112  70.912  1.00  0.00    -0.282 A  
HETATM   12  C   UNL     1     -10.030   4.730  72.178  1.00  0.00    -0.179 A  
HETATM   13  C   UNL     1      -8.721   3.535  70.024  1.00  0.00    -0.129 A  
HETATM   14  C   UNL     1      -9.071   3.773  72.385  1.00  0.00    -0.106 A  
HETATM   15  C   UNL     1      -7.969   2.903  68.848  1.00  0.00    -0.055 C  
HETATM   16  H   UNL     1      -6.470   2.308  69.895  1.00  0.00     0.000 HD 
HETATM   17  O   UNL     1      -8.827   3.568  73.709  1.00  0.00    -0.088 OA 
HETATM   18  C   UNL     1      -8.424   3.137  71.342  1.00  0.00    -0.091 A  
HETATM   19  O   UNL     1      -6.571   2.827  69.106  1.00  0.00    -0.032 OA 
ENDROOT
BRANCH   7  20
HETATM   20  C   UNL     1      -9.425   6.482  68.227  1.00  0.00    -0.118 A  
HETATM   21  C   UNL     1      -9.541   8.928  68.418  1.00  0.00    -0.146 A  
HETATM   22  C   UNL     1     -10.143   7.665  68.465  1.00  0.00    -0.205 A  
HETATM   23  C   UNL     1      -7.451   7.835  67.802  1.00  0.00    -0.104 A  
HETATM   24  C   UNL     1      -8.082   6.589  67.866  1.00  0.00    -0.116 A  
HETATM   25  C   UNL     1      -8.179   9.018  68.072  1.00  0.00    -0.110 A  
BRANCH  23  26
HETATM   26  O   UNL     1      -6.127   7.972  67.450  1.00  0.00    -0.048 OA 
HETATM   27  C   UNL     1      -5.171   7.566  68.427  1.00  0.00    -0.025 C  
ENDBRANCH  23  26
BRANCH  25  28
HETATM   28  O   UNL     1      -7.428  10.172  68.050  1.00  0.00    -0.086 OA 
HETATM   29  C   UNL     1      -7.056  10.748  69.294  1.00  0.00    -0.116 C  
ENDBRANCH  25  28
BRANCH  21  30
HETATM   30  O   UNL     1     -10.226  10.071  68.744  1.00  0.00    -0.170 OA 
HETATM   31  C   UNL     1     -11.226   9.997  69.757  1.00  0.00    -0.258 C  
ENDBRANCH  21  30
ENDBRANCH   7  20
TORSDOF 4
ENDMDL
MODEL      164
REMARK 921   NORMALIZED FREE ENERGY PREDICTED BY IDOCK:   -2.82 KCAL/MOL
REMARK 922        TOTAL FREE ENERGY PREDICTED BY IDOCK:   -4.23 KCAL/MOL
REMARK 923 INTER-LIGAND FREE ENERGY PREDICTED BY IDOCK:   -5.49 KCAL/MOL
REMARK 924 INTRA-LIGAND FREE ENERGY PREDICTED BY IDOCK:    1.26 KCAL/MOL
REMARK 927      BINDING AFFINITY PREDICTED BY RF-SCORE:    0.00 PKD
ROOT
HETATM    1  C   UNL     1      -8.874  11.087  68.938  1.00  0.00    -0.120 C  
HETATM    2  C   UNL     1      -8.406   9.942  69.795  1.00  0.00    -0.183 C  
HETATM    3  O   UNL     1      -6.975   9.952  69.630  1.00  0.00    -0.065 OA 
HETATM    4  C   UNL     1      -6.641  10.603  68.467  1.00  0.00    -0.055 C  
HETATM    5  C   UNL     1      -7.900  11.048  67.786  1.00  0.00    -0.110 C  
HETATM    6  O   UNL     1      -5.507  10.693  68.026  1.00  0.00    -0.037 OA 
HETATM    7  C   UNL     1      -7.923  12.380  67.036  1.00  0.00    -0.106 C  
HETATM    8  C   UNL     1     -12.626  15.061  64.675  1.00  0.00     0.027 C  
HETATM    9  C   UNL     1      -9.368  12.669  66.602  1.00  0.00    -0.236 A  
HETATM   10  O   UNL     1     -11.210  14.978  64.416  1.00  0.00    -0.281 OA 
HETATM   11  C   UNL     1      -9.567  13.625  65.590  1.00  0.00    -0.026 A  
HETATM   12  C   UNL     1     -10.853  14.013  65.301  1.00  0.00    -0.347 A  
HETATM   13  C   UNL     1     -10.492  12.090  67.290  1.00  0.00    -0.241 A  
HETATM   14  C   UNL     1     -11.930  13.456  65.942  1.00  0.00    -0.409 A  
HETATM   15  C   UNL     1     -10.300  11.063  68.412  1.00  0.00    -0.183 C  
HETATM   16  H   UNL     1     -12.038  11.328  69.193  1.00  0.00     0.000 HD 
HETATM   17  O   UNL     1     -13.108  14.004  65.535  1.00  0.00    -0.713 OA 
HETATM   18  C   UNL     1     -11.790  12.479  66.910  1.00  0.00    -0.404 A  
HETATM   19  O   UNL     1     -11.147  11.342  69.522  1.00  0.00    -0.250 OA 
ENDROOT
BRANCH   7  20
HETATM   20  C   UNL     1      -7.328  13.542  67.832  1.00  0.00    -0.149 A  
HETATM   21  C   UNL     1      -6.039  14.403  69.736  1.00  0.00    -0.131 A  
HETATM   22  C   UNL     1      -6.700  13.362  69.074  1.00  0.00    -0.108 A  
HETATM   23  C   UNL     1      -6.701  15.889  67.921  1.00  0.00    -0.146 A  
HETATM   24  C   UNL     1      -7.346  14.824  67.283  1.00  0.00    -0.147 A  
HETATM   25  C   UNL     1      -6.047  15.688  69.159  1.00  0.00    -0.112 A  
BRANCH  23  26
HETATM   26  O   UNL     1      -6.700  17.165  67.403  1.00  0.00    -0.134 OA 
HETATM   27  C   UNL     1      -7.546  17.387  66.277  1.00  0.00    -0.313 C  
ENDBRANCH  23  26
BRANCH  25  28
HETATM   28  O   UNL     1      -5.388  16.794  69.647  1.00  0.00    -0.142 OA 
HETATM   29  C   UNL     1      -6.152  17.962  69.911  1.00  0.00    -0.166 C  
ENDBRANCH  25  28
BRANCH  21  30
HETATM   30  O   UNL     1      -5.347  14.198  70.902  1.00  0.00    -0.116 OA 
HETATM   31  C   UNL     1      -5.327  12.886  71.458  1.00  0.00    -0.090 C  
ENDBRANCH  21  30
ENDBRANCH   7  20
TORSDOF 4
ENDMDL
MODEL      165
REMARK 921   NORMALIZED FREE ENERGY PREDICTED BY IDOCK:   -2.71 KCAL/MOL
REMARK 922        TOTAL FREE ENERGY PREDICTED BY IDOCK:   -4.09 KCAL/MOL
REMARK 923 INTER-LIGAND FREE ENERGY PREDICTED BY IDOCK:   -3.76 KCAL/MOL
REMARK 924 INTRA-LIGAND FREE ENERGY PREDICTED BY IDOCK:   -0.33 KCAL/MOL
REMARK 927      BINDING AFFINITY PREDICTED BY RF-SCORE:    0.00 PKD
ROOT
HETATM    1  C   UNL     1      -8.868   5.928  67.305  1.00  0.00    -0.106 C  
HETATM    2  C   UNL     1      -8.846   4.447  67.039  1.00  0.00    -0.114 C  
HETATM    3  O   UNL     1      -7.665   3.992  67.727  1.00  0.00    -0.068 OA 
HETATM    4  C   UNL     1      -6.800   5.041  67.917  1.00  0.00    -0.060 C  
HETATM    5  C   UNL     1      -7.400   6.276  67.318  1.00  0.00    -0.083 C  
HETATM    6  O   UNL     1      -5.683   4.938  68.398  1.00  0.00    -0.015 OA 
HETATM    7  C   UNL     1      -7.189   7.628  68.000  1.00  0.00    -0.097 C  
HETATM    8  C   UNL     1      -9.736  12.768  66.596  1.00  0.00    -0.252 C  
HETATM    9  C   UNL     1      -8.057   8.675  67.286  1.00  0.00    -0.101 A  
HETATM   10  O   UNL     1      -8.490  12.322  67.168  1.00  0.00    -0.172 OA 
HETATM   11  C   UNL     1      -7.744  10.031  67.488  1.00  0.00    -0.091 A  
HETATM   12  C   UNL     1      -8.602  10.981  66.990  1.00  0.00    -0.140 A  
HETATM   13  C   UNL     1      -9.232   8.300  66.543  1.00  0.00    -0.236 A  
HETATM   14  C   UNL     1      -9.716  10.633  66.270  1.00  0.00    -0.199 A  
HETATM   15  C   UNL     1      -9.607   6.829  66.329  1.00  0.00    -0.031 C  
HETATM   16  H   UNL     1     -11.458   7.174  65.936  1.00  0.00     0.000 HD 
HETATM   17  O   UNL     1     -10.447  11.720  65.900  1.00  0.00    -0.238 OA 
HETATM   18  C   UNL     1     -10.042   9.317  66.003  1.00  0.00    -0.262 A  
HETATM   19  O   UNL     1     -10.996   6.610  66.546  1.00  0.00    -0.159 OA 
ENDROOT
BRANCH   7  20
HETATM   20  C   UNL     1      -7.456   7.603  69.505  1.00  0.00    -0.092 A  
HETATM   21  C   UNL     1      -8.975   7.309  71.412  1.00  0.00    -0.138 A  
HETATM   22  C   UNL     1      -8.747   7.467  70.040  1.00  0.00    -0.140 A  
HETATM   23  C   UNL     1      -6.572   7.505  71.766  1.00  0.00    -0.042 A  
HETATM   24  C   UNL     1      -6.379   7.652  70.389  1.00  0.00    -0.038 A  
HETATM   25  C   UNL     1      -7.875   7.339  72.291  1.00  0.00    -0.093 A  
BRANCH  23  26
HETATM   26  O   UNL     1      -5.528   7.547  72.664  1.00  0.00    -0.037 OA 
HETATM   27  C   UNL     1      -5.152   6.302  73.249  1.00  0.00    -0.031 C  
ENDBRANCH  23  26
BRANCH  25  28
HETATM   28  O   UNL     1      -7.925   7.130  73.650  1.00  0.00    -0.105 OA 
HETATM   29  C   UNL     1      -8.102   8.261  74.492  1.00  0.00    -0.165 C  
ENDBRANCH  25  28
BRANCH  21  30
HETATM   30  O   UNL     1     -10.230   7.080  71.917  1.00  0.00    -0.188 OA 
HETATM   31  C   UNL     1     -11.357   7.427  71.118  1.00  0.00    -0.268 C  
ENDBRANCH  21  30
ENDBRANCH   7  20
TORSDOF 4
ENDMDL
MODEL      166
REMARK 921   NORMALIZED FREE ENERGY PREDICTED BY IDOCK:   -2.66 KCAL/MOL
REMARK 922        TOTAL FREE ENERGY PREDICTED BY IDOCK:   -4.04 KCAL/MOL
REMARK 923 INTER-LIGAND FREE ENERGY PREDICTED BY IDOCK:   -3.78 KCAL/MOL
REMARK 924 INTRA-LIGAND FREE ENERGY PREDICTED BY IDOCK:   -0.26 KCAL/MOL
REMARK 927      BINDING AFFINITY PREDICTED BY RF-SCORE:    0.00 PKD
ROOT
HETATM    1  C   UNL     1      -7.547   8.434  64.228  1.00  0.00    -0.123 C  
HETATM    2  C   UNL     1      -7.066   8.940  62.896  1.00  0.00    -0.088 C  
HETATM    3  O   UNL     1      -7.515  10.309  62.865  1.00  0.00    -0.142 OA 
HETATM    4  C   UNL     1      -8.557  10.479  63.744  1.00  0.00    -0.151 C  
HETATM    5  C   UNL     1      -8.856   9.165  64.399  1.00  0.00    -0.156 C  
HETATM    6  O   UNL     1      -9.193  11.513  63.869  1.00  0.00    -0.080 OA 
HETATM    7  C   UNL     1      -9.287   9.131  65.865  1.00  0.00    -0.306 C  
HETATM    8  C   UNL     1     -10.011   4.354  69.261  1.00  0.00    -0.074 C  
HETATM    9  C   UNL     1      -9.344   7.666  66.322  1.00  0.00    -0.189 A  
HETATM   10  O   UNL     1     -10.567   5.681  69.163  1.00  0.00    -0.253 OA 
HETATM   11  C   UNL     1     -10.068   7.374  67.492  1.00  0.00    -0.250 A  
HETATM   12  C   UNL     1      -9.998   6.102  68.004  1.00  0.00    -0.141 A  
HETATM   13  C   UNL     1      -8.577   6.640  65.664  1.00  0.00    -0.130 A  
HETATM   14  C   UNL     1      -9.282   5.115  67.376  1.00  0.00    -0.116 A  
HETATM   15  C   UNL     1      -7.762   6.938  64.401  1.00  0.00    -0.113 C  
HETATM   16  H   UNL     1      -6.602   5.413  64.576  1.00  0.00     0.000 HD 
HETATM   17  O   UNL     1      -9.314   3.941  68.064  1.00  0.00    -0.150 OA 
HETATM   18  C   UNL     1      -8.592   5.338  66.199  1.00  0.00    -0.120 A  
HETATM   19  O   UNL     1      -6.468   6.348  64.467  1.00  0.00    -0.033 OA 
ENDROOT
BRANCH   7  20
HETATM   20  C   UNL     1      -8.404   9.976  66.783  1.00  0.00    -0.125 A  
HETATM   21  C   UNL     1      -6.480  10.212  68.292  1.00  0.00    -0.053 A  
HETATM   22  C   UNL     1      -7.372   9.421  67.558  1.00  0.00    -0.084 A  
HETATM   23  C   UNL     1      -7.709  12.179  67.540  1.00  0.00    -0.159 A  
HETATM   24  C   UNL     1      -8.577  11.359  66.811  1.00  0.00    -0.166 A  
HETATM   25  C   UNL     1      -6.655  11.610  68.294  1.00  0.00    -0.059 A  
BRANCH  23  26
HETATM   26  O   UNL     1      -7.853  13.548  67.586  1.00  0.00    -0.147 OA 
HETATM   27  C   UNL     1      -8.878  14.099  66.762  1.00  0.00    -0.167 C  
ENDBRANCH  23  26
BRANCH  25  28
HETATM   28  O   UNL     1      -5.827  12.523  68.905  1.00  0.00    -0.065 OA 
HETATM   29  C   UNL     1      -6.109  12.885  70.249  1.00  0.00    -0.068 C  
ENDBRANCH  25  28
BRANCH  21  30
HETATM   30  O   UNL     1      -5.418   9.669  68.968  1.00  0.00    -0.036 OA 
HETATM   31  C   UNL     1      -5.496   8.306  69.374  1.00  0.00    -0.030 C  
ENDBRANCH  21  30
ENDBRANCH   7  20
TORSDOF 4
ENDMDL
MODEL      167
REMARK 921   NORMALIZED FREE ENERGY PREDICTED BY IDOCK:   -2.58 KCAL/MOL
REMARK 922        TOTAL FREE ENERGY PREDICTED BY IDOCK:   -3.93 KCAL/MOL
REMARK 923 INTER-LIGAND FREE ENERGY PREDICTED BY IDOCK:   -4.19 KCAL/MOL
REMARK 924 INTRA-LIGAND FREE ENERGY PREDICTED BY IDOCK:    0.26 KCAL/MOL
REMARK 927      BINDING AFFINITY PREDICTED BY RF-SCORE:    0.00 PKD
ROOT
HETATM    1  C   UNL     1      -8.479   4.021  67.051  1.00  0.00    -0.100 C  
HETATM    2  C   UNL     1      -8.087   2.707  66.433  1.00  0.00    -0.083 C  
HETATM    3  O   UNL     1      -7.248   2.094  67.432  1.00  0.00    -0.053 OA 
HETATM    4  C   UNL     1      -6.745   3.055  68.274  1.00  0.00    -0.041 C  
HETATM    5  C   UNL     1      -7.242   4.396  67.828  1.00  0.00    -0.065 C  
HETATM    6  O   UNL     1      -5.937   2.840  69.164  1.00  0.00    -0.023 OA 
HETATM    7  C   UNL     1      -7.581   5.463  68.870  1.00  0.00    -0.079 C  
HETATM    8  C   UNL     1     -10.154  10.692  67.915  1.00  0.00    -0.168 C  
HETATM    9  C   UNL     1      -8.233   6.654  68.153  1.00  0.00    -0.114 A  
HETATM   10  O   UNL     1      -9.210  10.127  68.849  1.00  0.00    -0.154 OA 
HETATM   11  C   UNL     1      -8.280   7.882  68.837  1.00  0.00    -0.126 A  
HETATM   12  C   UNL     1      -8.999   8.912  68.281  1.00  0.00    -0.137 A  
HETATM   13  C   UNL     1      -8.898   6.499  66.885  1.00  0.00    -0.120 A  
HETATM   14  C   UNL     1      -9.622   8.777  67.068  1.00  0.00    -0.179 A  
HETATM   15  C   UNL     1      -8.881   5.164  66.132  1.00  0.00    -0.132 C  
HETATM   16  H   UNL     1     -10.421   5.554  65.047  1.00  0.00     0.000 HD 
HETATM   17  O   UNL     1     -10.307   9.901  66.716  1.00  0.00    -0.229 OA 
HETATM   18  C   UNL     1      -9.568   7.607  66.334  1.00  0.00    -0.223 A  
HETATM   19  O   UNL     1     -10.169   4.840  65.621  1.00  0.00    -0.215 OA 
ENDROOT
BRANCH   7  20
HETATM   20  C   UNL     1      -8.451   4.945  70.016  1.00  0.00    -0.091 A  
HETATM   21  C   UNL     1      -8.788   3.497  71.970  1.00  0.00    -0.095 A  
HETATM   22  C   UNL     1      -8.055   3.881  70.841  1.00  0.00    -0.068 A  
HETATM   23  C   UNL     1     -10.416   5.226  71.418  1.00  0.00    -0.203 A  
HETATM   24  C   UNL     1      -9.654   5.589  70.302  1.00  0.00    -0.227 A  
HETATM   25  C   UNL     1      -9.992   4.170  72.259  1.00  0.00    -0.174 A  
BRANCH  23  26
HETATM   26  O   UNL     1     -11.607   5.844  71.728  1.00  0.00    -0.254 OA 
HETATM   27  C   UNL     1     -11.604   7.269  71.693  1.00  0.00    -0.274 C  
ENDBRANCH  23  26
BRANCH  25  28
HETATM   28  O   UNL     1     -10.787   3.960  73.362  1.00  0.00    -0.191 OA 
HETATM   29  C   UNL     1     -10.515   4.718  74.533  1.00  0.00    -0.260 C  
ENDBRANCH  25  28
BRANCH  21  30
HETATM   30  O   UNL     1      -8.347   2.520  72.825  1.00  0.00    -0.064 OA 
HETATM   31  C   UNL     1      -7.414   2.878  73.841  1.00  0.00    -0.047 C  
ENDBRANCH  21  30
ENDBRANCH   7  20
TORSDOF 4
ENDMDL
MODEL      168
REMARK 921   NORMALIZED FREE ENERGY PREDICTED BY IDOCK:   -2.53 KCAL/MOL
REMARK 922        TOTAL FREE ENERGY PREDICTED BY IDOCK:   -3.88 KCAL/MOL
REMARK 923 INTER-LIGAND FREE ENERGY PREDICTED BY IDOCK:   -4.19 KCAL/MOL
REMARK 924 INTRA-LIGAND FREE ENERGY PREDICTED BY IDOCK:    0.32 KCAL/MOL
REMARK 927      BINDING AFFINITY PREDICTED BY RF-SCORE:    0.00 PKD
ROOT
HETATM    1  C   UNL     1      -9.095  10.394  65.026  1.00  0.00    -0.237 C  
HETATM    2  C   UNL     1      -9.270   9.465  63.856  1.00  0.00     0.074 C  
HETATM    3  O   UNL     1      -8.212   8.501  64.021  1.00  0.00    -0.159 OA 
HETATM    4  C   UNL     1      -7.218   9.026  64.810  1.00  0.00    -0.096 C  
HETATM    5  C   UNL     1      -7.596  10.424  65.194  1.00  0.00    -0.103 C  
HETATM    6  O   UNL     1      -6.160   8.468  65.051  1.00  0.00    -0.051 OA 
HETATM    7  C   UNL     1      -7.235  10.951  66.583  1.00  0.00    -0.139 C  
HETATM    8  C   UNL     1      -8.922  16.065  69.008  1.00  0.00    -0.244 C  
HETATM    9  C   UNL     1      -7.897  12.324  66.770  1.00  0.00     0.043 A  
HETATM   10  O   UNL     1      -7.791  15.174  69.088  1.00  0.00    -0.169 OA 
HETATM   11  C   UNL     1      -7.405  13.152  67.795  1.00  0.00    -0.143 A  
HETATM   12  C   UNL     1      -8.084  14.311  68.082  1.00  0.00    -0.144 A  
HETATM   13  C   UNL     1      -9.065  12.707  66.021  1.00  0.00     0.099 A  
HETATM   14  C   UNL     1      -9.190  14.690  67.364  1.00  0.00    -0.198 A  
HETATM   15  C   UNL     1      -9.634  11.811  64.915  1.00  0.00    -0.112 C  
HETATM   16  H   UNL     1     -11.388  12.600  64.933  1.00  0.00     0.000 HD 
HETATM   17  O   UNL     1      -9.732  15.848  67.831  1.00  0.00    -0.215 OA 
HETATM   18  C   UNL     1      -9.685  13.936  66.317  1.00  0.00    -0.304 A  
HETATM   19  O   UNL     1     -11.051  11.714  65.002  1.00  0.00    -0.299 OA 
ENDROOT
BRANCH   7  20
HETATM   20  C   UNL     1      -7.596   9.990  67.716  1.00  0.00    -0.090 A  
HETATM   21  C   UNL     1      -7.465   9.298  70.068  1.00  0.00    -0.094 A  
HETATM   22  C   UNL     1      -7.035  10.092  68.998  1.00  0.00    -0.056 A  
HETATM   23  C   UNL     1      -9.013   8.197  68.541  1.00  0.00    -0.137 A  
HETATM   24  C   UNL     1      -8.565   9.012  67.497  1.00  0.00    -0.120 A  
HETATM   25  C   UNL     1      -8.460   8.329  69.837  1.00  0.00    -0.127 A  
BRANCH  23  26
HETATM   26  O   UNL     1      -9.970   7.224  68.357  1.00  0.00    -0.152 OA 
HETATM   27  C   UNL     1     -10.405   7.016  67.015  1.00  0.00    -0.290 C  
ENDBRANCH  23  26
BRANCH  25  28
HETATM   28  O   UNL     1      -9.036   7.523  70.792  1.00  0.00    -0.152 OA 
HETATM   29  C   UNL     1     -10.282   7.928  71.343  1.00  0.00    -0.190 C  
ENDBRANCH  25  28
BRANCH  21  30
HETATM   30  O   UNL     1      -6.980   9.469  71.340  1.00  0.00    -0.316 OA 
HETATM   31  C   UNL     1      -5.568   9.504  71.528  1.00  0.00    -0.074 C  
ENDBRANCH  21  30
ENDBRANCH   7  20
TORSDOF 4
ENDMDL
MODEL      169
REMARK 921   NORMALIZED FREE ENERGY PREDICTED BY IDOCK:   -2.48 KCAL/MOL
REMARK 922        TOTAL FREE ENERGY PREDICTED BY IDOCK:   -3.81 KCAL/MOL
REMARK 923 INTER-LIGAND FREE ENERGY PREDICTED BY IDOCK:   -3.56 KCAL/MOL
REMARK 924 INTRA-LIGAND FREE ENERGY PREDICTED BY IDOCK:   -0.25 KCAL/MOL
REMARK 927      BINDING AFFINITY PREDICTED BY RF-SCORE:    0.00 PKD
ROOT
HETATM    1  C   UNL     1     -10.434   6.288  68.625  1.00  0.00    -0.274 C  
HETATM    2  C   UNL     1     -11.649   6.322  69.510  1.00  0.00    -0.168 C  
HETATM    3  O   UNL     1     -11.178   6.956  70.716  1.00  0.00    -0.263 OA 
HETATM    4  C   UNL     1      -9.813   6.838  70.804  1.00  0.00    -0.183 C  
HETATM    5  C   UNL     1      -9.317   6.072  69.616  1.00  0.00    -0.161 C  
HETATM    6  O   UNL     1      -9.148   7.205  71.759  1.00  0.00    -0.139 OA 
HETATM    7  C   UNL     1      -7.976   6.442  68.982  1.00  0.00    -0.111 C  
HETATM    8  C   UNL     1      -5.693   4.323  63.965  1.00  0.00    -0.014 C  
HETATM    9  C   UNL     1      -7.807   5.632  67.689  1.00  0.00    -0.097 A  
HETATM   10  O   UNL     1      -5.204   4.835  65.221  1.00  0.00    -0.011 OA 
HETATM   11  C   UNL     1      -6.513   5.524  67.149  1.00  0.00    -0.044 A  
HETATM   12  C   UNL     1      -6.367   4.942  65.914  1.00  0.00    -0.039 A  
HETATM   13  C   UNL     1      -8.942   5.111  66.972  1.00  0.00    -0.112 A  
HETATM   14  C   UNL     1      -7.440   4.431  65.231  1.00  0.00    -0.077 A  
HETATM   15  C   UNL     1     -10.365   5.237  67.528  1.00  0.00    -0.162 C  
HETATM   16  H   UNL     1     -11.240   4.986  65.833  1.00  0.00     0.000 HD 
HETATM   17  O   UNL     1      -7.084   3.932  64.015  1.00  0.00    -0.048 OA 
HETATM   18  C   UNL     1      -8.725   4.469  65.738  1.00  0.00    -0.121 A  
HETATM   19  O   UNL     1     -11.283   5.643  66.519  1.00  0.00    -0.098 OA 
ENDROOT
BRANCH   7  20
HETATM   20  C   UNL     1      -7.808   7.942  68.736  1.00  0.00    -0.118 A  
HETATM   21  C   UNL     1      -7.132  10.179  69.490  1.00  0.00    -0.101 A  
HETATM   22  C   UNL     1      -7.415   8.833  69.748  1.00  0.00    -0.056 A  
HETATM   23  C   UNL     1      -7.720   9.788  67.157  1.00  0.00    -0.095 A  
HETATM   24  C   UNL     1      -7.986   8.446  67.448  1.00  0.00    -0.106 A  
HETATM   25  C   UNL     1      -7.297  10.669  68.180  1.00  0.00    -0.088 A  
BRANCH  23  26
HETATM   26  O   UNL     1      -7.884  10.314  65.895  1.00  0.00    -0.127 OA 
HETATM   27  C   UNL     1      -7.992   9.371  64.831  1.00  0.00    -0.120 C  
ENDBRANCH  23  26
BRANCH  25  28
HETATM   28  O   UNL     1      -6.995  11.942  67.752  1.00  0.00    -0.086 OA 
HETATM   29  C   UNL     1      -7.689  13.028  68.351  1.00  0.00    -0.137 C  
ENDBRANCH  25  28
BRANCH  21  30
HETATM   30  O   UNL     1      -6.657  11.020  70.464  1.00  0.00    -0.299 OA 
HETATM   31  C   UNL     1      -5.326  10.830  70.936  1.00  0.00    -0.107 C  
ENDBRANCH  21  30
ENDBRANCH   7  20
TORSDOF 4
ENDMDL
MODEL      170
REMARK 921   NORMALIZED FREE ENERGY PREDICTED BY IDOCK:   -2.31 KCAL/MOL
REMARK 922        TOTAL FREE ENERGY PREDICTED BY IDOCK:   -3.60 KCAL/MOL
REMARK 923 INTER-LIGAND FREE ENERGY PREDICTED BY IDOCK:   -2.93 KCAL/MOL
REMARK 924 INTRA-LIGAND FREE ENERGY PREDICTED BY IDOCK:   -0.67 KCAL/MOL
REMARK 927      BINDING AFFINITY PREDICTED BY RF-SCORE:    0.00 PKD
ROOT
HETATM    1  C   UNL     1      -7.571   9.216  69.876  1.00  0.00    -0.080 C  
HETATM    2  C   UNL     1      -7.644  10.684  69.553  1.00  0.00    -0.124 C  
HETATM    3  O   UNL     1      -7.008  10.785  68.265  1.00  0.00    -0.067 OA 
HETATM    4  C   UNL     1      -6.190   9.700  68.060  1.00  0.00    -0.056 C  
HETATM    5  C   UNL     1      -6.249   8.817  69.269  1.00  0.00    -0.042 C  
HETATM    6  O   UNL     1      -5.460   9.558  67.092  1.00  0.00    -0.039 OA 
HETATM    7  C   UNL     1      -6.188   7.298  69.100  1.00  0.00    -0.035 C  
HETATM    8  C   UNL     1      -6.989   3.210  73.286  1.00  0.00    -0.040 C  
HETATM    9  C   UNL     1      -6.454   6.646  70.465  1.00  0.00    -0.047 A  
HETATM   10  O   UNL     1      -6.240   3.343  72.061  1.00  0.00    -0.013 OA 
HETATM   11  C   UNL     1      -6.078   5.301  70.630  1.00  0.00    -0.022 A  
HETATM   12  C   UNL     1      -6.450   4.655  71.784  1.00  0.00    -0.023 A  
HETATM   13  C   UNL     1      -7.182   7.332  71.500  1.00  0.00    -0.072 A  
HETATM   14  C   UNL     1      -7.131   5.305  72.780  1.00  0.00    -0.088 A  
HETATM   15  C   UNL     1      -7.622   8.791  71.334  1.00  0.00    -0.102 C  
HETATM   16  H   UNL     1      -8.997   8.713  72.677  1.00  0.00     0.000 HD 
HETATM   17  O   UNL     1      -7.434   4.478  73.819  1.00  0.00    -0.078 OA 
HETATM   18  C   UNL     1      -7.483   6.639  72.687  1.00  0.00    -0.092 A  
HETATM   19  O   UNL     1      -8.966   8.980  71.766  1.00  0.00    -0.343 OA 
ENDROOT
BRANCH   7  20
HETATM   20  C   UNL     1      -7.133   6.763  68.024  1.00  0.00    -0.085 A  
HETATM   21  C   UNL     1      -7.532   5.848  65.780  1.00  0.00    -0.081 A  
HETATM   22  C   UNL     1      -6.700   6.464  66.722  1.00  0.00    -0.060 A  
HETATM   23  C   UNL     1      -9.322   5.889  67.434  1.00  0.00    -0.111 A  
HETATM   24  C   UNL     1      -8.461   6.495  68.353  1.00  0.00    -0.120 A  
HETATM   25  C   UNL     1      -8.866   5.566  66.134  1.00  0.00    -0.139 A  
BRANCH  23  26
HETATM   26  O   UNL     1     -10.638   5.611  67.731  1.00  0.00    -0.227 OA 
HETATM   27  C   UNL     1     -11.144   6.179  68.936  1.00  0.00    -0.345 C  
ENDBRANCH  23  26
BRANCH  25  28
HETATM   28  O   UNL     1      -9.784   4.905  65.350  1.00  0.00    -0.149 OA 
HETATM   29  C   UNL     1      -9.608   3.510  65.149  1.00  0.00    -0.151 C  
ENDBRANCH  25  28
BRANCH  21  30
HETATM   30  O   UNL     1      -7.075   5.473  64.543  1.00  0.00    -0.048 OA 
HETATM   31  C   UNL     1      -7.029   6.453  63.509  1.00  0.00    -0.047 C  
ENDBRANCH  21  30
ENDBRANCH   7  20
TORSDOF 4
ENDMDL
MODEL      171
REMARK 921   NORMALIZED FREE ENERGY PREDICTED BY IDOCK:   -2.30 KCAL/MOL
REMARK 922        TOTAL FREE ENERGY PREDICTED BY IDOCK:   -3.59 KCAL/MOL
REMARK 923 INTER-LIGAND FREE ENERGY PREDICTED BY IDOCK:   -3.49 KCAL/MOL
REMARK 924 INTRA-LIGAND FREE ENERGY PREDICTED BY IDOCK:   -0.10 KCAL/MOL
REMARK 927      BINDING AFFINITY PREDICTED BY RF-SCORE:    0.00 PKD
ROOT
HETATM    1  C   UNL     1      -8.822   8.378  69.445  1.00  0.00    -0.142 C  
HETATM    2  C   UNL     1      -8.514   9.752  68.916  1.00  0.00    -0.129 C  
HETATM    3  O   UNL     1      -7.222   9.601  68.297  1.00  0.00    -0.077 OA 
HETATM    4  C   UNL     1      -6.580   8.502  68.815  1.00  0.00    -0.054 C  
HETATM    5  C   UNL     1      -7.459   7.876  69.854  1.00  0.00    -0.080 C  
HETATM    6  O   UNL     1      -5.436   8.177  68.541  1.00  0.00    -0.031 OA 
HETATM    7  C   UNL     1      -7.486   6.354  70.005  1.00  0.00    -0.091 C  
HETATM    8  C   UNL     1     -11.122   3.170  73.399  1.00  0.00    -0.179 C  
HETATM    9  C   UNL     1      -8.596   5.983  71.000  1.00  0.00    -0.131 A  
HETATM   10  O   UNL     1      -9.776   3.063  72.893  1.00  0.00    -0.106 OA 
HETATM   11  C   UNL     1      -8.556   4.700  71.574  1.00  0.00    -0.125 A  
HETATM   12  C   UNL     1      -9.622   4.293  72.339  1.00  0.00    -0.141 A  
HETATM   13  C   UNL     1      -9.715   6.856  71.240  1.00  0.00    -0.175 A  
HETATM   14  C   UNL     1     -10.685   5.123  72.585  1.00  0.00    -0.237 A  
HETATM   15  C   UNL     1      -9.793   8.250  70.607  1.00  0.00    -0.182 C  
HETATM   16  H   UNL     1     -11.697   8.430  70.810  1.00  0.00     0.000 HD 
HETATM   17  O   UNL     1     -11.647   4.515  73.332  1.00  0.00    -0.300 OA 
HETATM   18  C   UNL     1     -10.751   6.409  72.083  1.00  0.00    -0.259 A  
HETATM   19  O   UNL     1     -11.090   8.510  70.083  1.00  0.00    -0.248 OA 
ENDROOT
BRANCH   7  20
HETATM   20  C   UNL     1      -7.642   5.609  68.679  1.00  0.00    -0.088 A  
HETATM   21  C   UNL     1      -8.309   5.548  66.316  1.00  0.00    -0.112 A  
HETATM   22  C   UNL     1      -8.285   6.176  67.567  1.00  0.00    -0.109 A  
HETATM   23  C   UNL     1      -7.083   3.686  67.303  1.00  0.00    -0.059 A  
HETATM   24  C   UNL     1      -7.071   4.346  68.536  1.00  0.00    -0.052 A  
HETATM   25  C   UNL     1      -7.710   4.281  66.182  1.00  0.00    -0.090 A  
BRANCH  23  26
HETATM   26  O   UNL     1      -6.526   2.438  67.130  1.00  0.00    -0.033 OA 
HETATM   27  C   UNL     1      -6.618   1.550  68.241  1.00  0.00    -0.029 C  
ENDBRANCH  23  26
BRANCH  25  28
HETATM   28  O   UNL     1      -7.588   3.568  65.011  1.00  0.00    -0.075 OA 
HETATM   29  C   UNL     1      -6.482   3.856  64.167  1.00  0.00    -0.041 C  
ENDBRANCH  25  28
BRANCH  21  30
HETATM   30  O   UNL     1      -8.855   6.151  65.212  1.00  0.00    -0.089 OA 
HETATM   31  C   UNL     1      -8.222   7.316  64.691  1.00  0.00    -0.027 C  
ENDBRANCH  21  30
ENDBRANCH   7  20
TORSDOF 4
ENDMDL
MODEL      172
REMARK 921   NORMALIZED FREE ENERGY PREDICTED BY IDOCK:   -2.13 KCAL/MOL
REMARK 922        TOTAL FREE ENERGY PREDICTED BY IDOCK:   -3.38 KCAL/MOL
REMARK 923 INTER-LIGAND FREE ENERGY PREDICTED BY IDOCK:   -2.98 KCAL/MOL
REMARK 924 INTRA-LIGAND FREE ENERGY PREDICTED BY IDOCK:   -0.39 KCAL/MOL
REMARK 927      BINDING AFFINITY PREDICTED BY RF-SCORE:    0.00 PKD
ROOT
HETATM    1  C   UNL     1      -7.811   3.778  66.749  1.00  0.00    -0.088 C  
HETATM    2  C   UNL     1      -7.789   2.278  66.860  1.00  0.00    -0.071 C  
HETATM    3  O   UNL     1      -6.999   2.031  68.039  1.00  0.00    -0.039 OA 
HETATM    4  C   UNL     1      -6.204   3.119  68.306  1.00  0.00    -0.032 C  
HETATM    5  C   UNL     1      -6.441   4.159  67.254  1.00  0.00    -0.042 C  
HETATM    6  O   UNL     1      -5.369   3.163  69.194  1.00  0.00    -0.011 OA 
HETATM    7  C   UNL     1      -6.417   5.640  67.634  1.00  0.00    -0.047 C  
HETATM    8  C   UNL     1      -7.868  10.227  64.210  1.00  0.00    -0.117 C  
HETATM    9  C   UNL     1      -6.869   6.463  66.419  1.00  0.00    -0.061 A  
HETATM   10  O   UNL     1      -6.972   9.964  65.309  1.00  0.00    -0.108 OA 
HETATM   11  C   UNL     1      -6.566   7.836  66.411  1.00  0.00    -0.050 A  
HETATM   12  C   UNL     1      -7.099   8.616  65.414  1.00  0.00    -0.083 A  
HETATM   13  C   UNL     1      -7.690   5.890  65.384  1.00  0.00    -0.093 A  
HETATM   14  C   UNL     1      -7.870   8.077  64.417  1.00  0.00    -0.139 A  
HETATM   15  C   UNL     1      -8.053   4.401  65.384  1.00  0.00    -0.102 C  
HETATM   16  H   UNL     1      -9.582   4.592  64.232  1.00  0.00     0.000 HD 
HETATM   17  O   UNL     1      -8.326   9.025  63.552  1.00  0.00    -0.175 OA 
HETATM   18  C   UNL     1      -8.158   6.727  64.353  1.00  0.00    -0.058 A  
HETATM   19  O   UNL     1      -9.430   4.202  65.085  1.00  0.00    -0.151 OA 
ENDROOT
BRANCH   7  20
HETATM   20  C   UNL     1      -7.244   5.966  68.878  1.00  0.00    -0.082 A  
HETATM   21  C   UNL     1      -7.424   6.351  71.297  1.00  0.00    -0.089 A  
HETATM   22  C   UNL     1      -6.706   5.923  70.174  1.00  0.00    -0.048 A  
HETATM   23  C   UNL     1      -9.314   6.815  69.828  1.00  0.00    -0.145 A  
HETATM   24  C   UNL     1      -8.565   6.387  68.727  1.00  0.00    -0.123 A  
HETATM   25  C   UNL     1      -8.751   6.793  71.126  1.00  0.00    -0.136 A  
BRANCH  23  26
HETATM   26  O   UNL     1     -10.619   7.237  69.711  1.00  0.00    -0.224 OA 
HETATM   27  C   UNL     1     -11.618   6.225  69.807  1.00  0.00    -0.260 C  
ENDBRANCH  23  26
BRANCH  25  28
HETATM   28  O   UNL     1      -9.560   7.308  72.112  1.00  0.00    -0.140 OA 
HETATM   29  C   UNL     1      -9.175   8.534  72.719  1.00  0.00    -0.160 C  
ENDBRANCH  25  28
BRANCH  21  30
HETATM   30  O   UNL     1      -6.859   6.396  72.546  1.00  0.00    -0.067 OA 
HETATM   31  C   UNL     1      -5.752   7.267  72.760  1.00  0.00    -0.041 C  
ENDBRANCH  21  30
ENDBRANCH   7  20
TORSDOF 4
ENDMDL
MODEL      173
REMARK 921   NORMALIZED FREE ENERGY PREDICTED BY IDOCK:   -2.03 KCAL/MOL
REMARK 922        TOTAL FREE ENERGY PREDICTED BY IDOCK:   -3.26 KCAL/MOL
REMARK 923 INTER-LIGAND FREE ENERGY PREDICTED BY IDOCK:   -3.43 KCAL/MOL
REMARK 924 INTRA-LIGAND FREE ENERGY PREDICTED BY IDOCK:    0.17 KCAL/MOL
REMARK 927      BINDING AFFINITY PREDICTED BY RF-SCORE:    0.00 PKD
ROOT
HETATM    1  C   UNL     1     -11.002   8.791  70.221  1.00  0.00    -0.255 C  
HETATM    2  C   UNL     1     -11.501   8.269  71.541  1.00  0.00    -0.275 C  
HETATM    3  O   UNL     1     -11.337   6.842  71.431  1.00  0.00    -0.255 OA 
HETATM    4  C   UNL     1     -11.278   6.478  70.108  1.00  0.00    -0.377 C  
HETATM    5  C   UNL     1     -11.426   7.706  69.263  1.00  0.00     0.456 C  
HETATM    6  O   UNL     1     -11.226   5.326  69.710  1.00  0.00     0.214 OA 
HETATM    7  C   UNL     1     -10.641   7.825  67.956  1.00  0.00    -0.201 C  
HETATM    8  C   UNL     1     -10.232  12.567  64.460  1.00  0.00    -0.307 C  
HETATM    9  C   UNL     1     -10.837   9.242  67.397  1.00  0.00    -0.165 A  
HETATM   10  O   UNL     1     -10.196  11.133  64.312  1.00  0.00    -0.286 OA 
HETATM   11  C   UNL     1     -10.530   9.459  66.042  1.00  0.00     0.088 A  
HETATM   12  C   UNL     1     -10.546  10.747  65.566  1.00  0.00    -0.135 A  
HETATM   13  C   UNL     1     -11.191  10.347  68.251  1.00  0.00    -0.330 A  
HETATM   14  C   UNL     1     -10.895  11.803  66.368  1.00  0.00    -0.282 A  
HETATM   15  C   UNL     1     -11.508  10.140  69.736  1.00  0.00    -0.228 C  
HETATM   16  H   UNL     1     -11.190  11.969  70.241  1.00  0.00     0.000 HD 
HETATM   17  O   UNL     1     -10.811  12.994  65.714  1.00  0.00    -0.270 OA 
HETATM   18  C   UNL     1     -11.251  11.638  67.694  1.00  0.00    -0.345 A  
HETATM   19  O   UNL     1     -10.874  11.125  70.544  1.00  0.00     0.296 OA 
ENDROOT
BRANCH   7  20
HETATM   20  C   UNL     1      -9.160   7.472  68.096  1.00  0.00    -0.128 A  
HETATM   21  C   UNL     1      -6.970   7.787  69.160  1.00  0.00    -0.065 A  
HETATM   22  C   UNL     1      -8.289   8.192  68.929  1.00  0.00    -0.125 A  
HETATM   23  C   UNL     1      -7.344   5.926  67.630  1.00  0.00    -0.077 A  
HETATM   24  C   UNL     1      -8.660   6.355  67.428  1.00  0.00    -0.107 A  
HETATM   25  C   UNL     1      -6.484   6.644  68.494  1.00  0.00    -0.049 A  
BRANCH  23  26
HETATM   26  O   UNL     1      -6.822   4.827  66.986  1.00  0.00    -0.053 OA 
HETATM   27  C   UNL     1      -6.330   5.046  65.666  1.00  0.00    -0.035 C  
ENDBRANCH  23  26
BRANCH  25  28
HETATM   28  O   UNL     1      -5.241   6.080  68.667  1.00  0.00    -0.006 OA 
HETATM   29  C   UNL     1      -5.175   4.695  68.978  1.00  0.00    -0.004 C  
ENDBRANCH  25  28
BRANCH  21  30
HETATM   30  O   UNL     1      -6.155   8.440  70.048  1.00  0.00    -0.031 OA 
HETATM   31  C   UNL     1      -6.327   9.844  70.222  1.00  0.00    -0.094 C  
ENDBRANCH  21  30
ENDBRANCH   7  20
TORSDOF 4
ENDMDL
MODEL      174
REMARK 921   NORMALIZED FREE ENERGY PREDICTED BY IDOCK:   -1.98 KCAL/MOL
REMARK 922        TOTAL FREE ENERGY PREDICTED BY IDOCK:   -3.20 KCAL/MOL
REMARK 923 INTER-LIGAND FREE ENERGY PREDICTED BY IDOCK:   -2.58 KCAL/MOL
REMARK 924 INTRA-LIGAND FREE ENERGY PREDICTED BY IDOCK:   -0.62 KCAL/MOL
REMARK 927      BINDING AFFINITY PREDICTED BY RF-SCORE:    0.00 PKD
ROOT
HETATM    1  C   UNL     1      -7.370   9.250  69.478  1.00  0.00    -0.070 C  
HETATM    2  C   UNL     1      -7.457  10.666  68.978  1.00  0.00    -0.117 C  
HETATM    3  O   UNL     1      -6.770  10.626  67.712  1.00  0.00    -0.067 OA 
HETATM    4  C   UNL     1      -5.925   9.543  67.671  1.00  0.00    -0.052 C  
HETATM    5  C   UNL     1      -6.017   8.811  68.975  1.00  0.00    -0.043 C  
HETATM    6  O   UNL     1      -5.154   9.303  66.757  1.00  0.00    -0.033 OA 
HETATM    7  C   UNL     1      -5.921   7.285  68.995  1.00  0.00    -0.023 C  
HETATM    8  C   UNL     1      -6.816   3.713  73.611  1.00  0.00    -0.045 C  
HETATM    9  C   UNL     1      -6.230   6.796  70.417  1.00  0.00    -0.035 A  
HETATM   10  O   UNL     1      -6.020   3.715  72.409  1.00  0.00    -0.008 OA 
HETATM   11  C   UNL     1      -5.836   5.490  70.758  1.00  0.00    -0.024 A  
HETATM   12  C   UNL     1      -6.243   4.979  71.967  1.00  0.00    -0.030 A  
HETATM   13  C   UNL     1      -7.012   7.584  71.333  1.00  0.00    -0.054 A  
HETATM   14  C   UNL     1      -6.976   5.728  72.850  1.00  0.00    -0.077 A  
HETATM   15  C   UNL     1      -7.473   9.002  70.975  1.00  0.00    -0.114 C  
HETATM   16  H   UNL     1      -8.900   9.055  72.263  1.00  0.00     0.000 HD 
HETATM   17  O   UNL     1      -7.306   5.025  73.969  1.00  0.00    -0.081 OA 
HETATM   18  C   UNL     1      -7.348   7.032  72.583  1.00  0.00    -0.080 A  
HETATM   19  O   UNL     1      -8.836   9.210  71.328  1.00  0.00    -0.257 OA 
ENDROOT
BRANCH   7  20
HETATM   20  C   UNL     1      -6.811   6.602  67.955  1.00  0.00    -0.077 A  
HETATM   21  C   UNL     1      -8.983   6.309  66.848  1.00  0.00    -0.120 A  
HETATM   22  C   UNL     1      -8.194   6.829  67.881  1.00  0.00    -0.117 A  
HETATM   23  C   UNL     1      -6.987   5.229  65.958  1.00  0.00    -0.067 A  
HETATM   24  C   UNL     1      -6.227   5.772  66.999  1.00  0.00    -0.034 A  
HETATM   25  C   UNL     1      -8.376   5.489  65.878  1.00  0.00    -0.125 A  
BRANCH  23  26
HETATM   26  O   UNL     1      -6.440   4.407  64.998  1.00  0.00    -0.034 OA 
HETATM   27  C   UNL     1      -5.238   4.870  64.386  1.00  0.00    -0.009 C  
ENDBRANCH  23  26
BRANCH  25  28
HETATM   28  O   UNL     1      -8.995   4.962  64.767  1.00  0.00    -0.154 OA 
HETATM   29  C   UNL     1      -9.935   3.914  64.963  1.00  0.00    -0.184 C  
ENDBRANCH  25  28
BRANCH  21  30
HETATM   30  O   UNL     1     -10.315   6.613  66.729  1.00  0.00    -0.219 OA 
HETATM   31  C   UNL     1     -10.774   7.864  67.234  1.00  0.00    -0.229 C  
ENDBRANCH  21  30
ENDBRANCH   7  20
TORSDOF 4
ENDMDL
MODEL      175
REMARK 921   NORMALIZED FREE ENERGY PREDICTED BY IDOCK:   -1.97 KCAL/MOL
REMARK 922        TOTAL FREE ENERGY PREDICTED BY IDOCK:   -3.19 KCAL/MOL
REMARK 923 INTER-LIGAND FREE ENERGY PREDICTED BY IDOCK:   -3.01 KCAL/MOL
REMARK 924 INTRA-LIGAND FREE ENERGY PREDICTED BY IDOCK:   -0.18 KCAL/MOL
REMARK 927      BINDING AFFINITY PREDICTED BY RF-SCORE:    0.00 PKD
ROOT
HETATM    1  C   UNL     1      -7.332   9.692  63.652  1.00  0.00    -0.115 C  
HETATM    2  C   UNL     1      -7.123  10.830  62.692  1.00  0.00     0.025 C  
HETATM    3  O   UNL     1      -8.389  11.517  62.691  1.00  0.00    -0.090 OA 
HETATM    4  C   UNL     1      -9.381  10.671  63.122  1.00  0.00    -0.314 C  
HETATM    5  C   UNL     1      -8.778   9.331  63.417  1.00  0.00    -0.193 C  
HETATM    6  O   UNL     1     -10.568  10.952  63.145  1.00  0.00    -0.191 OA 
HETATM    7  C   UNL     1      -9.308   8.503  64.588  1.00  0.00     0.765 C  
HETATM    8  C   UNL     1      -7.044   3.484  66.723  1.00  0.00    -0.059 C  
HETATM    9  C   UNL     1      -8.398   7.280  64.772  1.00  0.00     0.011 A  
HETATM   10  O   UNL     1      -8.343   4.101  66.614  1.00  0.00    -0.101 OA 
HETATM   11  C   UNL     1      -8.897   6.201  65.523  1.00  0.00    -0.063 A  
HETATM   12  C   UNL     1      -8.043   5.170  65.832  1.00  0.00    -0.109 A  
HETATM   13  C   UNL     1      -7.033   7.281  64.313  1.00  0.00    -0.056 A  
HETATM   14  C   UNL     1      -6.747   5.156  65.388  1.00  0.00    -0.052 A  
HETATM   15  C   UNL     1      -6.459   8.455  63.513  1.00  0.00    -0.081 C  
HETATM   16  H   UNL     1      -4.619   8.044  63.891  1.00  0.00     0.000 HD 
HETATM   17  O   UNL     1      -6.063   4.066  65.835  1.00  0.00    -0.029 OA 
HETATM   18  C   UNL     1      -6.221   6.169  64.607  1.00  0.00    -0.030 A  
HETATM   19  O   UNL     1      -5.164   8.817  63.978  1.00  0.00    -0.054 OA 
ENDROOT
BRANCH   7  20
HETATM   20  C   UNL     1      -9.455   9.300  65.885  1.00  0.00    -0.325 A  
HETATM   21  C   UNL     1     -10.727  10.809  67.345  1.00  0.00    -0.268 A  
HETATM   22  C   UNL     1     -10.521  10.185  66.109  1.00  0.00    -0.173 A  
HETATM   23  C   UNL     1      -8.709   9.713  68.160  1.00  0.00    -0.119 A  
HETATM   24  C   UNL     1      -8.538   9.099  66.915  1.00  0.00    -0.129 A  
HETATM   25  C   UNL     1      -9.803  10.580  68.384  1.00  0.00    -0.161 A  
BRANCH  23  26
HETATM   26  O   UNL     1      -7.821   9.533  69.198  1.00  0.00    -0.076 OA 
HETATM   27  C   UNL     1      -6.680  10.387  69.204  1.00  0.00    -0.061 C  
ENDBRANCH  23  26
BRANCH  25  28
HETATM   28  O   UNL     1      -9.903  11.061  69.669  1.00  0.00     0.040 OA 
HETATM   29  C   UNL     1     -10.934  10.542  70.498  1.00  0.00    -0.096 C  
ENDBRANCH  25  28
BRANCH  21  30
HETATM   30  O   UNL     1     -11.824  11.597  67.586  1.00  0.00    -0.575 OA 
HETATM   31  C   UNL     1     -11.912  12.858  66.928  1.00  0.00    -0.335 C  
ENDBRANCH  21  30
ENDBRANCH   7  20
TORSDOF 4
ENDMDL
MODEL      176
REMARK 921   NORMALIZED FREE ENERGY PREDICTED BY IDOCK:   -1.93 KCAL/MOL
REMARK 922        TOTAL FREE ENERGY PREDICTED BY IDOCK:   -3.13 KCAL/MOL
REMARK 923 INTER-LIGAND FREE ENERGY PREDICTED BY IDOCK:   -2.90 KCAL/MOL
REMARK 924 INTRA-LIGAND FREE ENERGY PREDICTED BY IDOCK:   -0.23 KCAL/MOL
REMARK 927      BINDING AFFINITY PREDICTED BY RF-SCORE:    0.00 PKD
ROOT
HETATM    1  C   UNL     1      -7.297   9.719  63.651  1.00  0.00    -0.121 C  
HETATM    2  C   UNL     1      -7.005  10.731  62.577  1.00  0.00    -0.020 C  
HETATM    3  O   UNL     1      -8.275  11.376  62.358  1.00  0.00    -0.193 OA 
HETATM    4  C   UNL     1      -9.294  10.564  62.792  1.00  0.00    -0.320 C  
HETATM    5  C   UNL     1      -8.705   9.291  63.318  1.00  0.00    -0.190 C  
HETATM    6  O   UNL     1     -10.481  10.812  62.657  1.00  0.00     0.145 OA 
HETATM    7  C   UNL     1      -9.343   8.604  64.526  1.00  0.00     0.733 C  
HETATM    8  C   UNL     1      -7.240   3.964  67.514  1.00  0.00    -0.067 C  
HETATM    9  C   UNL     1      -8.438   7.441  64.959  1.00  0.00     0.007 A  
HETATM   10  O   UNL     1      -8.529   4.525  67.194  1.00  0.00    -0.105 OA 
HETATM   11  C   UNL     1      -8.997   6.453  65.789  1.00  0.00    -0.068 A  
HETATM   12  C   UNL     1      -8.166   5.494  66.315  1.00  0.00    -0.111 A  
HETATM   13  C   UNL     1      -7.033   7.421  64.646  1.00  0.00    -0.051 A  
HETATM   14  C   UNL     1      -6.829   5.460  66.011  1.00  0.00    -0.058 A  
HETATM   15  C   UNL     1      -6.396   8.500  63.763  1.00  0.00    -0.073 C  
HETATM   16  H   UNL     1      -4.599   8.193  64.378  1.00  0.00     0.000 HD 
HETATM   17  O   UNL     1      -6.181   4.456  66.663  1.00  0.00    -0.030 OA 
HETATM   18  C   UNL     1      -6.240   6.380  65.164  1.00  0.00    -0.031 A  
HETATM   19  O   UNL     1      -5.163   8.956  64.308  1.00  0.00    -0.053 OA 
ENDROOT
BRANCH   7  20
HETATM   20  C   UNL     1      -9.636   9.555  65.687  1.00  0.00    -0.346 A  
HETATM   21  C   UNL     1      -9.010  10.596  67.820  1.00  0.00    -0.140 A  
HETATM   22  C   UNL     1      -8.816   9.633  66.823  1.00  0.00    -0.148 A  
HETATM   23  C   UNL     1     -10.947  11.397  66.577  1.00  0.00    -0.272 A  
HETATM   24  C   UNL     1     -10.720  10.428  65.595  1.00  0.00     0.005 A  
HETATM   25  C   UNL     1     -10.096  11.485  67.704  1.00  0.00    -0.184 A  
BRANCH  23  26
HETATM   26  O   UNL     1     -12.007  12.275  66.514  1.00  0.00    -0.596 OA 
HETATM   27  C   UNL     1     -12.259  12.865  65.241  1.00  0.00    -0.476 C  
ENDBRANCH  23  26
BRANCH  25  28
HETATM   28  O   UNL     1     -10.380  12.526  68.558  1.00  0.00    -0.232 OA 
HETATM   29  C   UNL     1     -10.970  12.217  69.813  1.00  0.00     0.281 C  
ENDBRANCH  25  28
BRANCH  21  30
HETATM   30  O   UNL     1      -8.148  10.728  68.879  1.00  0.00    -0.129 OA 
HETATM   31  C   UNL     1      -6.747  10.715  68.620  1.00  0.00    -0.057 C  
ENDBRANCH  21  30
ENDBRANCH   7  20
TORSDOF 4
ENDMDL
MODEL      177
REMARK 921   NORMALIZED FREE ENERGY PREDICTED BY IDOCK:   -1.92 KCAL/MOL
REMARK 922        TOTAL FREE ENERGY PREDICTED BY IDOCK:   -3.13 KCAL/MOL
REMARK 923 INTER-LIGAND FREE ENERGY PREDICTED BY IDOCK:   -3.01 KCAL/MOL
REMARK 924 INTRA-LIGAND FREE ENERGY PREDICTED BY IDOCK:   -0.11 KCAL/MOL
REMARK 927      BINDING AFFINITY PREDICTED BY RF-SCORE:    0.00 PKD
ROOT
HETATM    1  C   UNL     1      -9.766   8.111  70.952  1.00  0.00    -0.191 C  
HETATM    2  C   UNL     1     -10.069   7.781  72.388  1.00  0.00    -0.226 C  
HETATM    3  O   UNL     1     -10.458   6.395  72.348  1.00  0.00    -0.192 OA 
HETATM    4  C   UNL     1     -10.869   6.060  71.081  1.00  0.00    -0.277 C  
HETATM    5  C   UNL     1     -10.777   7.274  70.208  1.00  0.00    -0.252 C  
HETATM    6  O   UNL     1     -11.334   4.976  70.769  1.00  0.00     0.538 OA 
HETATM    7  C   UNL     1     -10.358   7.124  68.745  1.00  0.00    -0.200 C  
HETATM    8  C   UNL     1      -9.179  11.458  64.910  1.00  0.00    -0.058 C  
HETATM    9  C   UNL     1     -10.169   8.526  68.146  1.00  0.00    -0.254 A  
HETATM   10  O   UNL     1      -9.695  10.112  64.866  1.00  0.00    -0.287 OA 
HETATM   11  C   UNL     1     -10.158   8.642  66.745  1.00  0.00    -0.366 A  
HETATM   12  C   UNL     1      -9.831   9.856  66.192  1.00  0.00    -0.260 A  
HETATM   13  C   UNL     1      -9.878   9.667  68.975  1.00  0.00    -0.183 A  
HETATM   14  C   UNL     1      -9.567  10.951  66.974  1.00  0.00    -0.173 A  
HETATM   15  C   UNL     1      -9.862   9.561  70.504  1.00  0.00    -0.269 C  
HETATM   16  H   UNL     1      -8.796  11.138  70.779  1.00  0.00     0.000 HD 
HETATM   17  O   UNL     1      -9.231  12.042  66.231  1.00  0.00    -0.225 OA 
HETATM   18  C   UNL     1      -9.611  10.902  68.354  1.00  0.00    -0.177 A  
HETATM   19  O   UNL     1      -8.737  10.232  71.059  1.00  0.00     0.799 OA 
ENDROOT
BRANCH   7  20
HETATM   20  C   UNL     1      -9.117   6.253  68.549  1.00  0.00    -0.125 A  
HETATM   21  C   UNL     1      -6.700   6.009  68.188  1.00  0.00    -0.064 A  
HETATM   22  C   UNL     1      -7.860   6.792  68.233  1.00  0.00    -0.110 A  
HETATM   23  C   UNL     1      -8.074   4.064  68.708  1.00  0.00    -0.071 A  
HETATM   24  C   UNL     1      -9.211   4.877  68.754  1.00  0.00    -0.162 A  
HETATM   25  C   UNL     1      -6.808   4.623  68.417  1.00  0.00    -0.051 A  
BRANCH  23  26
HETATM   26  O   UNL     1      -8.135   2.702  68.907  1.00  0.00    -0.052 OA 
HETATM   27  C   UNL     1      -9.413   2.175  69.254  1.00  0.00    -0.058 C  
ENDBRANCH  23  26
BRANCH  25  28
HETATM   28  O   UNL     1      -5.759   3.734  68.475  1.00  0.00    -0.020 OA 
HETATM   29  C   UNL     1      -5.228   3.248  67.251  1.00  0.00    -0.008 C  
ENDBRANCH  25  28
BRANCH  21  30
HETATM   30  O   UNL     1      -5.462   6.558  67.973  1.00  0.00    -0.007 OA 
HETATM   31  C   UNL     1      -5.346   7.624  67.035  1.00  0.00    -0.030 C  
ENDBRANCH  21  30
ENDBRANCH   7  20
TORSDOF 4
ENDMDL
MODEL      178
REMARK 921   NORMALIZED FREE ENERGY PREDICTED BY IDOCK:   -1.90 KCAL/MOL
REMARK 922        TOTAL FREE ENERGY PREDICTED BY IDOCK:   -3.09 KCAL/MOL
REMARK 923 INTER-LIGAND FREE ENERGY PREDICTED BY IDOCK:   -3.59 KCAL/MOL
REMARK 924 INTRA-LIGAND FREE ENERGY PREDICTED BY IDOCK:    0.50 KCAL/MOL
REMARK 927      BINDING AFFINITY PREDICTED BY RF-SCORE:    0.00 PKD
ROOT
HETATM    1  C   UNL     1     -10.927  10.411  68.779  1.00  0.00    -0.287 C  
HETATM    2  C   UNL     1     -11.841   9.217  68.833  1.00  0.00     1.220 C  
HETATM    3  O   UNL     1     -11.097   8.184  68.158  1.00  0.00     0.129 OA 
HETATM    4  C   UNL     1     -10.147   8.748  67.342  1.00  0.00    -0.226 C  
HETATM    5  C   UNL     1     -10.250  10.240  67.442  1.00  0.00    -0.265 C  
HETATM    6  O   UNL     1      -9.426   8.120  66.584  1.00  0.00    -0.182 OA 
HETATM    7  C   UNL     1      -8.981  11.091  67.385  1.00  0.00    -0.141 C  
HETATM    8  C   UNL     1      -8.538  16.902  68.336  1.00  0.00    -0.240 C  
HETATM    9  C   UNL     1      -9.357  12.547  67.695  1.00  0.00    -0.189 A  
HETATM   10  O   UNL     1      -7.861  15.901  67.550  1.00  0.00    -0.133 OA 
HETATM   11  C   UNL     1      -8.440  13.550  67.333  1.00  0.00    -0.203 A  
HETATM   12  C   UNL     1      -8.684  14.838  67.744  1.00  0.00    -0.172 A  
HETATM   13  C   UNL     1     -10.538  12.877  68.450  1.00  0.00    -0.267 A  
HETATM   14  C   UNL     1      -9.813  15.163  68.450  1.00  0.00    -0.223 A  
HETATM   15  C   UNL     1     -11.541  11.799  68.876  1.00  0.00    -0.309 C  
HETATM   16  H   UNL     1     -12.326  12.838  70.291  1.00  0.00     0.000 HD 
HETATM   17  O   UNL     1      -9.844  16.481  68.789  1.00  0.00    -0.233 OA 
HETATM   18  C   UNL     1     -10.768  14.223  68.790  1.00  0.00    -0.262 A  
HETATM   19  O   UNL     1     -11.943  11.971  70.230  1.00  0.00    -0.344 OA 
ENDROOT
BRANCH   7  20
HETATM   20  C   UNL     1      -7.864  10.587  68.300  1.00  0.00    -0.111 A  
HETATM   21  C   UNL     1      -6.288  10.929  70.152  1.00  0.00    -0.149 A  
HETATM   22  C   UNL     1      -7.213  11.421  69.224  1.00  0.00    -0.075 A  
HETATM   23  C   UNL     1      -6.590   8.714  69.180  1.00  0.00    -0.047 A  
HETATM   24  C   UNL     1      -7.516   9.238  68.272  1.00  0.00    -0.079 A  
HETATM   25  C   UNL     1      -5.961   9.559  70.125  1.00  0.00    -0.047 A  
BRANCH  23  26
HETATM   26  O   UNL     1      -6.227   7.386  69.178  1.00  0.00    -0.030 OA 
HETATM   27  C   UNL     1      -7.283   6.446  68.992  1.00  0.00    -0.084 C  
ENDBRANCH  23  26
BRANCH  25  28
HETATM   28  O   UNL     1      -5.129   8.913  71.009  1.00  0.00    -0.027 OA 
HETATM   29  C   UNL     1      -5.667   8.515  72.263  1.00  0.00    -0.054 C  
ENDBRANCH  25  28
BRANCH  21  30
HETATM   30  O   UNL     1      -5.727  11.732  71.113  1.00  0.00    -0.374 OA 
HETATM   31  C   UNL     1      -5.558  13.117  70.826  1.00  0.00    -0.187 C  
ENDBRANCH  21  30
ENDBRANCH   7  20
TORSDOF 4
ENDMDL
MODEL      179
REMARK 921   NORMALIZED FREE ENERGY PREDICTED BY IDOCK:   -1.88 KCAL/MOL
REMARK 922        TOTAL FREE ENERGY PREDICTED BY IDOCK:   -3.07 KCAL/MOL
REMARK 923 INTER-LIGAND FREE ENERGY PREDICTED BY IDOCK:   -4.43 KCAL/MOL
REMARK 924 INTRA-LIGAND FREE ENERGY PREDICTED BY IDOCK:    1.35 KCAL/MOL
REMARK 927      BINDING AFFINITY PREDICTED BY RF-SCORE:    0.00 PKD
ROOT
HETATM    1  C   UNL     1      -5.996   9.712  69.308  1.00  0.00    -0.034 C  
HETATM    2  C   UNL     1      -5.166   9.999  70.529  1.00  0.00    -0.047 C  
HETATM    3  O   UNL     1      -5.667  11.267  70.996  1.00  0.00    -0.316 OA 
HETATM    4  C   UNL     1      -6.295  11.929  69.969  1.00  0.00    -0.072 C  
HETATM    5  C   UNL     1      -6.209  11.090  68.731  1.00  0.00    -0.044 C  
HETATM    6  O   UNL     1      -6.743  13.061  70.049  1.00  0.00     0.104 OA 
HETATM    7  C   UNL     1      -7.380  11.070  67.747  1.00  0.00    -0.093 C  
HETATM    8  C   UNL     1      -8.021   7.569  63.035  1.00  0.00    -0.111 C  
HETATM    9  C   UNL     1      -7.103  10.000  66.681  1.00  0.00    -0.091 A  
HETATM   10  O   UNL     1      -8.423   8.895  63.435  1.00  0.00    -0.190 OA 
HETATM   11  C   UNL     1      -7.840  10.062  65.486  1.00  0.00    -0.134 A  
HETATM   12  C   UNL     1      -7.723   9.027  64.591  1.00  0.00    -0.115 A  
HETATM   13  C   UNL     1      -6.223   8.889  66.939  1.00  0.00    -0.059 A  
HETATM   14  C   UNL     1      -6.876   7.973  64.821  1.00  0.00    -0.062 A  
HETATM   15  C   UNL     1      -5.427   8.787  68.245  1.00  0.00    -0.038 C  
HETATM   16  H   UNL     1      -5.123   6.891  68.118  1.00  0.00     0.000 HD 
HETATM   17  O   UNL     1      -6.937   7.041  63.831  1.00  0.00    -0.052 OA 
HETATM   18  C   UNL     1      -6.095   7.887  65.958  1.00  0.00    -0.038 A  
HETATM   19  O   UNL     1      -5.479   7.470  68.783  1.00  0.00    -0.021 OA 
ENDROOT
BRANCH   7  20
HETATM   20  C   UNL     1      -8.739  10.864  68.417  1.00  0.00    -0.147 A  
HETATM   21  C   UNL     1     -10.215   9.630  69.943  1.00  0.00    -0.245 A  
HETATM   22  C   UNL     1      -9.020   9.750  69.224  1.00  0.00    -0.177 A  
HETATM   23  C   UNL     1     -10.930  11.752  68.979  1.00  0.00    -0.227 A  
HETATM   24  C   UNL     1      -9.721  11.844  68.281  1.00  0.00    -0.200 A  
HETATM   25  C   UNL     1     -11.190  10.639  69.812  1.00  0.00    -0.297 A  
BRANCH  23  26
HETATM   26  O   UNL     1     -11.918  12.705  68.868  1.00  0.00    -0.302 OA 
HETATM   27  C   UNL     1     -11.574  13.885  68.146  1.00  0.00    -0.335 C  
ENDBRANCH  23  26
BRANCH  25  28
HETATM   28  O   UNL     1     -12.379  10.703  70.502  1.00  0.00    -0.306 OA 
HETATM   29  C   UNL     1     -12.733   9.600  71.325  1.00  0.00    -0.352 C  
ENDBRANCH  25  28
BRANCH  21  30
HETATM   30  O   UNL     1     -10.443   8.587  70.804  1.00  0.00    -0.192 OA 
HETATM   31  C   UNL     1     -11.335   7.553  70.396  1.00  0.00    -0.233 C  
ENDBRANCH  21  30
ENDBRANCH   7  20
TORSDOF 4
ENDMDL
MODEL      180
REMARK 921   NORMALIZED FREE ENERGY PREDICTED BY IDOCK:   -1.75 KCAL/MOL
REMARK 922        TOTAL FREE ENERGY PREDICTED BY IDOCK:   -2.92 KCAL/MOL
REMARK 923 INTER-LIGAND FREE ENERGY PREDICTED BY IDOCK:   -3.20 KCAL/MOL
REMARK 924 INTRA-LIGAND FREE ENERGY PREDICTED BY IDOCK:    0.28 KCAL/MOL
REMARK 927      BINDING AFFINITY PREDICTED BY RF-SCORE:    0.00 PKD
ROOT
HETATM    1  C   UNL     1      -7.215   7.121  66.725  1.00  0.00    -0.083 C  
HETATM    2  C   UNL     1      -6.426   8.350  67.082  1.00  0.00    -0.058 C  
HETATM    3  O   UNL     1      -7.286   9.060  67.994  1.00  0.00    -0.078 OA 
HETATM    4  C   UNL     1      -8.588   8.658  67.819  1.00  0.00    -0.136 C  
HETATM    5  C   UNL     1      -8.633   7.637  66.723  1.00  0.00    -0.129 C  
HETATM    6  O   UNL     1      -9.546   9.147  68.394  1.00  0.00    -0.149 OA 
HETATM    7  C   UNL     1      -9.615   6.469  66.817  1.00  0.00    -0.198 C  
HETATM    8  C   UNL     1      -9.930   1.775  63.247  1.00  0.00    -0.116 C  
HETATM    9  C   UNL     1      -9.321   5.491  65.670  1.00  0.00    -0.064 A  
HETATM   10  O   UNL     1     -10.833   2.556  64.055  1.00  0.00     0.006 OA 
HETATM   11  C   UNL     1     -10.318   4.558  65.334  1.00  0.00    -0.224 A  
HETATM   12  C   UNL     1     -10.015   3.576  64.424  1.00  0.00    -0.185 A  
HETATM   13  C   UNL     1      -8.026   5.431  65.044  1.00  0.00    -0.110 A  
HETATM   14  C   UNL     1      -8.789   3.520  63.812  1.00  0.00    -0.094 A  
HETATM   15  C   UNL     1      -6.915   6.422  65.409  1.00  0.00    -0.052 C  
HETATM   16  H   UNL     1      -5.477   5.325  64.754  1.00  0.00     0.000 HD 
HETATM   17  O   UNL     1      -8.682   2.452  62.974  1.00  0.00    -0.084 OA 
HETATM   18  C   UNL     1      -7.791   4.440  64.072  1.00  0.00    -0.085 A  
HETATM   19  O   UNL     1      -5.665   5.762  65.576  1.00  0.00    -0.016 OA 
ENDROOT
BRANCH   7  20
HETATM   20  C   UNL     1      -9.605   5.767  68.176  1.00  0.00    -0.132 A  
HETATM   21  C   UNL     1     -10.204   5.687  70.556  1.00  0.00    -0.231 A  
HETATM   22  C   UNL     1     -10.090   6.377  69.343  1.00  0.00    -0.205 A  
HETATM   23  C   UNL     1      -9.250   3.732  69.456  1.00  0.00    -0.156 A  
HETATM   24  C   UNL     1      -9.158   4.449  68.258  1.00  0.00    -0.165 A  
HETATM   25  C   UNL     1      -9.768   4.349  70.619  1.00  0.00    -0.213 A  
BRANCH  23  26
HETATM   26  O   UNL     1      -8.820   2.429  69.569  1.00  0.00    -0.073 OA 
HETATM   27  C   UNL     1      -9.363   1.504  68.629  1.00  0.00    -0.171 C  
ENDBRANCH  23  26
BRANCH  25  28
HETATM   28  O   UNL     1      -9.877   3.519  71.711  1.00  0.00    -0.160 OA 
HETATM   29  C   UNL     1     -11.118   3.484  72.401  1.00  0.00     0.560 C  
ENDBRANCH  25  28
BRANCH  21  30
HETATM   30  O   UNL     1     -10.768   6.261  71.666  1.00  0.00    -0.224 OA 
HETATM   31  C   UNL     1      -9.933   7.017  72.539  1.00  0.00    -0.170 C  
ENDBRANCH  21  30
ENDBRANCH   7  20
TORSDOF 4
ENDMDL
MODEL      181
REMARK 921   NORMALIZED FREE ENERGY PREDICTED BY IDOCK:   -1.17 KCAL/MOL
REMARK 922        TOTAL FREE ENERGY PREDICTED BY IDOCK:   -2.20 KCAL/MOL
REMARK 923 INTER-LIGAND FREE ENERGY PREDICTED BY IDOCK:   -3.34 KCAL/MOL
REMARK 924 INTRA-LIGAND FREE ENERGY PREDICTED BY IDOCK:    1.14 KCAL/MOL
REMARK 927      BINDING AFFINITY PREDICTED BY RF-SCORE:    0.00 PKD
ROOT
HETATM    1  C   UNL     1      -8.928  15.859  69.648  1.00  0.00    -0.010 C  
HETATM    2  C   UNL     1      -9.402  15.275  70.951  1.00  0.00     1.908 C  
HETATM    3  O   UNL     1     -10.793  14.984  70.712  1.00  0.00    -0.202 OA 
HETATM    4  C   UNL     1     -11.257  15.744  69.666  1.00  0.00    -0.319 C  
HETATM    5  C   UNL     1     -10.143  16.615  69.171  1.00  0.00    -0.285 C  
HETATM    6  O   UNL     1     -12.419  15.770  69.294  1.00  0.00    -0.124 OA 
HETATM    7  C   UNL     1     -10.022  16.911  67.675  1.00  0.00    -0.271 C  
HETATM    8  C   UNL     1      -5.594  19.701  64.939  1.00  0.00    -0.190 C  
HETATM    9  C   UNL     1      -8.704  17.661  67.433  1.00  0.00    -0.235 A  
HETATM   10  O   UNL     1      -7.014  19.527  64.756  1.00  0.00    -0.323 OA 
HETATM   11  C   UNL     1      -8.563  18.358  66.220  1.00  0.00    -0.215 A  
HETATM   12  C   UNL     1      -7.337  18.899  65.916  1.00  0.00    -0.228 A  
HETATM   13  C   UNL     1      -7.595  17.552  68.345  1.00  0.00    -0.254 A  
HETATM   14  C   UNL     1      -6.280  18.812  66.784  1.00  0.00    -0.177 A  
HETATM   15  C   UNL     1      -7.717  16.778  69.662  1.00  0.00     0.453 C  
HETATM   16  H   UNL     1      -5.825  16.525  69.895  1.00  0.00     0.000 HD 
HETATM   17  O   UNL     1      -5.152  19.380  66.277  1.00  0.00    -0.157 OA 
HETATM   18  C   UNL     1      -6.381  18.179  68.009  1.00  0.00    -0.181 A  
HETATM   19  O   UNL     1      -6.582  15.950  69.886  1.00  0.00    -0.170 OA 
ENDROOT
BRANCH   7  20
HETATM   20  C   UNL     1     -10.136  15.667  66.793  1.00  0.00    -0.277 A  
HETATM   21  C   UNL     1     -11.131  14.463  64.899  1.00  0.00    -0.398 A  
HETATM   22  C   UNL     1     -11.113  15.540  65.793  1.00  0.00    -0.217 A  
HETATM   23  C   UNL     1      -9.195  13.549  66.064  1.00  0.00     0.109 A  
HETATM   24  C   UNL     1      -9.200  14.643  66.934  1.00  0.00    -0.267 A  
HETATM   25  C   UNL     1     -10.167  13.446  65.041  1.00  0.00    -0.307 A  
BRANCH  23  26
HETATM   26  O   UNL     1      -8.283  12.523  66.177  1.00  0.00     0.356 OA 
HETATM   27  C   UNL     1      -7.308  12.660  67.208  1.00  0.00    -0.104 C  
ENDBRANCH  23  26
BRANCH  25  28
HETATM   28  O   UNL     1     -10.009  12.364  64.205  1.00  0.00    -0.280 OA 
HETATM   29  C   UNL     1      -9.892  11.077  64.796  1.00  0.00    -0.276 C  
ENDBRANCH  25  28
BRANCH  21  30
HETATM   30  O   UNL     1     -12.030  14.393  63.865  1.00  0.00    -0.339 OA 
HETATM   31  C   UNL     1     -12.264  13.128  63.252  1.00  0.00    -0.360 C  
ENDBRANCH  21  30
ENDBRANCH   7  20
TORSDOF 4
ENDMDL
MODEL      182
REMARK 921   NORMALIZED FREE ENERGY PREDICTED BY IDOCK:   -0.93 KCAL/MOL
REMARK 922        TOTAL FREE ENERGY PREDICTED BY IDOCK:   -1.90 KCAL/MOL
REMARK 923 INTER-LIGAND FREE ENERGY PREDICTED BY IDOCK:   -3.14 KCAL/MOL
REMARK 924 INTRA-LIGAND FREE ENERGY PREDICTED BY IDOCK:    1.24 KCAL/MOL
REMARK 927      BINDING AFFINITY PREDICTED BY RF-SCORE:    0.00 PKD
ROOT
HETATM    1  C   UNL     1      -6.937   7.858  64.282  1.00  0.00    -0.068 C  
HETATM    2  C   UNL     1      -6.469   8.827  63.232  1.00  0.00    -0.090 C  
HETATM    3  O   UNL     1      -7.234  10.019  63.497  1.00  0.00    -0.131 OA 
HETATM    4  C   UNL     1      -8.366   9.700  64.208  1.00  0.00    -0.168 C  
HETATM    5  C   UNL     1      -8.394   8.218  64.429  1.00  0.00    -0.082 C  
HETATM    6  O   UNL     1      -9.244  10.494  64.502  1.00  0.00    -0.204 OA 
HETATM    7  C   UNL     1      -8.942   7.658  65.742  1.00  0.00    -0.095 C  
HETATM    8  C   UNL     1      -8.797   2.043  67.565  1.00  0.00    -0.132 C  
HETATM    9  C   UNL     1      -8.683   6.145  65.773  1.00  0.00    -0.151 A  
HETATM   10  O   UNL     1      -9.649   3.194  67.738  1.00  0.00    -0.198 OA 
HETATM   11  C   UNL     1      -9.422   5.374  66.688  1.00  0.00    -0.151 A  
HETATM   12  C   UNL     1      -9.092   4.050  66.843  1.00  0.00    -0.145 A  
HETATM   13  C   UNL     1      -7.629   5.545  64.997  1.00  0.00    -0.081 A  
HETATM   14  C   UNL     1      -8.100   3.467  66.098  1.00  0.00    -0.093 A  
HETATM   15  C   UNL     1      -6.794   6.369  64.010  1.00  0.00    -0.041 C  
HETATM   16  H   UNL     1      -5.319   5.136  63.954  1.00  0.00     0.000 HD 
HETATM   17  O   UNL     1      -7.909   2.161  66.431  1.00  0.00    -0.073 OA 
HETATM   18  C   UNL     1      -7.376   4.169  65.152  1.00  0.00    -0.072 A  
HETATM   19  O   UNL     1      -5.408   6.066  64.124  1.00  0.00    -0.016 OA 
ENDROOT
BRANCH   7  20
HETATM   20  C   UNL     1      -8.385   8.354  66.984  1.00  0.00    -0.114 A  
HETATM   21  C   UNL     1      -7.185  10.215  68.046  1.00  0.00    -0.085 A  
HETATM   22  C   UNL     1      -7.581   9.503  66.908  1.00  0.00    -0.095 A  
HETATM   23  C   UNL     1      -8.349   8.560  69.405  1.00  0.00    -0.119 A  
HETATM   24  C   UNL     1      -8.735   7.878  68.247  1.00  0.00    -0.130 A  
HETATM   25  C   UNL     1      -7.563   9.733  69.314  1.00  0.00    -0.097 A  
BRANCH  23  26
HETATM   26  O   UNL     1      -8.681   8.116  70.666  1.00  0.00    -0.129 OA 
HETATM   27  C   UNL     1      -9.416   6.896  70.729  1.00  0.00    -0.165 C  
ENDBRANCH  23  26
BRANCH  25  28
HETATM   28  O   UNL     1      -7.314  10.352  70.518  1.00  0.00    -0.240 OA 
HETATM   29  C   UNL     1      -6.440   9.704  71.432  1.00  0.00     0.115 C  
ENDBRANCH  25  28
BRANCH  21  30
HETATM   30  O   UNL     1      -6.480  11.388  67.959  1.00  0.00    -0.055 OA 
HETATM   31  C   UNL     1      -5.139  11.412  68.439  1.00  0.00    -0.039 C  
ENDBRANCH  21  30
ENDBRANCH   7  20
TORSDOF 4
ENDMDL
MODEL      183
REMARK 921   NORMALIZED FREE ENERGY PREDICTED BY IDOCK:   -0.76 KCAL/MOL
REMARK 922        TOTAL FREE ENERGY PREDICTED BY IDOCK:   -1.68 KCAL/MOL
REMARK 923 INTER-LIGAND FREE ENERGY PREDICTED BY IDOCK:   -1.75 KCAL/MOL
REMARK 924 INTRA-LIGAND FREE ENERGY PREDICTED BY IDOCK:    0.06 KCAL/MOL
REMARK 927      BINDING AFFINITY PREDICTED BY RF-SCORE:    0.00 PKD
ROOT
HETATM    1  C   UNL     1     -10.043   6.090  66.569  1.00  0.00    -0.191 C  
HETATM    2  C   UNL     1     -10.842   5.046  65.839  1.00  0.00    -0.063 C  
HETATM    3  O   UNL     1     -10.140   3.819  66.118  1.00  0.00    -0.065 OA 
HETATM    4  C   UNL     1      -8.843   4.092  66.477  1.00  0.00    -0.118 C  
HETATM    5  C   UNL     1      -8.632   5.575  66.427  1.00  0.00    -0.121 C  
HETATM    6  O   UNL     1      -7.991   3.245  66.687  1.00  0.00    -0.080 OA 
HETATM    7  C   UNL     1      -7.724   6.245  67.459  1.00  0.00    -0.101 C  
HETATM    8  C   UNL     1      -6.919  12.038  68.276  1.00  0.00    -0.075 C  
HETATM    9  C   UNL     1      -7.835   7.767  67.291  1.00  0.00    -0.117 A  
HETATM   10  O   UNL     1      -6.154  10.827  68.438  1.00  0.00    -0.046 OA 
HETATM   11  C   UNL     1      -6.826   8.563  67.860  1.00  0.00    -0.067 A  
HETATM   12  C   UNL     1      -6.990   9.927  67.860  1.00  0.00    -0.081 A  
HETATM   13  C   UNL     1      -8.995   8.377  66.693  1.00  0.00    -0.181 A  
HETATM   14  C   UNL     1      -8.084  10.516  67.280  1.00  0.00    -0.115 A  
HETATM   15  C   UNL     1     -10.120   7.530  66.087  1.00  0.00     0.326 C  
HETATM   16  H   UNL     1     -11.449   8.918  66.169  1.00  0.00     0.000 HD 
HETATM   17  O   UNL     1      -8.071  11.870  67.420  1.00  0.00    -0.147 OA 
HETATM   18  C   UNL     1      -9.081   9.781  66.666  1.00  0.00    -0.174 A  
HETATM   19  O   UNL     1     -11.401   8.018  66.470  1.00  0.00     1.128 OA 
ENDROOT
BRANCH   7  20
HETATM   20  C   UNL     1      -8.007   5.812  68.898  1.00  0.00    -0.098 A  
HETATM   21  C   UNL     1      -7.302   4.762  71.003  1.00  0.00    -0.060 A  
HETATM   22  C   UNL     1      -7.102   5.042  69.646  1.00  0.00    -0.055 A  
HETATM   23  C   UNL     1      -9.411   5.977  70.874  1.00  0.00    -0.168 A  
HETATM   24  C   UNL     1      -9.176   6.246  69.522  1.00  0.00    -0.142 A  
HETATM   25  C   UNL     1      -8.478   5.225  71.625  1.00  0.00    -0.126 A  
BRANCH  23  26
HETATM   26  O   UNL     1     -10.555   6.394  71.520  1.00  0.00    -0.221 OA 
HETATM   27  C   UNL     1     -11.394   7.290  70.795  1.00  0.00    -0.285 C  
ENDBRANCH  23  26
BRANCH  25  28
HETATM   28  O   UNL     1      -8.787   5.093  72.960  1.00  0.00    -0.120 OA 
HETATM   29  C   UNL     1     -10.056   4.552  73.300  1.00  0.00    -0.160 C  
ENDBRANCH  25  28
BRANCH  21  30
HETATM   30  O   UNL     1      -6.368   4.091  71.750  1.00  0.00    -0.014 OA 
HETATM   31  C   UNL     1      -5.513   4.846  72.605  1.00  0.00    -0.009 C  
ENDBRANCH  21  30
ENDBRANCH   7  20
TORSDOF 4
ENDMDL
MODEL      184
REMARK 921   NORMALIZED FREE ENERGY PREDICTED BY IDOCK:   -0.69 KCAL/MOL
REMARK 922        TOTAL FREE ENERGY PREDICTED BY IDOCK:   -1.61 KCAL/MOL
REMARK 923 INTER-LIGAND FREE ENERGY PREDICTED BY IDOCK:   -2.77 KCAL/MOL
REMARK 924 INTRA-LIGAND FREE ENERGY PREDICTED BY IDOCK:    1.17 KCAL/MOL
REMARK 927      BINDING AFFINITY PREDICTED BY RF-SCORE:    0.00 PKD
ROOT
HETATM    1  C   UNL     1      -9.532  10.739  67.066  1.00  0.00    -0.186 C  
HETATM    2  C   UNL     1      -8.831   9.956  65.990  1.00  0.00    -0.146 C  
HETATM    3  O   UNL     1      -8.976  10.778  64.816  1.00  0.00    -0.192 OA 
HETATM    4  C   UNL     1     -10.037  11.636  64.973  1.00  0.00    -0.263 C  
HETATM    5  C   UNL     1     -10.667  11.384  66.309  1.00  0.00    -0.322 C  
HETATM    6  O   UNL     1     -10.450  12.392  64.108  1.00  0.00    -0.335 OA 
HETATM    7  C   UNL     1     -11.232  12.556  67.113  1.00  0.00    -0.352 C  
HETATM    8  C   UNL     1     -13.266  12.429  72.656  1.00  0.00     0.535 C  
HETATM    9  C   UNL     1     -11.640  12.042  68.502  1.00  0.00    -0.363 A  
HETATM   10  O   UNL     1     -13.518  13.178  71.449  1.00  0.00    -0.213 OA 
HETATM   11  C   UNL     1     -12.517  12.838  69.260  1.00  0.00     0.275 A  
HETATM   12  C   UNL     1     -12.766  12.477  70.562  1.00  0.00     0.018 A  
HETATM   13  C   UNL     1     -11.049  10.860  69.072  1.00  0.00    -0.302 A  
HETATM   14  C   UNL     1     -12.218  11.345  71.109  1.00  0.00    -0.224 A  
HETATM   15  C   UNL     1     -10.072   9.990  68.273  1.00  0.00    -0.158 C  
HETATM   16  H   UNL     1      -9.283   9.150  69.813  1.00  0.00     0.000 HD 
HETATM   17  O   UNL     1     -12.561  11.190  72.417  1.00  0.00     0.287 OA 
HETATM   18  C   UNL     1     -11.388  10.505  70.391  1.00  0.00    -0.411 A  
HETATM   19  O   UNL     1      -8.945   9.618  69.058  1.00  0.00    -0.136 OA 
ENDROOT
BRANCH   7  20
HETATM   20  C   UNL     1     -10.282  13.749  67.207  1.00  0.00    -0.253 A  
HETATM   21  C   UNL     1      -9.785  16.130  66.870  1.00  0.00    -0.236 A  
HETATM   22  C   UNL     1     -10.594  15.006  66.666  1.00  0.00    -0.301 A  
HETATM   23  C   UNL     1      -8.250  14.715  68.128  1.00  0.00    -0.142 A  
HETATM   24  C   UNL     1      -9.086  13.614  67.912  1.00  0.00    -0.198 A  
HETATM   25  C   UNL     1      -8.590  15.983  67.601  1.00  0.00    -0.166 A  
BRANCH  23  26
HETATM   26  O   UNL     1      -7.065  14.614  68.821  1.00  0.00    -0.100 OA 
HETATM   27  C   UNL     1      -7.168  14.598  70.243  1.00  0.00     0.304 C  
ENDBRANCH  23  26
BRANCH  25  28
HETATM   28  O   UNL     1      -7.727  16.998  67.946  1.00  0.00    -0.169 OA 
HETATM   29  C   UNL     1      -7.758  18.190  67.173  1.00  0.00    -0.219 C  
ENDBRANCH  25  28
BRANCH  21  30
HETATM   30  O   UNL     1     -10.144  17.375  66.418  1.00  0.00    -0.302 OA 
HETATM   31  C   UNL     1      -9.558  17.855  65.211  1.00  0.00     1.497 C  
ENDBRANCH  21  30
ENDBRANCH   7  20
TORSDOF 4
ENDMDL
MODEL      185
REMARK 921   NORMALIZED FREE ENERGY PREDICTED BY IDOCK:   -0.19 KCAL/MOL
REMARK 922        TOTAL FREE ENERGY PREDICTED BY IDOCK:   -0.99 KCAL/MOL
REMARK 923 INTER-LIGAND FREE ENERGY PREDICTED BY IDOCK:   -3.30 KCAL/MOL
REMARK 924 INTRA-LIGAND FREE ENERGY PREDICTED BY IDOCK:    2.30 KCAL/MOL
REMARK 927      BINDING AFFINITY PREDICTED BY RF-SCORE:    0.00 PKD
ROOT
HETATM    1  C   UNL     1      -6.837  14.372  68.584  1.00  0.00    -0.096 C  
HETATM    2  C   UNL     1      -5.714  15.016  69.351  1.00  0.00    -0.101 C  
HETATM    3  O   UNL     1      -5.180  13.940  70.147  1.00  0.00    -0.090 OA 
HETATM    4  C   UNL     1      -6.122  12.951  70.289  1.00  0.00    -0.068 C  
HETATM    5  C   UNL     1      -7.371  13.368  69.575  1.00  0.00     0.400 C  
HETATM    6  O   UNL     1      -5.981  11.956  70.982  1.00  0.00    -0.354 OA 
HETATM    7  C   UNL     1      -8.217  12.319  68.852  1.00  0.00     0.189 C  
HETATM    8  C   UNL     1     -12.864  13.283  65.338  1.00  0.00    -0.275 C  
HETATM    9  C   UNL     1      -9.318  13.040  68.062  1.00  0.00    -0.213 A  
HETATM   10  O   UNL     1     -12.407  12.250  66.234  1.00  0.00    -0.556 OA 
HETATM   11  C   UNL     1     -10.423  12.280  67.638  1.00  0.00    -0.230 A  
HETATM   12  C   UNL     1     -11.336  12.867  66.797  1.00  0.00    -0.322 A  
HETATM   13  C   UNL     1      -9.174  14.411  67.647  1.00  0.00    -0.196 A  
HETATM   14  C   UNL     1     -11.214  14.176  66.408  1.00  0.00    -0.328 A  
HETATM   15  C   UNL     1      -7.967  15.253  68.076  1.00  0.00    -0.131 C  
HETATM   16  H   UNL     1      -8.147  16.551  66.668  1.00  0.00     0.000 HD 
HETATM   17  O   UNL     1     -12.201  14.550  65.548  1.00  0.00    -0.353 OA 
HETATM   18  C   UNL     1     -10.173  14.979  66.834  1.00  0.00    -0.258 A  
HETATM   19  O   UNL     1      -7.441  16.001  66.986  1.00  0.00    -0.195 OA 
ENDROOT
BRANCH   7  20
HETATM   20  C   UNL     1      -7.400  11.383  67.960  1.00  0.00    -0.090 A  
HETATM   21  C   UNL     1      -6.382   9.194  67.507  1.00  0.00    -0.063 A  
HETATM   22  C   UNL     1      -7.011  10.098  68.372  1.00  0.00    -0.066 A  
HETATM   23  C   UNL     1      -6.446  10.909  65.776  1.00  0.00    -0.022 A  
HETATM   24  C   UNL     1      -7.081  11.784  66.663  1.00  0.00     0.026 A  
HETATM   25  C   UNL     1      -6.084   9.607  66.193  1.00  0.00    -0.064 A  
BRANCH  23  26
HETATM   26  O   UNL     1      -6.119  11.275  64.489  1.00  0.00     0.510 OA 
HETATM   27  C   UNL     1      -5.915  10.209  63.565  1.00  0.00    -0.141 C  
ENDBRANCH  23  26
BRANCH  25  28
HETATM   28  O   UNL     1      -5.535   8.819  65.208  1.00  0.00    -0.038 OA 
HETATM   29  C   UNL     1      -5.588   7.409  65.374  1.00  0.00    -0.033 C  
ENDBRANCH  25  28
BRANCH  21  30
HETATM   30  O   UNL     1      -6.091   7.909  67.887  1.00  0.00    -0.043 OA 
HETATM   31  C   UNL     1      -7.165   6.984  68.032  1.00  0.00    -0.095 C  
ENDBRANCH  21  30
ENDBRANCH   7  20
TORSDOF 4
ENDMDL
MODEL      186
REMARK 921   NORMALIZED FREE ENERGY PREDICTED BY IDOCK:    0.62 KCAL/MOL
REMARK 922        TOTAL FREE ENERGY PREDICTED BY IDOCK:    0.01 KCAL/MOL
REMARK 923 INTER-LIGAND FREE ENERGY PREDICTED BY IDOCK:   -0.29 KCAL/MOL
REMARK 924 INTRA-LIGAND FREE ENERGY PREDICTED BY IDOCK:    0.30 KCAL/MOL
REMARK 927      BINDING AFFINITY PREDICTED BY RF-SCORE:    0.00 PKD
ROOT
HETATM    1  C   UNL     1      -7.070  10.951  66.052  1.00  0.00    -0.067 C  
HETATM    2  C   UNL     1      -6.907  12.440  66.185  1.00  0.00     1.837 C  
HETATM    3  O   UNL     1      -7.710  12.773  67.333  1.00  0.00    -0.160 OA 
HETATM    4  C   UNL     1      -8.646  11.792  67.550  1.00  0.00    -0.157 C  
HETATM    5  C   UNL     1      -8.497  10.741  66.493  1.00  0.00    -0.147 C  
HETATM    6  O   UNL     1      -9.518  11.845  68.402  1.00  0.00    -0.200 OA 
HETATM    7  C   UNL     1      -8.724   9.271  66.849  1.00  0.00    -0.136 C  
HETATM    8  C   UNL     1      -7.716   4.572  63.418  1.00  0.00    -0.071 C  
HETATM    9  C   UNL     1      -8.327   8.410  65.641  1.00  0.00    -0.160 A  
HETATM   10  O   UNL     1      -8.618   4.935  64.483  1.00  0.00    -0.138 OA 
HETATM   11  C   UNL     1      -8.800   7.087  65.599  1.00  0.00    -0.037 A  
HETATM   12  C   UNL     1      -8.327   6.255  64.613  1.00  0.00    -0.026 A  
HETATM   13  C   UNL     1      -7.396   8.884  64.651  1.00  0.00    -0.101 A  
HETATM   14  C   UNL     1      -7.452   6.702  63.658  1.00  0.00    -0.083 A  
HETATM   15  C   UNL     1      -6.849  10.316  64.688  1.00  0.00    -0.077 C  
HETATM   16  H   UNL     1      -5.308   9.944  63.598  1.00  0.00     0.000 HD 
HETATM   17  O   UNL     1      -7.081   5.713  62.798  1.00  0.00    -0.042 OA 
HETATM   18  C   UNL     1      -6.994   8.006  63.627  1.00  0.00    -0.076 A  
HETATM   19  O   UNL     1      -5.446  10.342  64.450  1.00  0.00    -0.102 OA 
ENDROOT
BRANCH   7  20
HETATM   20  C   UNL     1      -7.999   8.830  68.121  1.00  0.00    -0.106 A  
HETATM   21  C   UNL     1      -7.858   8.676  70.568  1.00  0.00    -0.096 A  
HETATM   22  C   UNL     1      -8.442   9.190  69.404  1.00  0.00    -0.130 A  
HETATM   23  C   UNL     1      -6.282   7.459  69.161  1.00  0.00    -0.031 A  
HETATM   24  C   UNL     1      -6.895   7.985  68.018  1.00  0.00    -0.072 A  
HETATM   25  C   UNL     1      -6.756   7.807  70.448  1.00  0.00    -0.038 A  
BRANCH  23  26
HETATM   26  O   UNL     1      -5.192   6.621  69.091  1.00  0.00    -0.012 OA 
HETATM   27  C   UNL     1      -5.432   5.320  68.562  1.00  0.00    -0.011 C  
ENDBRANCH  23  26
BRANCH  25  28
HETATM   28  O   UNL     1      -6.119   7.166  71.486  1.00  0.00    -0.037 OA 
HETATM   29  C   UNL     1      -5.957   7.874  72.707  1.00  0.00    -0.048 C  
ENDBRANCH  25  28
BRANCH  21  30
HETATM   30  O   UNL     1      -8.356   8.957  71.815  1.00  0.00    -0.321 OA 
HETATM   31  C   UNL     1      -9.722   9.347  71.928  1.00  0.00     0.549 C  
ENDBRANCH  21  30
ENDBRANCH   7  20
TORSDOF 4
ENDMDL
MODEL      187
REMARK 921   NORMALIZED FREE ENERGY PREDICTED BY IDOCK:    1.57 KCAL/MOL
REMARK 922        TOTAL FREE ENERGY PREDICTED BY IDOCK:    1.19 KCAL/MOL
REMARK 923 INTER-LIGAND FREE ENERGY PREDICTED BY IDOCK:    0.77 KCAL/MOL
REMARK 924 INTRA-LIGAND FREE ENERGY PREDICTED BY IDOCK:    0.42 KCAL/MOL
REMARK 927      BINDING AFFINITY PREDICTED BY RF-SCORE:    0.00 PKD
ROOT
HETATM    1  C   UNL     1      -8.690  11.842  69.232  1.00  0.00     0.667 C  
HETATM    2  C   UNL     1      -7.781  13.022  69.024  1.00  0.00     0.195 C  
HETATM    3  O   UNL     1      -6.540  12.429  68.595  1.00  0.00    -0.067 OA 
HETATM    4  C   UNL     1      -6.487  11.115  68.992  1.00  0.00    -0.066 C  
HETATM    5  C   UNL     1      -7.740  10.788  69.745  1.00  0.00     0.066 C  
HETATM    6  O   UNL     1      -5.520  10.386  68.842  1.00  0.00    -0.042 OA 
HETATM    7  C   UNL     1      -8.370   9.402  69.603  1.00  0.00    -0.147 C  
HETATM    8  C   UNL     1     -13.578   7.613  71.735  1.00  0.00    -0.324 C  
HETATM    9  C   UNL     1      -9.724   9.405  70.326  1.00  0.00    -0.292 A  
HETATM   10  O   UNL     1     -12.297   7.026  71.433  1.00  0.00    -0.339 OA 
HETATM   11  C   UNL     1     -10.296   8.162  70.649  1.00  0.00    -0.214 A  
HETATM   12  C   UNL     1     -11.575   8.140  71.150  1.00  0.00    -0.279 A  
HETATM   13  C   UNL     1     -10.457  10.625  70.550  1.00  0.00     0.488 A  
HETATM   14  C   UNL     1     -12.274   9.297  71.379  1.00  0.00    -0.349 A  
HETATM   15  C   UNL     1      -9.865  11.991  70.185  1.00  0.00     2.939 C  
HETATM   16  H   UNL     1     -11.556  12.904  70.120  1.00  0.00     0.000 HD 
HETATM   17  O   UNL     1     -13.531   9.054  71.841  1.00  0.00    -0.369 OA 
HETATM   18  C   UNL     1     -11.740  10.546  71.123  1.00  0.00    -0.323 A  
HETATM   19  O   UNL     1     -10.822  12.812  69.525  1.00  0.00     0.012 OA 
ENDROOT
BRANCH   7  20
HETATM   20  C   UNL     1      -8.504   8.936  68.153  1.00  0.00    -0.129 A  
HETATM   21  C   UNL     1      -8.950   9.396  65.782  1.00  0.00    -0.186 A  
HETATM   22  C   UNL     1      -8.956   9.782  67.128  1.00  0.00    -0.148 A  
HETATM   23  C   UNL     1      -8.091   7.224  66.479  1.00  0.00    -0.114 A  
HETATM   24  C   UNL     1      -8.103   7.645  67.812  1.00  0.00    -0.118 A  
HETATM   25  C   UNL     1      -8.522   8.095  65.451  1.00  0.00    -0.147 A  
BRANCH  23  26
HETATM   26  O   UNL     1      -7.699   5.956  66.110  1.00  0.00    -0.098 OA 
HETATM   27  C   UNL     1      -6.316   5.653  66.276  1.00  0.00    -0.039 C  
ENDBRANCH  23  26
BRANCH  25  28
HETATM   28  O   UNL     1      -8.392   7.591  64.177  1.00  0.00    -0.031 OA 
HETATM   29  C   UNL     1      -8.572   8.482  63.086  1.00  0.00     0.027 C  
ENDBRANCH  25  28
BRANCH  21  30
HETATM   30  O   UNL     1      -9.303  10.261  64.778  1.00  0.00    -0.213 OA 
HETATM   31  C   UNL     1      -8.844  11.608  64.849  1.00  0.00     0.405 C  
ENDBRANCH  21  30
ENDBRANCH   7  20
TORSDOF 4
ENDMDL
MODEL      188
REMARK 921   NORMALIZED FREE ENERGY PREDICTED BY IDOCK:    1.72 KCAL/MOL
REMARK 922        TOTAL FREE ENERGY PREDICTED BY IDOCK:    1.37 KCAL/MOL
REMARK 923 INTER-LIGAND FREE ENERGY PREDICTED BY IDOCK:   -0.06 KCAL/MOL
REMARK 924 INTRA-LIGAND FREE ENERGY PREDICTED BY IDOCK:    1.43 KCAL/MOL
REMARK 927      BINDING AFFINITY PREDICTED BY RF-SCORE:    0.00 PKD
ROOT
HETATM    1  C   UNL     1      -7.063  11.010  66.027  1.00  0.00    -0.010 C  
HETATM    2  C   UNL     1      -6.771  12.485  66.030  1.00  0.00     2.684 C  
HETATM    3  O   UNL     1      -7.424  12.962  67.223  1.00  0.00    -0.147 OA 
HETATM    4  C   UNL     1      -8.407  12.081  67.603  1.00  0.00    -0.160 C  
HETATM    5  C   UNL     1      -8.449  10.952  66.619  1.00  0.00    -0.151 C  
HETATM    6  O   UNL     1      -9.180  12.265  68.529  1.00  0.00    -0.175 OA 
HETATM    7  C   UNL     1      -8.752   9.534  67.106  1.00  0.00    -0.137 C  
HETATM    8  C   UNL     1      -8.471   4.545  63.959  1.00  0.00    -0.121 C  
HETATM    9  C   UNL     1      -8.550   8.563  65.934  1.00  0.00    -0.183 A  
HETATM   10  O   UNL     1      -9.228   5.055  65.075  1.00  0.00    -0.146 OA 
HETATM   11  C   UNL     1      -9.126   7.285  66.038  1.00  0.00    -0.117 A  
HETATM   12  C   UNL     1      -8.823   6.351  65.077  1.00  0.00     0.237 A  
HETATM   13  C   UNL     1      -7.692   8.888  64.824  1.00  0.00    -0.111 A  
HETATM   14  C   UNL     1      -8.019   6.657  64.010  1.00  0.00    -0.084 A  
HETATM   15  C   UNL     1      -7.034  10.267  64.700  1.00  0.00    -0.079 C  
HETATM   16  H   UNL     1      -5.647   9.694  63.497  1.00  0.00     0.000 HD 
HETATM   17  O   UNL     1      -7.817   5.584  63.196  1.00  0.00    -0.077 OA 
HETATM   18  C   UNL     1      -7.466   7.912  63.836  1.00  0.00    -0.110 A  
HETATM   19  O   UNL     1      -5.665  10.158  64.326  1.00  0.00    -0.108 OA 
ENDROOT
BRANCH   7  20
HETATM   20  C   UNL     1      -7.937   9.120  68.331  1.00  0.00    -0.103 A  
HETATM   21  C   UNL     1      -6.618   7.462  69.572  1.00  0.00    -0.037 A  
HETATM   22  C   UNL     1      -7.476   7.808  68.522  1.00  0.00    -0.103 A  
HETATM   23  C   UNL     1      -6.727   9.774  70.335  1.00  0.00    -0.123 A  
HETATM   24  C   UNL     1      -7.576  10.087  69.268  1.00  0.00    -0.109 A  
HETATM   25  C   UNL     1      -6.245   8.454  70.500  1.00  0.00    -0.035 A  
BRANCH  23  26
HETATM   26  O   UNL     1      -6.351  10.708  71.275  1.00  0.00    -0.300 OA 
HETATM   27  C   UNL     1      -5.478  11.740  70.822  1.00  0.00    -0.138 C  
ENDBRANCH  23  26
BRANCH  25  28
HETATM   28  O   UNL     1      -5.360   8.291  71.541  1.00  0.00    -0.033 OA 
HETATM   29  C   UNL     1      -5.364   7.050  72.231  1.00  0.00    -0.037 C  
ENDBRANCH  25  28
BRANCH  21  30
HETATM   30  O   UNL     1      -6.096   6.199  69.697  1.00  0.00    -0.024 OA 
HETATM   31  C   UNL     1      -6.040   5.371  68.539  1.00  0.00    -0.026 C  
ENDBRANCH  21  30
ENDBRANCH   7  20
TORSDOF 4
ENDMDL
MODEL      189
REMARK 921   NORMALIZED FREE ENERGY PREDICTED BY IDOCK:    1.97 KCAL/MOL
REMARK 922        TOTAL FREE ENERGY PREDICTED BY IDOCK:    1.68 KCAL/MOL
REMARK 923 INTER-LIGAND FREE ENERGY PREDICTED BY IDOCK:    0.87 KCAL/MOL
REMARK 924 INTRA-LIGAND FREE ENERGY PREDICTED BY IDOCK:    0.82 KCAL/MOL
REMARK 927      BINDING AFFINITY PREDICTED BY RF-SCORE:    0.00 PKD
ROOT
HETATM    1  C   UNL     1     -10.879  12.632  64.812  1.00  0.00    -0.332 C  
HETATM    2  C   UNL     1     -11.602  11.907  63.711  1.00  0.00    -0.462 C  
HETATM    3  O   UNL     1     -10.548  11.243  62.986  1.00  0.00    -0.242 OA 
HETATM    4  C   UNL     1      -9.349  11.868  63.226  1.00  0.00     0.073 C  
HETATM    5  C   UNL     1      -9.586  13.029  64.144  1.00  0.00     0.679 C  
HETATM    6  O   UNL     1      -8.297  11.577  62.681  1.00  0.00    -0.090 OA 
HETATM    7  C   UNL     1      -8.538  13.385  65.199  1.00  0.00     2.901 C  
HETATM    8  C   UNL     1      -9.045  17.372  69.526  1.00  0.00     0.567 C  
HETATM    9  C   UNL     1      -9.115  14.480  66.108  1.00  0.00    -0.083 A  
HETATM   10  O   UNL     1      -7.991  16.812  68.717  1.00  0.00    -0.231 OA 
HETATM   11  C   UNL     1      -8.213  15.219  66.894  1.00  0.00    -0.263 A  
HETATM   12  C   UNL     1      -8.720  16.089  67.828  1.00  0.00    -0.167 A  
HETATM   13  C   UNL     1     -10.535  14.663  66.261  1.00  0.00    -0.302 A  
HETATM   14  C   UNL     1     -10.070  16.280  67.970  1.00  0.00    -0.245 A  
HETATM   15  C   UNL     1     -11.539  13.853  65.432  1.00  0.00    -0.325 C  
HETATM   16  H   UNL     1     -13.020  14.135  66.626  1.00  0.00     0.000 HD 
HETATM   17  O   UNL     1     -10.362  17.155  68.972  1.00  0.00    -0.314 OA 
HETATM   18  C   UNL     1     -10.997  15.614  67.190  1.00  0.00    -0.270 A  
HETATM   19  O   UNL     1     -12.608  13.372  66.238  1.00  0.00    -0.333 OA 
ENDROOT
BRANCH   7  20
HETATM   20  C   UNL     1      -8.047  12.182  66.005  1.00  0.00     0.634 A  
HETATM   21  C   UNL     1      -6.741  11.222  67.850  1.00  0.00    -0.063 A  
HETATM   22  C   UNL     1      -7.089  12.298  67.025  1.00  0.00    -0.040 A  
HETATM   23  C   UNL     1      -8.280   9.830  66.571  1.00  0.00    -0.120 A  
HETATM   24  C   UNL     1      -8.611  10.928  65.771  1.00  0.00    -0.176 A  
HETATM   25  C   UNL     1      -7.335   9.966  67.614  1.00  0.00    -0.090 A  
BRANCH  23  26
HETATM   26  O   UNL     1      -8.821   8.580  66.365  1.00  0.00    -0.133 OA 
HETATM   27  C   UNL     1      -9.168   8.259  65.020  1.00  0.00     0.479 C  
ENDBRANCH  23  26
BRANCH  25  28
HETATM   28  O   UNL     1      -7.152   8.834  68.375  1.00  0.00    -0.074 OA 
HETATM   29  C   UNL     1      -7.991   8.648  69.507  1.00  0.00    -0.097 C  
ENDBRANCH  25  28
BRANCH  21  30
HETATM   30  O   UNL     1      -5.877  11.366  68.905  1.00  0.00    -0.046 OA 
HETATM   31  C   UNL     1      -6.420  11.613  70.199  1.00  0.00     0.032 C  
ENDBRANCH  21  30
ENDBRANCH   7  20
TORSDOF 4
ENDMDL
MODEL      190
REMARK 921   NORMALIZED FREE ENERGY PREDICTED BY IDOCK:    4.74 KCAL/MOL
REMARK 922        TOTAL FREE ENERGY PREDICTED BY IDOCK:    5.09 KCAL/MOL
REMARK 923 INTER-LIGAND FREE ENERGY PREDICTED BY IDOCK:    3.12 KCAL/MOL
REMARK 924 INTRA-LIGAND FREE ENERGY PREDICTED BY IDOCK:    1.97 KCAL/MOL
REMARK 927      BINDING AFFINITY PREDICTED BY RF-SCORE:    0.00 PKD
ROOT
HETATM    1  C   UNL     1     -11.411  14.099  71.838  1.00  0.00     1.082 C  
HETATM    2  C   UNL     1     -11.927  13.730  73.202  1.00  0.00     1.571 C  
HETATM    3  O   UNL     1     -12.932  12.733  72.932  1.00  0.00     0.028 OA 
HETATM    4  C   UNL     1     -13.370  12.850  71.635  1.00  0.00    -0.269 C  
HETATM    5  C   UNL     1     -12.650  13.991  70.983  1.00  0.00    -0.437 C  
HETATM    6  O   UNL     1     -14.279  12.195  71.151  1.00  0.00     2.012 OA 
HETATM    7  C   UNL     1     -12.261  13.897  69.508  1.00  0.00    -0.356 C  
HETATM    8  C   UNL     1      -8.897  17.671  66.457  1.00  0.00    -0.263 C  
HETATM    9  C   UNL     1     -11.383  15.107  69.157  1.00  0.00    -0.311 A  
HETATM   10  O   UNL     1      -9.992  16.772  66.191  1.00  0.00    -0.304 OA 
HETATM   11  C   UNL     1     -11.226  15.428  67.797  1.00  0.00    -0.321 A  
HETATM   12  C   UNL     1     -10.321  16.403  67.456  1.00  0.00    -0.288 A  
HETATM   13  C   UNL     1     -10.633  15.811  70.164  1.00  0.00    -0.334 A  
HETATM   14  C   UNL     1      -9.613  17.089  68.409  1.00  0.00    -0.277 A  
HETATM   15  C   UNL     1     -10.769  15.464  71.651  1.00  0.00     0.359 C  
HETATM   16  H   UNL     1      -9.096  16.258  72.171  1.00  0.00     0.000 HD 
HETATM   17  O   UNL     1      -8.747  17.984  67.860  1.00  0.00    -0.248 OA 
HETATM   18  C   UNL     1      -9.765  16.844  69.761  1.00  0.00     0.429 A  
HETATM   19  O   UNL     1      -9.498  15.405  72.289  1.00  0.00     3.914 OA 
ENDROOT
BRANCH   7  20
HETATM   20  C   UNL     1     -11.582  12.578  69.136  1.00  0.00    -0.375 A  
HETATM   21  C   UNL     1     -10.991  10.249  69.646  1.00  0.00    -0.270 A  
HETATM   22  C   UNL     1     -11.490  11.499  70.030  1.00  0.00    -0.304 A  
HETATM   23  C   UNL     1     -10.577  11.172  67.428  1.00  0.00    -0.234 A  
HETATM   24  C   UNL     1     -11.090  12.405  67.843  1.00  0.00    -0.283 A  
HETATM   25  C   UNL     1     -10.516  10.084  68.330  1.00  0.00    -0.213 A  
BRANCH  23  26
HETATM   26  O   UNL     1     -10.085  10.970  66.157  1.00  0.00    -0.221 OA 
HETATM   27  C   UNL     1      -9.910  12.138  65.358  1.00  0.00    -0.211 C  
ENDBRANCH  23  26
BRANCH  25  28
HETATM   28  O   UNL     1     -10.062   8.907  67.780  1.00  0.00    -0.185 OA 
HETATM   29  C   UNL     1      -8.943   8.967  66.907  1.00  0.00    -0.128 C  
ENDBRANCH  25  28
BRANCH  21  30
HETATM   30  O   UNL     1     -10.993   9.174  70.497  1.00  0.00    -0.234 OA 
HETATM   31  C   UNL     1      -9.741   8.641  70.921  1.00  0.00    -0.204 C  
ENDBRANCH  21  30
ENDBRANCH   7  20
TORSDOF 4
ENDMDL
MODEL      191
REMARK 921   NORMALIZED FREE ENERGY PREDICTED BY IDOCK:    6.69 KCAL/MOL
REMARK 922        TOTAL FREE ENERGY PREDICTED BY IDOCK:    7.50 KCAL/MOL
REMARK 923 INTER-LIGAND FREE ENERGY PREDICTED BY IDOCK:    6.11 KCAL/MOL
REMARK 924 INTRA-LIGAND FREE ENERGY PREDICTED BY IDOCK:    1.39 KCAL/MOL
REMARK 927      BINDING AFFINITY PREDICTED BY RF-SCORE:    0.00 PKD
ROOT
HETATM    1  C   UNL     1     -11.369  11.024  66.999  1.00  0.00    -0.164 C  
HETATM    2  C   UNL     1     -12.738  10.734  67.549  1.00  0.00     4.912 C  
HETATM    3  O   UNL     1     -12.649  11.144  68.928  1.00  0.00    -0.358 OA 
HETATM    4  C   UNL     1     -11.334  11.161  69.327  1.00  0.00    -0.281 C  
HETATM    5  C   UNL     1     -10.476  10.726  68.178  1.00  0.00    -0.214 C  
HETATM    6  O   UNL     1     -10.961  11.388  70.466  1.00  0.00     0.391 OA 
HETATM    7  C   UNL     1      -9.105  11.369  67.972  1.00  0.00    -0.171 C  
HETATM    8  C   UNL     1      -5.475  10.635  63.371  1.00  0.00    -0.134 C  
HETATM    9  C   UNL     1      -8.532  10.877  66.635  1.00  0.00    -0.151 A  
HETATM   10  O   UNL     1      -5.359  10.917  64.780  1.00  0.00    -0.131 OA 
HETATM   11  C   UNL     1      -7.151  11.030  66.420  1.00  0.00    -0.120 A  
HETATM   12  C   UNL     1      -6.647  10.745  65.174  1.00  0.00     0.132 A  
HETATM   13  C   UNL     1      -9.386  10.399  65.579  1.00  0.00    -0.244 A  
HETATM   14  C   UNL     1      -7.451  10.276  64.167  1.00  0.00    -0.069 A  
HETATM   15  C   UNL     1     -10.897  10.245  65.781  1.00  0.00     0.258 C  
HETATM   16  H   UNL     1     -11.330  10.267  63.907  1.00  0.00     0.000 HD 
HETATM   17  O   UNL     1      -6.764  10.091  63.006  1.00  0.00    -0.120 OA 
HETATM   18  C   UNL     1      -8.806  10.063  64.341  1.00  0.00    -0.239 A  
HETATM   19  O   UNL     1     -11.625  10.753  64.668  1.00  0.00     0.601 OA 
ENDROOT
BRANCH   7  20
HETATM   20  C   UNL     1      -9.126  12.896  68.050  1.00  0.00    -0.211 A  
HETATM   21  C   UNL     1     -10.072  14.988  68.921  1.00  0.00    -0.234 A  
HETATM   22  C   UNL     1     -10.127  13.602  68.736  1.00  0.00    -0.129 A  
HETATM   23  C   UNL     1      -7.999  15.010  67.639  1.00  0.00    -0.162 A  
HETATM   24  C   UNL     1      -8.081  13.623  67.480  1.00  0.00    -0.190 A  
HETATM   25  C   UNL     1      -9.000  15.706  68.357  1.00  0.00    -0.185 A  
BRANCH  23  26
HETATM   26  O   UNL     1      -6.979  15.754  67.089  1.00  0.00    -0.203 OA 
HETATM   27  C   UNL     1      -7.029  15.941  65.677  1.00  0.00     4.323 C  
ENDBRANCH  23  26
BRANCH  25  28
HETATM   28  O   UNL     1      -8.766  17.054  68.507  1.00  0.00    -0.237 OA 
HETATM   29  C   UNL     1      -8.983  17.898  67.385  1.00  0.00    -0.245 C  
ENDBRANCH  25  28
BRANCH  21  30
HETATM   30  O   UNL     1     -11.004  15.657  69.673  1.00  0.00    -0.241 OA 
HETATM   31  C   UNL     1     -12.379  15.523  69.327  1.00  0.00    -0.075 C  
ENDBRANCH  21  30
ENDBRANCH   7  20
TORSDOF 4
ENDMDL
MODEL      192
REMARK 921   NORMALIZED FREE ENERGY PREDICTED BY IDOCK:    9.56 KCAL/MOL
REMARK 922        TOTAL FREE ENERGY PREDICTED BY IDOCK:   11.05 KCAL/MOL
REMARK 923 INTER-LIGAND FREE ENERGY PREDICTED BY IDOCK:   11.02 KCAL/MOL
REMARK 924 INTRA-LIGAND FREE ENERGY PREDICTED BY IDOCK:    0.03 KCAL/MOL
REMARK 927      BINDING AFFINITY PREDICTED BY RF-SCORE:    0.00 PKD
ROOT
HETATM    1  C   UNL     1      -7.197  17.206  68.236  1.00  0.00    -0.204 C  
HETATM    2  C   UNL     1      -5.857  17.612  68.785  1.00  0.00    -0.174 C  
HETATM    3  O   UNL     1      -6.173  18.660  69.722  1.00  0.00    -0.263 OA 
HETATM    4  C   UNL     1      -7.397  19.205  69.421  1.00  0.00    -0.137 C  
HETATM    5  C   UNL     1      -7.946  18.515  68.209  1.00  0.00    -0.325 C  
HETATM    6  O   UNL     1      -7.885  20.166  69.991  1.00  0.00     0.372 OA 
HETATM    7  C   UNL     1      -9.449  18.256  68.102  1.00  0.00    -0.313 C  
HETATM    8  C   UNL     1     -12.235  15.075  63.979  1.00  0.00    -0.090 C  
HETATM    9  C   UNL     1      -9.706  17.382  66.865  1.00  0.00    -0.286 A  
HETATM   10  O   UNL     1     -12.525  16.211  64.819  1.00  0.00     0.520 OA 
HETATM   11  C   UNL     1     -11.017  17.335  66.359  1.00  0.00     0.222 A  
HETATM   12  C   UNL     1     -11.299  16.439  65.357  1.00  0.00     0.241 A  
HETATM   13  C   UNL     1      -8.681  16.533  66.317  1.00  0.00    -0.369 A  
HETATM   14  C   UNL     1     -10.326  15.636  64.820  1.00  0.00     0.058 A  
HETATM   15  C   UNL     1      -7.250  16.549  66.866  1.00  0.00    -0.228 C  
HETATM   16  H   UNL     1      -6.774  14.820  66.172  1.00  0.00     0.000 HD 
HETATM   17  O   UNL     1     -10.821  14.799  63.867  1.00  0.00     0.556 OA 
HETATM   18  C   UNL     1      -9.013  15.678  65.248  1.00  0.00     1.257 A  
HETATM   19  O   UNL     1      -6.741  15.230  67.028  1.00  0.00    -0.251 OA 
ENDROOT
BRANCH   7  20
HETATM   20  C   UNL     1     -10.057  17.643  69.364  1.00  0.00    -0.033 A  
HETATM   21  C   UNL     1     -10.812  17.832  71.693  1.00  0.00     2.642 A  
HETATM   22  C   UNL     1     -10.136  18.343  70.578  1.00  0.00     2.030 A  
HETATM   23  C   UNL     1     -11.291  15.823  70.398  1.00  0.00    -0.374 A  
HETATM   24  C   UNL     1     -10.615  16.367  69.301  1.00  0.00    -0.311 A  
HETATM   25  C   UNL     1     -11.389  16.550  71.608  1.00  0.00     0.106 A  
BRANCH  23  26
HETATM   26  O   UNL     1     -11.854  14.567  70.366  1.00  0.00    -0.280 OA 
HETATM   27  C   UNL     1     -10.957  13.482  70.142  1.00  0.00     0.592 C  
ENDBRANCH  23  26
BRANCH  25  28
HETATM   28  O   UNL     1     -12.142  15.940  72.585  1.00  0.00    -0.420 OA 
HETATM   29  C   UNL     1     -13.464  16.415  72.802  1.00  0.00     0.368 C  
ENDBRANCH  25  28
BRANCH  21  30
HETATM   30  O   UNL     1     -10.968  18.561  72.844  1.00  0.00     1.508 OA 
HETATM   31  C   UNL     1      -9.814  19.159  73.430  1.00  0.00     4.603 C  
ENDBRANCH  21  30
ENDBRANCH   7  20
TORSDOF 4
ENDMDL
MODEL      193
REMARK 921   NORMALIZED FREE ENERGY PREDICTED BY IDOCK:   12.45 KCAL/MOL
REMARK 922        TOTAL FREE ENERGY PREDICTED BY IDOCK:   14.60 KCAL/MOL
REMARK 923 INTER-LIGAND FREE ENERGY PREDICTED BY IDOCK:   14.48 KCAL/MOL
REMARK 924 INTRA-LIGAND FREE ENERGY PREDICTED BY IDOCK:    0.13 KCAL/MOL
REMARK 927      BINDING AFFINITY PREDICTED BY RF-SCORE:    0.00 PKD
ROOT
HETATM    1  C   UNL     1     -11.747  10.818  66.854  1.00  0.00     0.779 C  
HETATM    2  C   UNL     1     -13.146  10.628  67.371  1.00  0.00     8.835 C  
HETATM    3  O   UNL     1     -12.963  10.387  68.780  1.00  0.00     1.061 OA 
HETATM    4  C   UNL     1     -11.683   9.948  69.017  1.00  0.00     0.268 C  
HETATM    5  C   UNL     1     -10.952   9.864  67.711  1.00  0.00    -0.278 C  
HETATM    6  O   UNL     1     -11.267   9.586  70.105  1.00  0.00    -0.240 OA 
HETATM    7  C   UNL     1      -9.466  10.220  67.651  1.00  0.00    -0.169 C  
HETATM    8  C   UNL     1      -6.114  10.727  62.816  1.00  0.00    -0.041 C  
HETATM    9  C   UNL     1      -9.027  10.226  66.179  1.00  0.00    -0.174 A  
HETATM   10  O   UNL     1      -5.935  10.356  64.198  1.00  0.00    -0.141 OA 
HETATM   11  C   UNL     1      -7.649  10.152  65.909  1.00  0.00    -0.128 A  
HETATM   12  C   UNL     1      -7.227  10.318  64.612  1.00  0.00    -0.082 A  
HETATM   13  C   UNL     1      -9.969  10.437  65.112  1.00  0.00    -0.390 A  
HETATM   14  C   UNL     1      -8.119  10.505  63.588  1.00  0.00    -0.051 A  
HETATM   15  C   UNL     1     -11.474  10.545  65.383  1.00  0.00     1.390 C  
HETATM   16  H   UNL     1     -11.887  11.449  63.737  1.00  0.00     0.000 HD 
HETATM   17  O   UNL     1      -7.494  10.683  62.391  1.00  0.00    -0.146 OA 
HETATM   18  C   UNL     1      -9.485  10.538  63.794  1.00  0.00    -0.342 A  
HETATM   19  O   UNL     1     -12.058  11.620  64.656  1.00  0.00    -0.091 OA 
ENDROOT
BRANCH   7  20
HETATM   20  C   UNL     1      -9.122  11.535  68.351  1.00  0.00    -0.185 A  
HETATM   21  C   UNL     1      -7.736  12.845  69.898  1.00  0.00     1.703 A  
HETATM   22  C   UNL     1      -8.144  11.621  69.354  1.00  0.00     0.479 A  
HETATM   23  C   UNL     1      -9.371  13.949  68.467  1.00  0.00    -0.164 A  
HETATM   24  C   UNL     1      -9.749  12.710  67.940  1.00  0.00    -0.216 A  
HETATM   25  C   UNL     1      -8.364  14.026  69.458  1.00  0.00     0.680 A  
BRANCH  23  26
HETATM   26  O   UNL     1      -9.971  15.127  68.080  1.00  0.00    -0.218 OA 
HETATM   27  C   UNL     1     -11.297  15.344  68.557  1.00  0.00    -0.335 C  
ENDBRANCH  23  26
BRANCH  25  28
HETATM   28  O   UNL     1      -8.031  15.305  69.840  1.00  0.00    -0.139 OA 
HETATM   29  C   UNL     1      -8.977  16.041  70.603  1.00  0.00     2.370 C  
ENDBRANCH  25  28
BRANCH  21  30
HETATM   30  O   UNL     1      -6.714  12.929  70.808  1.00  0.00     0.575 OA 
HETATM   31  C   UNL     1      -5.381  12.712  70.355  1.00  0.00    -0.136 C  
ENDBRANCH  21  30
ENDBRANCH   7  20
TORSDOF 4
ENDMDL
MODEL      194
REMARK 921   NORMALIZED FREE ENERGY PREDICTED BY IDOCK:   32.69 KCAL/MOL
REMARK 922        TOTAL FREE ENERGY PREDICTED BY IDOCK:   39.58 KCAL/MOL
REMARK 923 INTER-LIGAND FREE ENERGY PREDICTED BY IDOCK:   36.12 KCAL/MOL
REMARK 924 INTRA-LIGAND FREE ENERGY PREDICTED BY IDOCK:    3.46 KCAL/MOL
REMARK 927      BINDING AFFINITY PREDICTED BY RF-SCORE:    0.00 PKD
ROOT
HETATM    1  C   UNL     1      -7.111  14.969  70.555  1.00  0.00     0.448 C  
HETATM    2  C   UNL     1      -6.292  15.283  71.778  1.00  0.00     1.274 C  
HETATM    3  O   UNL     1      -6.477  14.129  72.621  1.00  0.00     0.319 OA 
HETATM    4  C   UNL     1      -7.626  13.467  72.263  1.00  0.00     8.533 C  
HETATM    5  C   UNL     1      -8.277  14.206  71.134  1.00  0.00     4.720 C  
HETATM    6  O   UNL     1      -8.081  12.503  72.857  1.00  0.00    15.343 OA 
HETATM    7  C   UNL     1      -8.990  13.425  70.030  1.00  0.00     3.008 C  
HETATM    8  C   UNL     1     -11.210  15.579  64.999  1.00  0.00    -0.358 C  
HETATM    9  C   UNL     1      -9.396  14.407  68.922  1.00  0.00    -0.096 A  
HETATM   10  O   UNL     1     -11.491  14.492  65.904  1.00  0.00    -0.339 OA 
HETATM   11  C   UNL     1     -10.378  13.991  68.006  1.00  0.00    -0.240 A  
HETATM   12  C   UNL     1     -10.638  14.788  66.918  1.00  0.00    -0.294 A  
HETATM   13  C   UNL     1      -8.707  15.658  68.734  1.00  0.00    -0.197 A  
HETATM   14  C   UNL     1      -9.997  15.987  66.739  1.00  0.00    -0.258 A  
HETATM   15  C   UNL     1      -7.617  16.124  69.705  1.00  0.00     0.269 C  
HETATM   16  H   UNL     1      -6.804  17.362  68.478  1.00  0.00     0.000 HD 
HETATM   17  O   UNL     1     -10.372  16.601  65.584  1.00  0.00    -0.469 OA 
HETATM   18  C   UNL     1      -9.058  16.464  67.634  1.00  0.00    -0.198 A  
HETATM   19  O   UNL     1      -6.488  16.641  69.010  1.00  0.00    -0.166 OA 
ENDROOT
BRANCH   7  20
HETATM   20  C   UNL     1      -8.172  12.256  69.479  1.00  0.00     1.204 A  
HETATM   21  C   UNL     1      -6.425  11.367  68.000  1.00  0.00    -0.057 A  
HETATM   22  C   UNL     1      -7.270  12.404  68.413  1.00  0.00    -0.110 A  
HETATM   23  C   UNL     1      -7.445   9.948  69.699  1.00  0.00    -0.122 A  
HETATM   24  C   UNL     1      -8.268  11.008  70.092  1.00  0.00     1.444 A  
HETATM   25  C   UNL     1      -6.519  10.118  68.643  1.00  0.00    -0.052 A  
BRANCH  23  26
HETATM   26  O   UNL     1      -7.515   8.704  70.287  1.00  0.00    -0.059 OA 
HETATM   27  C   UNL     1      -6.315   8.226  70.890  1.00  0.00    -0.037 C  
ENDBRANCH  23  26
BRANCH  25  28
HETATM   28  O   UNL     1      -5.716   9.026  68.402  1.00  0.00    -0.038 OA 
HETATM   29  C   UNL     1      -6.263   7.734  68.626  1.00  0.00    -0.036 C  
ENDBRANCH  25  28
BRANCH  21  30
HETATM   30  O   UNL     1      -5.480  11.548  67.022  1.00  0.00    -0.080 OA 
HETATM   31  C   UNL     1      -5.711  12.545  66.031  1.00  0.00     2.763 C  
ENDBRANCH  21  30
ENDBRANCH   7  20
TORSDOF 4
ENDMDL
MODEL      195
REMARK 921   NORMALIZED FREE ENERGY PREDICTED BY IDOCK:   38.84 KCAL/MOL
REMARK 922        TOTAL FREE ENERGY PREDICTED BY IDOCK:   47.17 KCAL/MOL
REMARK 923 INTER-LIGAND FREE ENERGY PREDICTED BY IDOCK:   44.49 KCAL/MOL
REMARK 924 INTRA-LIGAND FREE ENERGY PREDICTED BY IDOCK:    2.68 KCAL/MOL
REMARK 927      BINDING AFFINITY PREDICTED BY RF-SCORE:    0.00 PKD
ROOT
HETATM    1  C   UNL     1     -10.929  12.616  67.879  1.00  0.00    -0.262 C  
HETATM    2  C   UNL     1     -11.263  12.929  66.446  1.00  0.00    -0.300 C  
HETATM    3  O   UNL     1     -12.602  13.456  66.512  1.00  0.00    -0.264 OA 
HETATM    4  C   UNL     1     -13.213  13.039  67.669  1.00  0.00     4.220 C  
HETATM    5  C   UNL     1     -12.260  12.169  68.431  1.00  0.00     0.141 C  
HETATM    6  O   UNL     1     -14.379  13.261  67.954  1.00  0.00    10.867 OA 
HETATM    7  C   UNL     1     -12.239  12.227  69.959  1.00  0.00    -0.267 C  
HETATM    8  C   UNL     1      -8.380   9.598  73.574  1.00  0.00     3.997 C  
HETATM    9  C   UNL     1     -11.058  11.384  70.462  1.00  0.00     0.634 A  
HETATM   10  O   UNL     1      -9.764  10.003  73.611  1.00  0.00     6.925 OA 
HETATM   11  C   UNL     1     -11.067  10.986  71.810  1.00  0.00     3.454 A  
HETATM   12  C   UNL     1      -9.948  10.372  72.318  1.00  0.00     6.820 A  
HETATM   13  C   UNL     1      -9.912  11.120  69.630  1.00  0.00     0.325 A  
HETATM   14  C   UNL     1      -8.858  10.104  71.530  1.00  0.00     3.236 A  
HETATM   15  C   UNL     1      -9.870  11.564  68.164  1.00  0.00    -0.194 C  
HETATM   16  H   UNL     1      -7.953  11.494  68.014  1.00  0.00     0.000 HD 
HETATM   17  O   UNL     1      -7.846   9.525  72.233  1.00  0.00     0.404 OA 
HETATM   18  C   UNL     1      -8.818  10.432  70.188  1.00  0.00     0.438 A  
HETATM   19  O   UNL     1      -8.616  12.152  67.836  1.00  0.00    -0.150 OA 
ENDROOT
BRANCH   7  20
HETATM   20  C   UNL     1     -12.199  13.649  70.518  1.00  0.00    -0.438 A  
HETATM   21  C   UNL     1     -12.232  15.214  72.410  1.00  0.00    -0.374 A  
HETATM   22  C   UNL     1     -12.402  13.930  71.878  1.00  0.00    -0.161 A  
HETATM   23  C   UNL     1     -11.715  16.004  70.163  1.00  0.00    -0.281 A  
HETATM   24  C   UNL     1     -11.885  14.707  69.667  1.00  0.00    -0.367 A  
HETATM   25  C   UNL     1     -11.894  16.269  71.541  1.00  0.00    -0.380 A  
BRANCH  23  26
HETATM   26  O   UNL     1     -11.402  17.069  69.348  1.00  0.00     0.148 OA 
HETATM   27  C   UNL     1     -10.014  17.317  69.142  1.00  0.00    -0.211 C  
ENDBRANCH  23  26
BRANCH  25  28
HETATM   28  O   UNL     1     -11.625  17.566  71.916  1.00  0.00     1.087 OA 
HETATM   29  C   UNL     1     -10.293  17.888  72.292  1.00  0.00     5.154 C  
ENDBRANCH  25  28
BRANCH  21  30
HETATM   30  O   UNL     1     -12.339  15.462  73.755  1.00  0.00    -0.493 OA 
HETATM   31  C   UNL     1     -11.615  16.561  74.302  1.00  0.00     0.782 C  
ENDBRANCH  21  30
ENDBRANCH   7  20
TORSDOF 4
ENDMDL
MODEL      196
REMARK 921   NORMALIZED FREE ENERGY PREDICTED BY IDOCK:   47.54 KCAL/MOL
REMARK 922        TOTAL FREE ENERGY PREDICTED BY IDOCK:   57.90 KCAL/MOL
REMARK 923 INTER-LIGAND FREE ENERGY PREDICTED BY IDOCK:   55.48 KCAL/MOL
REMARK 924 INTRA-LIGAND FREE ENERGY PREDICTED BY IDOCK:    2.42 KCAL/MOL
REMARK 927      BINDING AFFINITY PREDICTED BY RF-SCORE:    0.00 PKD
ROOT
HETATM    1  C   UNL     1     -10.946   6.540  64.405  1.00  0.00     8.594 C  
HETATM    2  C   UNL     1     -11.714   5.371  63.853  1.00  0.00     4.768 C  
HETATM    3  O   UNL     1     -11.333   4.274  64.706  1.00  0.00    -0.302 OA 
HETATM    4  C   UNL     1     -10.137   4.553  65.321  1.00  0.00    -0.159 C  
HETATM    5  C   UNL     1      -9.659   5.896  64.859  1.00  0.00     0.886 C  
HETATM    6  O   UNL     1      -9.528   3.773  66.035  1.00  0.00    -0.166 OA 
HETATM    7  C   UNL     1      -8.930   6.817  65.837  1.00  0.00    -0.095 C  
HETATM    8  C   UNL     1      -7.332  12.431  64.935  1.00  0.00     5.355 C  
HETATM    9  C   UNL     1      -8.723   8.180  65.161  1.00  0.00    -0.047 A  
HETATM   10  O   UNL     1      -6.859  11.301  65.698  1.00  0.00     0.164 OA 
HETATM   11  C   UNL     1      -7.760   9.044  65.712  1.00  0.00    -0.091 A  
HETATM   12  C   UNL     1      -7.673  10.324  65.222  1.00  0.00    -0.144 A  
HETATM   13  C   UNL     1      -9.572   8.625  64.086  1.00  0.00     1.758 A  
HETATM   14  C   UNL     1      -8.467  10.751  64.190  1.00  0.00     0.017 A  
HETATM   15  C   UNL     1     -10.644   7.711  63.484  1.00  0.00    11.627 C  
HETATM   16  H   UNL     1     -11.683   9.137  62.719  1.00  0.00     0.000 HD 
HETATM   17  O   UNL     1      -8.248  12.059  63.881  1.00  0.00     1.684 OA 
HETATM   18  C   UNL     1      -9.396   9.928  63.582  1.00  0.00    -0.242 A  
HETATM   19  O   UNL     1     -11.872   8.405  63.294  1.00  0.00    17.438 OA 
ENDROOT
BRANCH   7  20
HETATM   20  C   UNL     1      -9.632   6.956  67.188  1.00  0.00    -0.182 A  
HETATM   21  C   UNL     1     -11.007   8.234  68.772  1.00  0.00     0.185 A  
HETATM   22  C   UNL     1     -10.250   8.149  67.598  1.00  0.00    -0.296 A  
HETATM   23  C   UNL     1     -10.468   5.897  69.210  1.00  0.00    -0.274 A  
HETATM   24  C   UNL     1      -9.726   5.845  68.025  1.00  0.00    -0.132 A  
HETATM   25  C   UNL     1     -11.110   7.097  69.597  1.00  0.00    -0.179 A  
BRANCH  23  26
HETATM   26  O   UNL     1     -10.581   4.816  70.056  1.00  0.00    -0.093 OA 
HETATM   27  C   UNL     1     -11.774   4.749  70.833  1.00  0.00     3.249 C  
ENDBRANCH  23  26
BRANCH  25  28
HETATM   28  O   UNL     1     -11.869   6.999  70.741  1.00  0.00    -0.337 OA 
HETATM   29  C   UNL     1     -12.318   8.202  71.348  1.00  0.00    -0.298 C  
ENDBRANCH  25  28
BRANCH  21  30
HETATM   30  O   UNL     1     -11.685   9.375  69.117  1.00  0.00     0.339 OA 
HETATM   31  C   UNL     1     -12.234  10.179  68.076  1.00  0.00     2.455 C  
ENDBRANCH  21  30
ENDBRANCH   7  20
TORSDOF 4
ENDMDL
MODEL      197
REMARK 921   NORMALIZED FREE ENERGY PREDICTED BY IDOCK:   52.65 KCAL/MOL
REMARK 922        TOTAL FREE ENERGY PREDICTED BY IDOCK:   64.21 KCAL/MOL
REMARK 923 INTER-LIGAND FREE ENERGY PREDICTED BY IDOCK:   63.34 KCAL/MOL
REMARK 924 INTRA-LIGAND FREE ENERGY PREDICTED BY IDOCK:    0.87 KCAL/MOL
REMARK 927      BINDING AFFINITY PREDICTED BY RF-SCORE:    0.00 PKD
ROOT
HETATM    1  C   UNL     1      -8.914  10.805  72.313  1.00  0.00    11.285 C  
HETATM    2  C   UNL     1      -8.504  10.485  73.724  1.00  0.00    11.085 C  
HETATM    3  O   UNL     1      -7.065  10.556  73.689  1.00  0.00     3.338 OA 
HETATM    4  C   UNL     1      -6.620  10.395  72.399  1.00  0.00     2.475 C  
HETATM    5  C   UNL     1      -7.803  10.184  71.504  1.00  0.00     2.513 C  
HETATM    6  O   UNL     1      -5.445  10.326  72.077  1.00  0.00    -0.287 OA 
HETATM    7  C   UNL     1      -7.796  10.768  70.090  1.00  0.00     0.705 C  
HETATM    8  C   UNL     1     -12.287  10.890  66.258  1.00  0.00     3.652 C  
HETATM    9  C   UNL     1      -9.186  10.564  69.472  1.00  0.00    -0.072 A  
HETATM   10  O   UNL     1     -10.847  10.829  66.205  1.00  0.00    -0.172 OA 
HETATM   11  C   UNL     1      -9.302  10.673  68.075  1.00  0.00    -0.151 A  
HETATM   12  C   UNL     1     -10.558  10.654  67.520  1.00  0.00    -0.252 A  
HETATM   13  C   UNL     1     -10.359  10.401  70.291  1.00  0.00    -0.031 A  
HETATM   14  C   UNL     1     -11.679  10.485  68.291  1.00  0.00     0.031 A  
HETATM   15  C   UNL     1     -10.261  10.303  71.817  1.00  0.00     3.177 C  
HETATM   16  H   UNL     1     -12.093  10.788  72.144  1.00  0.00     0.000 HD 
HETATM   17  O   UNL     1     -12.822  10.531  67.551  1.00  0.00     3.872 OA 
HETATM   18  C   UNL     1     -11.616  10.326  69.662  1.00  0.00    -0.267 A  
HETATM   19  O   UNL     1     -11.252  11.102  72.454  1.00  0.00     4.574 OA 
ENDROOT
BRANCH   7  20
HETATM   20  C   UNL     1      -7.360  12.232  70.035  1.00  0.00     1.343 A  
HETATM   21  C   UNL     1      -6.642  14.212  68.771  1.00  0.00    -0.094 A  
HETATM   22  C   UNL     1      -6.911  12.841  68.852  1.00  0.00    -0.096 A  
HETATM   23  C   UNL     1      -7.203  14.393  71.137  1.00  0.00     1.830 A  
HETATM   24  C   UNL     1      -7.471  13.021  71.179  1.00  0.00     5.682 A  
HETATM   25  C   UNL     1      -6.778  14.999  69.931  1.00  0.00    -0.170 A  
BRANCH  23  26
HETATM   26  O   UNL     1      -7.305  15.197  72.250  1.00  0.00     3.126 OA 
HETATM   27  C   UNL     1      -7.579  14.534  73.481  1.00  0.00     6.474 C  
ENDBRANCH  23  26
BRANCH  25  28
HETATM   28  O   UNL     1      -6.620  16.365  70.000  1.00  0.00    -0.110 OA 
HETATM   29  C   UNL     1      -5.655  16.879  70.908  1.00  0.00     0.109 C  
ENDBRANCH  25  28
BRANCH  21  30
HETATM   30  O   UNL     1      -6.295  14.816  67.590  1.00  0.00    -0.194 OA 
HETATM   31  C   UNL     1      -7.258  15.641  66.941  1.00  0.00    -0.033 C  
ENDBRANCH  21  30
ENDBRANCH   7  20
TORSDOF 4
ENDMDL
MODEL      198
REMARK 921   NORMALIZED FREE ENERGY PREDICTED BY IDOCK:   76.97 KCAL/MOL
REMARK 922        TOTAL FREE ENERGY PREDICTED BY IDOCK:   94.21 KCAL/MOL
REMARK 923 INTER-LIGAND FREE ENERGY PREDICTED BY IDOCK:   93.25 KCAL/MOL
REMARK 924 INTRA-LIGAND FREE ENERGY PREDICTED BY IDOCK:    0.96 KCAL/MOL
REMARK 927      BINDING AFFINITY PREDICTED BY RF-SCORE:    0.00 PKD
ROOT
HETATM    1  C   UNL     1     -12.705  14.881  72.107  1.00  0.00    -0.398 C  
HETATM    2  C   UNL     1     -13.369  13.781  72.889  1.00  0.00    -0.239 C  
HETATM    3  O   UNL     1     -12.970  12.580  72.201  1.00  0.00    -0.331 OA 
HETATM    4  C   UNL     1     -12.597  12.881  70.913  1.00  0.00    -0.270 C  
HETATM    5  C   UNL     1     -12.762  14.354  70.695  1.00  0.00    -0.421 C  
HETATM    6  O   UNL     1     -12.293  12.052  70.071  1.00  0.00    -0.207 OA 
HETATM    7  C   UNL     1     -11.762  15.105  69.815  1.00  0.00    -0.347 C  
HETATM    8  C   UNL     1     -11.400  20.944  69.011  1.00  0.00     2.287 C  
HETATM    9  C   UNL     1     -12.058  16.608  69.915  1.00  0.00     1.164 A  
HETATM   10  O   UNL     1     -11.116  19.749  68.256  1.00  0.00     0.182 OA 
HETATM   11  C   UNL     1     -11.527  17.447  68.920  1.00  0.00     1.005 A  
HETATM   12  C   UNL     1     -11.644  18.806  69.079  1.00  0.00     3.704 A  
HETATM   13  C   UNL     1     -12.737  17.168  71.055  1.00  0.00     5.986 A  
HETATM   14  C   UNL     1     -12.301  19.347  70.153  1.00  0.00    14.183 A  
HETATM   15  C   UNL     1     -13.304  16.277  72.165  1.00  0.00     0.517 C  
HETATM   16  H   UNL     1     -13.375  17.669  73.491  1.00  0.00     0.000 HD 
HETATM   17  O   UNL     1     -12.272  20.709  70.139  1.00  0.00     5.160 OA 
HETATM   18  C   UNL     1     -12.881  18.566  71.135  1.00  0.00    19.102 A  
HETATM   19  O   UNL     1     -13.001  16.796  73.455  1.00  0.00    -0.049 OA 
ENDROOT
BRANCH   7  20
HETATM   20  C   UNL     1     -10.302  14.792  70.142  1.00  0.00     0.152 A  
HETATM   21  C   UNL     1      -8.594  13.793  71.596  1.00  0.00     9.803 A  
HETATM   22  C   UNL     1      -9.911  14.201  71.354  1.00  0.00     5.050 A  
HETATM   23  C   UNL     1      -7.994  14.649  69.394  1.00  0.00    -0.003 A  
HETATM   24  C   UNL     1      -9.321  15.037  69.182  1.00  0.00    -0.189 A  
HETATM   25  C   UNL     1      -7.618  14.028  70.609  1.00  0.00     2.098 A  
BRANCH  23  26
HETATM   26  O   UNL     1      -7.003  14.875  68.465  1.00  0.00    -0.099 OA 
HETATM   27  C   UNL     1      -6.934  16.195  67.929  1.00  0.00    -0.135 C  
ENDBRANCH  23  26
BRANCH  25  28
HETATM   28  O   UNL     1      -6.302  13.627  70.665  1.00  0.00    -0.054 OA 
HETATM   29  C   UNL     1      -5.434  14.310  71.558  1.00  0.00    -0.201 C  
ENDBRANCH  25  28
BRANCH  21  30
HETATM   30  O   UNL     1      -8.239  13.131  72.744  1.00  0.00    12.083 OA 
HETATM   31  C   UNL     1      -7.424  11.967  72.632  1.00  0.00    13.723 C  
ENDBRANCH  21  30
ENDBRANCH   7  20
TORSDOF 4
ENDMDL
MODEL      199
REMARK 921   NORMALIZED FREE ENERGY PREDICTED BY IDOCK:   80.37 KCAL/MOL
REMARK 922        TOTAL FREE ENERGY PREDICTED BY IDOCK:   98.41 KCAL/MOL
REMARK 923 INTER-LIGAND FREE ENERGY PREDICTED BY IDOCK:   97.99 KCAL/MOL
REMARK 924 INTRA-LIGAND FREE ENERGY PREDICTED BY IDOCK:    0.42 KCAL/MOL
REMARK 927      BINDING AFFINITY PREDICTED BY RF-SCORE:    0.00 PKD
ROOT
HETATM    1  C   UNL     1      -7.392   7.460  68.986  1.00  0.00    -0.091 C  
HETATM    2  C   UNL     1      -6.236   7.385  68.027  1.00  0.00    -0.043 C  
HETATM    3  O   UNL     1      -6.056   5.971  67.816  1.00  0.00    -0.020 OA 
HETATM    4  C   UNL     1      -6.608   5.268  68.859  1.00  0.00    -0.051 C  
HETATM    5  C   UNL     1      -7.180   6.239  69.846  1.00  0.00    -0.074 C  
HETATM    6  O   UNL     1      -6.533   4.057  68.993  1.00  0.00    -0.035 OA 
HETATM    7  C   UNL     1      -8.471   5.891  70.589  1.00  0.00    -0.129 C  
HETATM    8  C   UNL     1     -11.626   9.432  74.108  1.00  0.00    10.702 C  
HETATM    9  C   UNL     1      -8.923   7.125  71.384  1.00  0.00    -0.135 A  
HETATM   10  O   UNL     1     -11.352   8.021  73.992  1.00  0.00     1.283 OA 
HETATM   11  C   UNL     1      -9.852   6.929  72.421  1.00  0.00    -0.172 A  
HETATM   12  C   UNL     1     -10.387   8.035  73.036  1.00  0.00    -0.280 A  
HETATM   13  C   UNL     1      -8.522   8.455  71.005  1.00  0.00    -0.167 A  
HETATM   14  C   UNL     1     -10.001   9.304  72.691  1.00  0.00     1.535 A  
HETATM   15  C   UNL     1      -7.529   8.695  69.862  1.00  0.00    -0.056 C  
HETATM   16  H   UNL     1      -8.046  10.523  69.560  1.00  0.00     0.000 HD 
HETATM   17  O   UNL     1     -10.676  10.255  73.393  1.00  0.00     7.519 OA 
HETATM   18  C   UNL     1      -9.057   9.549  71.711  1.00  0.00     0.982 A  
HETATM   19  O   UNL     1      -7.961   9.751  69.012  1.00  0.00    -0.087 OA 
ENDROOT
BRANCH   7  20
HETATM   20  C   UNL     1      -9.581   5.368  69.677  1.00  0.00    -0.217 A  
HETATM   21  C   UNL     1     -10.496   4.937  67.439  1.00  0.00     0.001 A  
HETATM   22  C   UNL     1      -9.551   5.532  68.283  1.00  0.00    -0.148 A  
HETATM   23  C   UNL     1     -11.601   4.041  69.419  1.00  0.00     8.691 A  
HETATM   24  C   UNL     1     -10.634   4.643  70.232  1.00  0.00     0.299 A  
HETATM   25  C   UNL     1     -11.543   4.190  68.013  1.00  0.00     8.138 A  
BRANCH  23  26
HETATM   26  O   UNL     1     -12.651   3.317  69.938  1.00  0.00    17.702 OA 
HETATM   27  C   UNL     1     -12.435   2.723  71.215  1.00  0.00    10.459 C  
ENDBRANCH  23  26
BRANCH  25  28
HETATM   28  O   UNL     1     -12.505   3.489  67.322  1.00  0.00    14.794 OA 
HETATM   29  C   UNL     1     -13.255   4.183  66.335  1.00  0.00    18.021 C  
ENDBRANCH  25  28
BRANCH  21  30
HETATM   30  O   UNL     1     -10.406   5.022  66.073  1.00  0.00    -0.241 OA 
HETATM   31  C   UNL     1      -9.547   4.113  65.392  1.00  0.00    -0.187 C  
ENDBRANCH  21  30
ENDBRANCH   7  20
TORSDOF 4
ENDMDL
MODEL      200
REMARK 921   NORMALIZED FREE ENERGY PREDICTED BY IDOCK:   93.47 KCAL/MOL
REMARK 922        TOTAL FREE ENERGY PREDICTED BY IDOCK:  114.58 KCAL/MOL
REMARK 923 INTER-LIGAND FREE ENERGY PREDICTED BY IDOCK:  115.01 KCAL/MOL
REMARK 924 INTRA-LIGAND FREE ENERGY PREDICTED BY IDOCK:   -0.43 KCAL/MOL
REMARK 927      BINDING AFFINITY PREDICTED BY RF-SCORE:    0.00 PKD
ROOT
HETATM    1  C   UNL     1      -7.392   7.460  68.986  1.00  0.00    -0.091 C  
HETATM    2  C   UNL     1      -6.233   7.334  68.037  1.00  0.00    -0.039 C  
HETATM    3  O   UNL     1      -6.096   5.912  67.847  1.00  0.00    -0.020 OA 
HETATM    4  C   UNL     1      -6.678   5.242  68.896  1.00  0.00    -0.053 C  
HETATM    5  C   UNL     1      -7.225   6.245  69.865  1.00  0.00    -0.074 C  
HETATM    6  O   UNL     1      -6.642   4.032  69.047  1.00  0.00    -0.039 OA 
HETATM    7  C   UNL     1      -8.531   5.950  70.603  1.00  0.00    -0.129 C  
HETATM    8  C   UNL     1     -11.594   9.639  74.050  1.00  0.00    11.057 C  
HETATM    9  C   UNL     1      -8.948   7.208  71.378  1.00  0.00    -0.135 A  
HETATM   10  O   UNL     1     -11.364   8.218  73.956  1.00  0.00     1.904 OA 
HETATM   11  C   UNL     1      -9.890   7.057  72.411  1.00  0.00    -0.172 A  
HETATM   12  C   UNL     1     -10.394   8.188  73.006  1.00  0.00    -0.187 A  
HETATM   13  C   UNL     1      -8.503   8.519  70.982  1.00  0.00    -0.185 A  
HETATM   14  C   UNL     1      -9.965   9.439  72.646  1.00  0.00     2.086 A  
HETATM   15  C   UNL     1      -7.495   8.711  69.844  1.00  0.00    -0.056 C  
HETATM   16  H   UNL     1      -7.952  10.550  69.512  1.00  0.00     0.000 HD 
HETATM   17  O   UNL     1     -10.614  10.421  73.330  1.00  0.00     8.378 OA 
HETATM   18  C   UNL     1      -9.007   9.639  71.670  1.00  0.00     1.234 A  
HETATM   19  O   UNL     1      -7.887   9.768  68.975  1.00  0.00    -0.079 OA 
ENDROOT
BRANCH   7  20
HETATM   20  C   UNL     1      -9.651   5.449  69.691  1.00  0.00    -0.217 A  
HETATM   21  C   UNL     1     -11.384   3.804  69.123  1.00  0.00     7.415 A  
HETATM   22  C   UNL     1     -10.271   4.202  69.873  1.00  0.00     0.283 A  
HETATM   23  C   UNL     1     -11.233   5.910  67.904  1.00  0.00     0.244 A  
HETATM   24  C   UNL     1     -10.128   6.280  68.678  1.00  0.00    -0.185 A  
HETATM   25  C   UNL     1     -11.867   4.663  68.116  1.00  0.00     8.020 A  
BRANCH  23  26
HETATM   26  O   UNL     1     -11.728   6.710  66.898  1.00  0.00     0.292 OA 
HETATM   27  C   UNL     1     -10.803   7.617  66.305  1.00  0.00     1.335 C  
ENDBRANCH  23  26
BRANCH  25  28
HETATM   28  O   UNL     1     -12.986   4.449  67.345  1.00  0.00    15.340 OA 
HETATM   29  C   UNL     1     -14.253   4.756  67.909  1.00  0.00    31.073 C  
ENDBRANCH  25  28
BRANCH  21  30
HETATM   30  O   UNL     1     -12.042   2.627  69.370  1.00  0.00    14.114 OA 
HETATM   31  C   UNL     1     -12.141   1.670  68.319  1.00  0.00    13.889 C  
ENDBRANCH  21  30
ENDBRANCH   7  20
TORSDOF 4
ENDMDL
