MODEL        1
REMARK 921   NORMALIZED FREE ENERGY PREDICTED BY IDOCK:   -4.40 KCAL/MOL
REMARK 922        TOTAL FREE ENERGY PREDICTED BY IDOCK:  -17.53 KCAL/MOL
REMARK 923 INTER-LIGAND FREE ENERGY PREDICTED BY IDOCK:  -13.91 KCAL/MOL
REMARK 924 INTRA-LIGAND FREE ENERGY PREDICTED BY IDOCK:   -3.62 KCAL/MOL
REMARK 927      BINDING AFFINITY PREDICTED BY RF-SCORE:    0.00 PKD
ROOT
HETATM    1  C   UNL     1      -7.749  13.452  67.820  1.00  0.00    -0.161 C  
HETATM    2  C   UNL     1      -7.180  14.838  67.568  1.00  0.00    -0.222 C  
ENDROOT
BRANCH   2   3
HETATM    3  C   UNL     1      -8.059  15.914  68.200  1.00  0.00    -0.145 C  
BRANCH   3   4
HETATM    4  C   UNL     1      -7.214  16.990  68.878  1.00  0.00    -0.239 C  
BRANCH   4   5
HETATM    5  C   UNL     1      -6.284  17.662  67.872  1.00  0.00    -0.163 C  
BRANCH   5   6
HETATM    6  C   UNL     1      -6.168  19.156  68.150  1.00  0.00    -0.235 C  
BRANCH   6   7
HETATM    7  C   UNL     1      -7.539  19.759  68.442  1.00  0.00    -0.336 C  
BRANCH   7   8
HETATM    8  C   UNL     1      -8.042  20.554  67.244  1.00  0.00    -0.362 C  
BRANCH   8   9
HETATM    9  C   UNL     1      -9.539  20.344  67.040  1.00  0.00    -0.571 C  
BRANCH   9  10
HETATM   10  C   UNL     1     -10.071  19.336  68.050  1.00  0.00    -0.496 C  
BRANCH  10  11
HETATM   11  C   UNL     1     -10.710  18.143  67.354  1.00  0.00    -0.355 C  
BRANCH  11  12
HETATM   12  C   UNL     1     -10.504  18.236  65.851  1.00  0.00    -0.307 C  
BRANCH  12  13
HETATM   13  O   UNL     1      -9.901  17.025  65.412  1.00  0.00    -0.531 OA 
BRANCH  13  14
HETATM   14  C   UNL     1     -10.889  16.108  64.955  1.00  0.00    -0.334 C  
BRANCH  14  15
HETATM   15  C   UNL     1     -10.726  14.790  65.691  1.00  0.00    -0.336 C  
BRANCH  15  16
HETATM   16  O   UNL     1     -12.010  14.370  66.140  1.00  0.00    -0.389 OA 
BRANCH  16  17
HETATM   17  C   UNL     1     -12.438  13.197  65.458  1.00  0.00    -0.458 C  
BRANCH  17  18
HETATM   18  C   UNL     1     -11.596  12.026  65.937  1.00  0.00    -0.300 C  
BRANCH  18  19
HETATM   19  O   UNL     1     -12.032  11.646  67.237  1.00  0.00    -0.627 OA 
BRANCH  19  20
HETATM   20  C   UNL     1     -11.043  10.870  67.916  1.00  0.00    -0.302 C  
BRANCH  20  21
HETATM   21  C   UNL     1      -9.941  10.513  66.926  1.00  0.00    -0.200 C  
BRANCH  21  22
HETATM   22  O   UNL     1      -9.502   9.177  67.191  1.00  0.00    -0.144 OA 
BRANCH  22  23
HETATM   23  C   UNL     1     -10.535   8.230  66.944  1.00  0.00    -0.295 C  
BRANCH  23  24
HETATM   24  C   UNL     1     -10.443   7.119  67.979  1.00  0.00    -0.201 C  
BRANCH  24  25
HETATM   25  O   UNL     1      -9.633   7.568  69.062  1.00  0.00    -0.152 OA 
BRANCH  25  26
HETATM   26  C   UNL     1     -10.362   7.575  70.283  1.00  0.00    -0.213 C  
BRANCH  26  27
HETATM   27  C   UNL     1     -11.562   6.650  70.144  1.00  0.00    -0.386 C  
BRANCH  27  28
HETATM   28  O   UNL     1     -12.259   6.601  71.384  1.00  0.00    -0.347 OA 
BRANCH  28  29
HETATM   29  C   UNL     1     -12.238   7.868  72.035  1.00  0.00    -0.317 C  
BRANCH  29  30
HETATM   30  C   UNL     1     -13.631   8.473  71.980  1.00  0.00    -0.392 C  
BRANCH  30  31
HETATM   31  O   UNL     1     -13.531   9.883  72.156  1.00  0.00    -0.429 OA 
BRANCH  31  32
HETATM   32  C   UNL     1     -12.529  10.440  71.309  1.00  0.00    -0.415 C  
BRANCH  32  33
HETATM   33  C   UNL     1     -12.764  11.939  71.184  1.00  0.00    -0.284 C  
BRANCH  33  34
HETATM   34  O   UNL     1     -13.448  12.404  72.344  1.00  0.00    -0.503 OA 
BRANCH  34  35
HETATM   35  C   UNL     1     -14.118  13.637  72.094  1.00  0.00    -0.461 C  
BRANCH  35  36
HETATM   36  C   UNL     1     -13.364  14.758  72.795  1.00  0.00    -0.486 C  
BRANCH  36  37
HETATM   37  O   UNL     1     -13.170  15.847  71.891  1.00  0.00    -0.451 OA 
BRANCH  37  38
HETATM   38  C   UNL     1     -11.787  16.217  71.826  1.00  0.00    -0.506 C  
BRANCH  38  39
HETATM   39  C   UNL     1     -11.297  15.991  70.400  1.00  0.00    -0.391 C  
HETATM   40  O   UNL     1     -10.766  14.673  70.271  1.00  0.00    -0.471 OA 
HETATM   41  H   UNL     1     -10.461  14.533  69.383  1.00  0.00     0.000 HD 
ENDBRANCH  38  39
ENDBRANCH  37  38
ENDBRANCH  36  37
ENDBRANCH  35  36
ENDBRANCH  34  35
ENDBRANCH  33  34
ENDBRANCH  32  33
ENDBRANCH  31  32
ENDBRANCH  30  31
ENDBRANCH  29  30
ENDBRANCH  28  29
ENDBRANCH  27  28
ENDBRANCH  26  27
ENDBRANCH  25  26
ENDBRANCH  24  25
ENDBRANCH  23  24
ENDBRANCH  22  23
ENDBRANCH  21  22
ENDBRANCH  20  21
ENDBRANCH  19  20
ENDBRANCH  18  19
ENDBRANCH  17  18
ENDBRANCH  16  17
ENDBRANCH  15  16
ENDBRANCH  14  15
ENDBRANCH  13  14
ENDBRANCH  12  13
ENDBRANCH  11  12
ENDBRANCH  10  11
ENDBRANCH   9  10
ENDBRANCH   8   9
ENDBRANCH   7   8
ENDBRANCH   6   7
ENDBRANCH   5   6
ENDBRANCH   4   5
ENDBRANCH   3   4
ENDBRANCH   2   3
TORSDOF 37
ENDMDL
MODEL        2
REMARK 921   NORMALIZED FREE ENERGY PREDICTED BY IDOCK:   -4.25 KCAL/MOL
REMARK 922        TOTAL FREE ENERGY PREDICTED BY IDOCK:  -17.08 KCAL/MOL
REMARK 923 INTER-LIGAND FREE ENERGY PREDICTED BY IDOCK:  -13.61 KCAL/MOL
REMARK 924 INTRA-LIGAND FREE ENERGY PREDICTED BY IDOCK:   -3.47 KCAL/MOL
REMARK 927      BINDING AFFINITY PREDICTED BY RF-SCORE:    0.00 PKD
ROOT
HETATM    1  C   UNL     1     -12.651  11.719  63.457  1.00  0.00    -0.485 C  
HETATM    2  C   UNL     1     -11.654  12.861  63.545  1.00  0.00    -0.528 C  
ENDROOT
BRANCH   2   3
HETATM    3  C   UNL     1     -12.306  14.117  64.115  1.00  0.00    -0.372 C  
BRANCH   3   4
HETATM    4  C   UNL     1     -12.463  14.020  65.631  1.00  0.00    -0.531 C  
BRANCH   4   5
HETATM    5  C   UNL     1     -11.168  14.417  66.335  1.00  0.00    -0.345 C  
BRANCH   5   6
HETATM    6  C   UNL     1     -10.560  13.227  67.068  1.00  0.00    -0.259 C  
BRANCH   6   7
HETATM    7  C   UNL     1     -11.649  12.266  67.533  1.00  0.00    -0.422 C  
BRANCH   7   8
HETATM    8  C   UNL     1     -11.124  10.836  67.569  1.00  0.00    -0.374 C  
BRANCH   8   9
HETATM    9  C   UNL     1     -10.265  10.540  66.344  1.00  0.00    -0.296 C  
BRANCH   9  10
HETATM   10  C   UNL     1      -9.895   9.063  66.306  1.00  0.00    -0.361 C  
BRANCH  10  11
HETATM   11  C   UNL     1     -10.477   8.318  67.498  1.00  0.00    -0.325 C  
BRANCH  11  12
HETATM   12  C   UNL     1     -11.028   6.971  67.061  1.00  0.00    -0.287 C  
BRANCH  12  13
HETATM   13  O   UNL     1     -11.037   6.109  68.192  1.00  0.00    -0.332 OA 
BRANCH  13  14
HETATM   14  C   UNL     1      -9.850   5.324  68.235  1.00  0.00    -0.155 C  
BRANCH  14  15
HETATM   15  C   UNL     1      -9.586   4.895  69.668  1.00  0.00    -0.173 C  
BRANCH  15  16
HETATM   16  O   UNL     1     -10.766   5.130  70.427  1.00  0.00    -0.214 OA 
BRANCH  16  17
HETATM   17  C   UNL     1     -10.464   5.325  71.805  1.00  0.00    -0.214 C  
BRANCH  17  18
HETATM   18  C   UNL     1     -11.434   6.349  72.370  1.00  0.00    -0.282 C  
BRANCH  18  19
HETATM   19  O   UNL     1     -12.228   6.866  71.310  1.00  0.00    -0.349 OA 
BRANCH  19  20
HETATM   20  C   UNL     1     -12.225   8.295  71.300  1.00  0.00    -0.270 C  
BRANCH  20  21
HETATM   21  C   UNL     1     -13.437   8.789  72.080  1.00  0.00    -0.427 C  
BRANCH  21  22
HETATM   22  O   UNL     1     -13.452  10.219  72.047  1.00  0.00    -0.393 OA 
BRANCH  22  23
HETATM   23  C   UNL     1     -12.618  10.726  71.011  1.00  0.00    -0.420 C  
BRANCH  23  24
HETATM   24  C   UNL     1     -12.598  12.244  71.092  1.00  0.00    -0.253 C  
BRANCH  24  25
HETATM   25  O   UNL     1     -13.232  12.647  72.303  1.00  0.00    -0.476 OA 
BRANCH  25  26
HETATM   26  C   UNL     1     -13.415  14.056  72.346  1.00  0.00    -0.539 C  
BRANCH  26  27
HETATM   27  C   UNL     1     -12.141  14.732  71.860  1.00  0.00    -0.335 C  
BRANCH  27  28
HETATM   28  O   UNL     1     -12.486  15.840  71.035  1.00  0.00    -0.428 OA 
BRANCH  28  29
HETATM   29  C   UNL     1     -12.011  15.657  69.706  1.00  0.00    -0.354 C  
BRANCH  29  30
HETATM   30  C   UNL     1     -10.666  16.351  69.563  1.00  0.00    -0.325 C  
BRANCH  30  31
HETATM   31  O   UNL     1      -9.630  15.380  69.676  1.00  0.00    -0.262 OA 
BRANCH  31  32
HETATM   32  C   UNL     1      -8.418  15.846  69.088  1.00  0.00    -0.254 C  
BRANCH  32  33
HETATM   33  C   UNL     1      -8.729  16.455  67.729  1.00  0.00    -0.180 C  
BRANCH  33  34
HETATM   34  O   UNL     1      -7.626  17.252  67.308  1.00  0.00    -0.171 OA 
BRANCH  34  35
HETATM   35  C   UNL     1      -7.440  18.377  68.162  1.00  0.00    -0.267 C  
BRANCH  35  36
HETATM   36  C   UNL     1      -7.321  19.631  67.308  1.00  0.00    -0.229 C  
BRANCH  36  37
HETATM   37  O   UNL     1      -8.488  20.439  67.473  1.00  0.00    -0.327 OA 
BRANCH  37  38
HETATM   38  C   UNL     1      -9.492  20.088  66.512  1.00  0.00    -0.404 C  
BRANCH  38  39
HETATM   39  C   UNL     1     -10.706  19.551  67.262  1.00  0.00    -0.484 C  
HETATM   40  O   UNL     1     -10.621  19.907  68.641  1.00  0.00    -0.510 OA 
HETATM   41  H   UNL     1     -11.377  19.572  69.108  1.00  0.00     0.000 HD 
ENDBRANCH  38  39
ENDBRANCH  37  38
ENDBRANCH  36  37
ENDBRANCH  35  36
ENDBRANCH  34  35
ENDBRANCH  33  34
ENDBRANCH  32  33
ENDBRANCH  31  32
ENDBRANCH  30  31
ENDBRANCH  29  30
ENDBRANCH  28  29
ENDBRANCH  27  28
ENDBRANCH  26  27
ENDBRANCH  25  26
ENDBRANCH  24  25
ENDBRANCH  23  24
ENDBRANCH  22  23
ENDBRANCH  21  22
ENDBRANCH  20  21
ENDBRANCH  19  20
ENDBRANCH  18  19
ENDBRANCH  17  18
ENDBRANCH  16  17
ENDBRANCH  15  16
ENDBRANCH  14  15
ENDBRANCH  13  14
ENDBRANCH  12  13
ENDBRANCH  11  12
ENDBRANCH  10  11
ENDBRANCH   9  10
ENDBRANCH   8   9
ENDBRANCH   7   8
ENDBRANCH   6   7
ENDBRANCH   5   6
ENDBRANCH   4   5
ENDBRANCH   3   4
ENDBRANCH   2   3
TORSDOF 37
ENDMDL
MODEL        3
REMARK 921   NORMALIZED FREE ENERGY PREDICTED BY IDOCK:   -4.23 KCAL/MOL
REMARK 922        TOTAL FREE ENERGY PREDICTED BY IDOCK:  -16.99 KCAL/MOL
REMARK 923 INTER-LIGAND FREE ENERGY PREDICTED BY IDOCK:  -13.19 KCAL/MOL
REMARK 924 INTRA-LIGAND FREE ENERGY PREDICTED BY IDOCK:   -3.80 KCAL/MOL
REMARK 927      BINDING AFFINITY PREDICTED BY RF-SCORE:    0.00 PKD
ROOT
HETATM    1  C   UNL     1      -8.300   6.511  67.911  1.00  0.00    -0.115 C  
HETATM    2  C   UNL     1      -9.598   6.416  67.128  1.00  0.00    -0.157 C  
ENDROOT
BRANCH   2   3
HETATM    3  C   UNL     1     -10.806   6.597  68.043  1.00  0.00    -0.345 C  
BRANCH   3   4
HETATM    4  C   UNL     1     -10.746   5.642  69.233  1.00  0.00    -0.350 C  
BRANCH   4   5
HETATM    5  C   UNL     1     -11.451   6.245  70.446  1.00  0.00    -0.414 C  
BRANCH   5   6
HETATM    6  C   UNL     1     -10.450   6.584  71.545  1.00  0.00    -0.245 C  
BRANCH   6   7
HETATM    7  C   UNL     1     -10.808   7.909  72.211  1.00  0.00    -0.353 C  
BRANCH   7   8
HETATM    8  C   UNL     1     -10.193   9.076  71.449  1.00  0.00    -0.399 C  
BRANCH   8   9
HETATM    9  C   UNL     1      -8.752   8.771  71.054  1.00  0.00    -0.248 C  
BRANCH   9  10
HETATM   10  C   UNL     1      -8.323   9.665  69.898  1.00  0.00    -0.195 C  
BRANCH  10  11
HETATM   11  C   UNL     1      -9.526  10.299  69.216  1.00  0.00    -0.230 C  
BRANCH  11  12
HETATM   12  C   UNL     1      -9.389  10.202  67.706  1.00  0.00    -0.141 C  
BRANCH  12  13
HETATM   13  O   UNL     1      -8.750  11.386  67.243  1.00  0.00    -0.141 OA 
BRANCH  13  14
HETATM   14  C   UNL     1      -9.208  11.727  65.939  1.00  0.00    -0.170 C  
BRANCH  14  15
HETATM   15  C   UNL     1      -9.999  10.564  65.367  1.00  0.00    -0.289 C  
BRANCH  15  16
HETATM   16  O   UNL     1     -11.131  11.090  64.683  1.00  0.00    -0.182 OA 
BRANCH  16  17
HETATM   17  C   UNL     1     -10.742  12.011  63.670  1.00  0.00    -0.449 C  
BRANCH  17  18
HETATM   18  C   UNL     1     -11.928  12.907  63.351  1.00  0.00    -0.537 C  
BRANCH  18  19
HETATM   19  O   UNL     1     -12.572  13.267  64.567  1.00  0.00    -0.599 OA 
BRANCH  19  20
HETATM   20  C   UNL     1     -12.058  14.493  65.090  1.00  0.00    -0.363 C  
BRANCH  20  21
HETATM   21  C   UNL     1     -12.190  15.571  64.021  1.00  0.00     0.108 C  
BRANCH  21  22
HETATM   22  O   UNL     1     -11.338  16.666  64.367  1.00  0.00    -1.023 OA 
BRANCH  22  23
HETATM   23  C   UNL     1     -10.630  16.416  65.575  1.00  0.00    -0.330 C  
BRANCH  23  24
HETATM   24  C   UNL     1     -10.394  17.736  66.292  1.00  0.00    -0.358 C  
BRANCH  24  25
HETATM   25  O   UNL     1      -9.086  18.202  65.975  1.00  0.00    -0.513 OA 
BRANCH  25  26
HETATM   26  C   UNL     1      -8.087  17.376  66.561  1.00  0.00    -0.277 C  
BRANCH  26  27
HETATM   27  C   UNL     1      -7.844  17.840  67.990  1.00  0.00    -0.241 C  
BRANCH  27  28
HETATM   28  O   UNL     1      -7.445  16.725  68.780  1.00  0.00    -0.206 OA 
BRANCH  28  29
HETATM   29  C   UNL     1      -8.201  15.565  68.450  1.00  0.00    -0.145 C  
BRANCH  29  30
HETATM   30  C   UNL     1      -9.221  15.311  69.548  1.00  0.00    -0.194 C  
BRANCH  30  31
HETATM   31  O   UNL     1     -10.475  14.995  68.952  1.00  0.00    -0.226 OA 
BRANCH  31  32
HETATM   32  C   UNL     1     -11.542  15.691  69.590  1.00  0.00    -0.356 C  
BRANCH  32  33
HETATM   33  C   UNL     1     -11.260  15.768  71.084  1.00  0.00    -0.326 C  
BRANCH  33  34
HETATM   34  O   UNL     1     -12.468  16.073  71.774  1.00  0.00    -0.459 OA 
BRANCH  34  35
HETATM   35  C   UNL     1     -12.803  15.054  72.713  1.00  0.00    -0.410 C  
BRANCH  35  36
HETATM   36  C   UNL     1     -14.113  14.404  72.288  1.00  0.00    -0.516 C  
BRANCH  36  37
HETATM   37  O   UNL     1     -14.069  13.004  72.570  1.00  0.00    -0.621 OA 
BRANCH  37  38
HETATM   38  C   UNL     1     -13.252  12.316  71.615  1.00  0.00    -0.257 C  
BRANCH  38  39
HETATM   39  C   UNL     1     -13.310  10.823  71.922  1.00  0.00    -0.340 C  
HETATM   40  O   UNL     1     -13.347  10.078  70.706  1.00  0.00    -0.573 OA 
HETATM   41  H   UNL     1     -13.383   9.149  70.897  1.00  0.00     0.000 HD 
ENDBRANCH  38  39
ENDBRANCH  37  38
ENDBRANCH  36  37
ENDBRANCH  35  36
ENDBRANCH  34  35
ENDBRANCH  33  34
ENDBRANCH  32  33
ENDBRANCH  31  32
ENDBRANCH  30  31
ENDBRANCH  29  30
ENDBRANCH  28  29
ENDBRANCH  27  28
ENDBRANCH  26  27
ENDBRANCH  25  26
ENDBRANCH  24  25
ENDBRANCH  23  24
ENDBRANCH  22  23
ENDBRANCH  21  22
ENDBRANCH  20  21
ENDBRANCH  19  20
ENDBRANCH  18  19
ENDBRANCH  17  18
ENDBRANCH  16  17
ENDBRANCH  15  16
ENDBRANCH  14  15
ENDBRANCH  13  14
ENDBRANCH  12  13
ENDBRANCH  11  12
ENDBRANCH  10  11
ENDBRANCH   9  10
ENDBRANCH   8   9
ENDBRANCH   7   8
ENDBRANCH   6   7
ENDBRANCH   5   6
ENDBRANCH   4   5
ENDBRANCH   3   4
ENDBRANCH   2   3
TORSDOF 37
ENDMDL
MODEL        4
REMARK 921   NORMALIZED FREE ENERGY PREDICTED BY IDOCK:   -4.14 KCAL/MOL
REMARK 922        TOTAL FREE ENERGY PREDICTED BY IDOCK:  -16.71 KCAL/MOL
REMARK 923 INTER-LIGAND FREE ENERGY PREDICTED BY IDOCK:  -13.30 KCAL/MOL
REMARK 924 INTRA-LIGAND FREE ENERGY PREDICTED BY IDOCK:   -3.41 KCAL/MOL
REMARK 927      BINDING AFFINITY PREDICTED BY RF-SCORE:    0.00 PKD
ROOT
HETATM    1  C   UNL     1     -11.103   2.787  73.565  1.00  0.00    -0.315 C  
HETATM    2  C   UNL     1     -11.467   4.249  73.365  1.00  0.00    -0.267 C  
ENDROOT
BRANCH   2   3
HETATM    3  C   UNL     1     -10.544   5.159  74.170  1.00  0.00    -0.322 C  
BRANCH   3   4
HETATM    4  C   UNL     1      -9.763   6.102  73.258  1.00  0.00    -0.159 C  
BRANCH   4   5
HETATM    5  C   UNL     1      -9.879   5.665  71.800  1.00  0.00    -0.208 C  
BRANCH   5   6
HETATM    6  C   UNL     1     -10.361   6.815  70.923  1.00  0.00    -0.222 C  
BRANCH   6   7
HETATM    7  C   UNL     1     -11.764   6.539  70.393  1.00  0.00    -0.439 C  
BRANCH   7   8
HETATM    8  C   UNL     1     -12.813   7.171  71.298  1.00  0.00    -0.399 C  
BRANCH   8   9
HETATM    9  C   UNL     1     -12.364   8.548  71.777  1.00  0.00    -0.388 C  
BRANCH   9  10
HETATM   10  C   UNL     1     -13.503   9.550  71.641  1.00  0.00    -0.463 C  
BRANCH  10  11
HETATM   11  C   UNL     1     -12.989  10.912  71.201  1.00  0.00    -0.449 C  
BRANCH  11  12
HETATM   12  C   UNL     1     -11.776  10.753  70.300  1.00  0.00    -0.352 C  
BRANCH  12  13
HETATM   13  O   UNL     1     -12.205  10.897  68.952  1.00  0.00    -0.494 OA 
BRANCH  13  14
HETATM   14  C   UNL     1     -11.092  10.869  68.065  1.00  0.00    -0.293 C  
BRANCH  14  15
HETATM   15  C   UNL     1     -10.084   9.846  68.558  1.00  0.00    -0.168 C  
BRANCH  15  16
HETATM   16  O   UNL     1     -10.374   8.600  67.935  1.00  0.00    -0.215 OA 
BRANCH  16  17
HETATM   17  C   UNL     1     -10.242   8.685  66.521  1.00  0.00    -0.225 C  
BRANCH  17  18
HETATM   18  C   UNL     1      -8.840   8.237  66.140  1.00  0.00    -0.167 C  
BRANCH  18  19
HETATM   19  O   UNL     1      -8.505   8.795  64.876  1.00  0.00    -0.165 OA 
BRANCH  19  20
HETATM   20  C   UNL     1      -9.385   9.866  64.526  1.00  0.00    -0.275 C  
BRANCH  20  21
HETATM   21  C   UNL     1      -8.969  10.412  63.166  1.00  0.00    -0.239 C  
BRANCH  21  22
HETATM   22  O   UNL     1      -9.848  11.485  62.814  1.00  0.00    -0.307 OA 
BRANCH  22  23
HETATM   23  C   UNL     1     -10.784  11.753  63.851  1.00  0.00    -0.399 C  
BRANCH  23  24
HETATM   24  C   UNL     1     -12.176  11.852  63.245  1.00  0.00    -0.374 C  
BRANCH  24  25
HETATM   25  O   UNL     1     -13.081  12.304  64.249  1.00  0.00    -0.746 OA 
BRANCH  25  26
HETATM   26  C   UNL     1     -12.385  12.817  65.378  1.00  0.00    -0.470 C  
BRANCH  26  27
HETATM   27  C   UNL     1     -12.785  14.271  65.580  1.00  0.00    -0.373 C  
BRANCH  27  28
HETATM   28  O   UNL     1     -12.592  14.981  64.361  1.00  0.00    -0.546 OA 
BRANCH  28  29
HETATM   29  C   UNL     1     -11.235  15.388  64.213  1.00  0.00    -0.056 C  
BRANCH  29  30
HETATM   30  C   UNL     1     -10.895  16.381  65.313  1.00  0.00    -0.258 C  
BRANCH  30  31
HETATM   31  O   UNL     1      -9.495  16.328  65.568  1.00  0.00    -0.451 OA 
BRANCH  31  32
HETATM   32  C   UNL     1      -9.213  15.604  66.763  1.00  0.00    -0.251 C  
BRANCH  32  33
HETATM   33  C   UNL     1      -9.429  16.521  67.959  1.00  0.00    -0.222 C  
BRANCH  33  34
HETATM   34  O   UNL     1      -9.989  15.768  69.032  1.00  0.00    -0.208 OA 
BRANCH  34  35
HETATM   35  C   UNL     1     -11.411  15.854  69.042  1.00  0.00    -0.380 C  
BRANCH  35  36
HETATM   36  C   UNL     1     -11.988  14.464  69.269  1.00  0.00    -0.324 C  
BRANCH  36  37
HETATM   37  O   UNL     1     -13.014  14.524  70.261  1.00  0.00    -0.289 OA 
BRANCH  37  38
HETATM   38  C   UNL     1     -12.674  15.461  71.291  1.00  0.00    -0.436 C  
BRANCH  38  39
HETATM   39  C   UNL     1     -12.755  14.746  72.635  1.00  0.00    -0.384 C  
HETATM   40  O   UNL     1     -13.771  15.341  73.441  1.00  0.00    -0.601 OA 
HETATM   41  H   UNL     1     -13.822  14.895  74.278  1.00  0.00     0.000 HD 
ENDBRANCH  38  39
ENDBRANCH  37  38
ENDBRANCH  36  37
ENDBRANCH  35  36
ENDBRANCH  34  35
ENDBRANCH  33  34
ENDBRANCH  32  33
ENDBRANCH  31  32
ENDBRANCH  30  31
ENDBRANCH  29  30
ENDBRANCH  28  29
ENDBRANCH  27  28
ENDBRANCH  26  27
ENDBRANCH  25  26
ENDBRANCH  24  25
ENDBRANCH  23  24
ENDBRANCH  22  23
ENDBRANCH  21  22
ENDBRANCH  20  21
ENDBRANCH  19  20
ENDBRANCH  18  19
ENDBRANCH  17  18
ENDBRANCH  16  17
ENDBRANCH  15  16
ENDBRANCH  14  15
ENDBRANCH  13  14
ENDBRANCH  12  13
ENDBRANCH  11  12
ENDBRANCH  10  11
ENDBRANCH   9  10
ENDBRANCH   8   9
ENDBRANCH   7   8
ENDBRANCH   6   7
ENDBRANCH   5   6
ENDBRANCH   4   5
ENDBRANCH   3   4
ENDBRANCH   2   3
TORSDOF 37
ENDMDL
MODEL        5
REMARK 921   NORMALIZED FREE ENERGY PREDICTED BY IDOCK:   -4.11 KCAL/MOL
REMARK 922        TOTAL FREE ENERGY PREDICTED BY IDOCK:  -16.61 KCAL/MOL
REMARK 923 INTER-LIGAND FREE ENERGY PREDICTED BY IDOCK:  -13.05 KCAL/MOL
REMARK 924 INTRA-LIGAND FREE ENERGY PREDICTED BY IDOCK:   -3.56 KCAL/MOL
REMARK 927      BINDING AFFINITY PREDICTED BY RF-SCORE:    0.00 PKD
ROOT
HETATM    1  C   UNL     1      -6.961   6.234  65.789  1.00  0.00    -0.057 C  
HETATM    2  C   UNL     1      -8.431   6.065  65.446  1.00  0.00    -0.145 C  
ENDROOT
BRANCH   2   3
HETATM    3  C   UNL     1      -9.038   4.883  66.197  1.00  0.00    -0.135 C  
BRANCH   3   4
HETATM    4  C   UNL     1     -10.554   5.020  66.313  1.00  0.00    -0.332 C  
BRANCH   4   5
HETATM    5  C   UNL     1     -10.934   6.404  66.835  1.00  0.00    -0.413 C  
BRANCH   5   6
HETATM    6  C   UNL     1     -11.031   6.406  68.356  1.00  0.00    -0.390 C  
BRANCH   6   7
HETATM    7  C   UNL     1      -9.786   7.032  68.975  1.00  0.00    -0.154 C  
BRANCH   7   8
HETATM    8  C   UNL     1      -9.005   5.997  69.774  1.00  0.00    -0.135 C  
BRANCH   8   9
HETATM    9  C   UNL     1      -9.816   4.716  69.947  1.00  0.00    -0.296 C  
BRANCH   9  10
HETATM   10  C   UNL     1      -9.903   4.344  71.422  1.00  0.00    -0.262 C  
BRANCH  10  11
HETATM   11  C   UNL     1     -10.144   5.572  72.286  1.00  0.00    -0.225 C  
BRANCH  11  12
HETATM   12  C   UNL     1     -11.631   5.869  72.380  1.00  0.00    -0.288 C  
BRANCH  12  13
HETATM   13  O   UNL     1     -11.869   7.134  71.774  1.00  0.00    -0.277 OA 
BRANCH  13  14
HETATM   14  C   UNL     1     -13.225   7.244  71.356  1.00  0.00    -0.346 C  
BRANCH  14  15
HETATM   15  C   UNL     1     -13.827   8.510  71.940  1.00  0.00    -0.424 C  
BRANCH  15  16
HETATM   16  O   UNL     1     -12.779   9.454  72.129  1.00  0.00    -0.384 OA 
BRANCH  16  17
HETATM   17  C   UNL     1     -13.219  10.778  71.846  1.00  0.00    -0.419 C  
BRANCH  17  18
HETATM   18  C   UNL     1     -12.454  11.292  70.637  1.00  0.00    -0.348 C  
BRANCH  18  19
HETATM   19  O   UNL     1     -11.291  10.493  70.455  1.00  0.00    -0.303 OA 
BRANCH  19  20
HETATM   20  C   UNL     1     -10.880  10.470  69.086  1.00  0.00    -0.237 C  
BRANCH  20  21
HETATM   21  C   UNL     1     -10.951  11.888  68.533  1.00  0.00    -0.235 C  
BRANCH  21  22
HETATM   22  O   UNL     1     -10.390  11.895  67.217  1.00  0.00    -0.202 OA 
BRANCH  22  23
HETATM   23  C   UNL     1     -10.491  10.617  66.600  1.00  0.00    -0.237 C  
BRANCH  23  24
HETATM   24  C   UNL     1      -9.692  10.630  65.305  1.00  0.00    -0.259 C  
BRANCH  24  25
HETATM   25  O   UNL     1      -9.821  11.914  64.701  1.00  0.00    -0.245 OA 
BRANCH  25  26
HETATM   26  C   UNL     1     -10.468  11.828  63.438  1.00  0.00    -0.434 C  
BRANCH  26  27
HETATM   27  C   UNL     1     -11.740  12.661  63.480  1.00  0.00    -0.531 C  
BRANCH  27  28
HETATM   28  O   UNL     1     -11.772  13.401  64.696  1.00  0.00    -0.343 OA 
BRANCH  28  29
HETATM   29  C   UNL     1     -12.161  14.751  64.466  1.00  0.00    -0.446 C  
BRANCH  29  30
HETATM   30  C   UNL     1     -11.077  15.674  64.999  1.00  0.00    -0.389 C  
BRANCH  30  31
HETATM   31  O   UNL     1      -9.946  14.894  65.372  1.00  0.00    -0.349 OA 
BRANCH  31  32
HETATM   32  C   UNL     1      -9.365  15.370  66.584  1.00  0.00    -0.263 C  
BRANCH  32  33
HETATM   33  C   UNL     1     -10.435  16.083  67.398  1.00  0.00    -0.308 C  
BRANCH  33  34
HETATM   34  O   UNL     1     -10.578  15.432  68.657  1.00  0.00    -0.228 OA 
BRANCH  34  35
HETATM   35  C   UNL     1     -11.747  15.874  69.342  1.00  0.00    -0.343 C  
BRANCH  35  36
HETATM   36  C   UNL     1     -11.908  15.060  70.618  1.00  0.00    -0.313 C  
BRANCH  36  37
HETATM   37  O   UNL     1     -13.109  15.446  71.287  1.00  0.00    -0.427 OA 
BRANCH  37  38
HETATM   38  C   UNL     1     -13.379  14.578  72.396  1.00  0.00    -0.433 C  
BRANCH  38  39
HETATM   39  C   UNL     1     -12.675  15.141  73.626  1.00  0.00    -0.546 C  
HETATM   40  O   UNL     1     -13.324  16.339  74.051  1.00  0.00    -0.948 OA 
HETATM   41  H   UNL     1     -12.886  16.689  74.818  1.00  0.00     0.000 HD 
ENDBRANCH  38  39
ENDBRANCH  37  38
ENDBRANCH  36  37
ENDBRANCH  35  36
ENDBRANCH  34  35
ENDBRANCH  33  34
ENDBRANCH  32  33
ENDBRANCH  31  32
ENDBRANCH  30  31
ENDBRANCH  29  30
ENDBRANCH  28  29
ENDBRANCH  27  28
ENDBRANCH  26  27
ENDBRANCH  25  26
ENDBRANCH  24  25
ENDBRANCH  23  24
ENDBRANCH  22  23
ENDBRANCH  21  22
ENDBRANCH  20  21
ENDBRANCH  19  20
ENDBRANCH  18  19
ENDBRANCH  17  18
ENDBRANCH  16  17
ENDBRANCH  15  16
ENDBRANCH  14  15
ENDBRANCH  13  14
ENDBRANCH  12  13
ENDBRANCH  11  12
ENDBRANCH  10  11
ENDBRANCH   9  10
ENDBRANCH   8   9
ENDBRANCH   7   8
ENDBRANCH   6   7
ENDBRANCH   5   6
ENDBRANCH   4   5
ENDBRANCH   3   4
ENDBRANCH   2   3
TORSDOF 37
ENDMDL
MODEL        6
REMARK 921   NORMALIZED FREE ENERGY PREDICTED BY IDOCK:   -4.09 KCAL/MOL
REMARK 922        TOTAL FREE ENERGY PREDICTED BY IDOCK:  -16.54 KCAL/MOL
REMARK 923 INTER-LIGAND FREE ENERGY PREDICTED BY IDOCK:  -13.23 KCAL/MOL
REMARK 924 INTRA-LIGAND FREE ENERGY PREDICTED BY IDOCK:   -3.31 KCAL/MOL
REMARK 927      BINDING AFFINITY PREDICTED BY RF-SCORE:    0.00 PKD
ROOT
HETATM    1  C   UNL     1      -7.091   9.902  64.254  1.00  0.00    -0.131 C  
HETATM    2  C   UNL     1      -8.427  10.416  64.763  1.00  0.00    -0.176 C  
ENDROOT
BRANCH   2   3
HETATM    3  C   UNL     1      -9.499  10.323  63.681  1.00  0.00    -0.348 C  
BRANCH   3   4
HETATM    4  C   UNL     1     -10.100  11.693  63.377  1.00  0.00    -0.468 C  
BRANCH   4   5
HETATM    5  C   UNL     1     -11.623  11.648  63.465  1.00  0.00    -0.408 C  
BRANCH   5   6
HETATM    6  C   UNL     1     -12.206  13.054  63.545  1.00  0.00    -0.580 C  
BRANCH   6   7
HETATM    7  C   UNL     1     -11.616  13.817  64.727  1.00  0.00    -0.377 C  
BRANCH   7   8
HETATM    8  C   UNL     1     -12.501  13.667  65.958  1.00  0.00    -0.477 C  
BRANCH   8   9
HETATM    9  C   UNL     1     -11.673  13.288  67.181  1.00  0.00    -0.425 C  
BRANCH   9  10
HETATM   10  C   UNL     1     -10.976  11.953  66.953  1.00  0.00    -0.335 C  
BRANCH  10  11
HETATM   11  C   UNL     1     -11.509  10.885  67.896  1.00  0.00    -0.344 C  
BRANCH  11  12
HETATM   12  C   UNL     1     -10.628   9.649  67.846  1.00  0.00    -0.255 C  
BRANCH  12  13
HETATM   13  O   UNL     1     -10.663   9.028  69.126  1.00  0.00    -0.222 OA 
BRANCH  13  14
HETATM   14  C   UNL     1      -9.711   7.973  69.199  1.00  0.00    -0.163 C  
BRANCH  14  15
HETATM   15  C   UNL     1     -10.314   6.807  69.962  1.00  0.00    -0.199 C  
BRANCH  15  16
HETATM   16  O   UNL     1      -9.839   6.860  71.303  1.00  0.00    -0.176 OA 
BRANCH  16  17
HETATM   17  C   UNL     1     -10.883   7.204  72.208  1.00  0.00    -0.232 C  
BRANCH  17  18
HETATM   18  C   UNL     1     -12.201   6.712  71.633  1.00  0.00    -0.352 C  
BRANCH  18  19
HETATM   19  O   UNL     1     -13.187   7.721  71.814  1.00  0.00    -0.328 OA 
BRANCH  19  20
HETATM   20  C   UNL     1     -12.594   8.988  72.106  1.00  0.00    -0.391 C  
BRANCH  20  21
HETATM   21  C   UNL     1     -13.248  10.045  71.225  1.00  0.00    -0.383 C  
BRANCH  21  22
HETATM   22  O   UNL     1     -12.698  11.323  71.559  1.00  0.00    -0.397 OA 
BRANCH  22  23
HETATM   23  C   UNL     1     -13.663  12.159  72.186  1.00  0.00    -0.047 C  
BRANCH  23  24
HETATM   24  C   UNL     1     -13.253  13.612  72.002  1.00  0.00    -0.434 C  
BRANCH  24  25
HETATM   25  O   UNL     1     -13.117  14.215  73.286  1.00  0.00    -0.551 OA 
BRANCH  25  26
HETATM   26  C   UNL     1     -12.618  15.543  73.182  1.00  0.00    -0.468 C  
BRANCH  26  27
HETATM   27  C   UNL     1     -12.631  15.958  71.718  1.00  0.00    -0.434 C  
BRANCH  27  28
HETATM   28  O   UNL     1     -11.289  16.102  71.264  1.00  0.00    -0.384 OA 
BRANCH  28  29
HETATM   29  C   UNL     1     -11.201  15.908  69.856  1.00  0.00    -0.348 C  
BRANCH  29  30
HETATM   30  C   UNL     1      -9.745  15.683  69.479  1.00  0.00    -0.287 C  
BRANCH  30  31
HETATM   31  O   UNL     1      -9.546  16.095  68.131  1.00  0.00    -0.213 OA 
BRANCH  31  32
HETATM   32  C   UNL     1     -10.710  16.730  67.607  1.00  0.00    -0.305 C  
BRANCH  32  33
HETATM   33  C   UNL     1     -10.288  17.950  66.801  1.00  0.00    -0.355 C  
BRANCH  33  34
HETATM   34  O   UNL     1     -10.745  19.128  67.461  1.00  0.00    -0.462 OA 
BRANCH  34  35
HETATM   35  C   UNL     1      -9.694  19.759  68.186  1.00  0.00    -0.398 C  
BRANCH  35  36
HETATM   36  C   UNL     1      -8.681  20.321  67.199  1.00  0.00    -0.339 C  
BRANCH  36  37
HETATM   37  O   UNL     1      -7.360  19.957  67.604  1.00  0.00    -0.263 OA 
BRANCH  37  38
HETATM   38  C   UNL     1      -7.363  19.423  68.934  1.00  0.00    -0.367 C  
BRANCH  38  39
HETATM   39  C   UNL     1      -6.426  18.221  68.969  1.00  0.00    -0.246 C  
HETATM   40  O   UNL     1      -6.890  17.217  68.068  1.00  0.00    -0.162 OA 
HETATM   41  H   UNL     1      -6.306  16.468  68.090  1.00  0.00     0.000 HD 
ENDBRANCH  38  39
ENDBRANCH  37  38
ENDBRANCH  36  37
ENDBRANCH  35  36
ENDBRANCH  34  35
ENDBRANCH  33  34
ENDBRANCH  32  33
ENDBRANCH  31  32
ENDBRANCH  30  31
ENDBRANCH  29  30
ENDBRANCH  28  29
ENDBRANCH  27  28
ENDBRANCH  26  27
ENDBRANCH  25  26
ENDBRANCH  24  25
ENDBRANCH  23  24
ENDBRANCH  22  23
ENDBRANCH  21  22
ENDBRANCH  20  21
ENDBRANCH  19  20
ENDBRANCH  18  19
ENDBRANCH  17  18
ENDBRANCH  16  17
ENDBRANCH  15  16
ENDBRANCH  14  15
ENDBRANCH  13  14
ENDBRANCH  12  13
ENDBRANCH  11  12
ENDBRANCH  10  11
ENDBRANCH   9  10
ENDBRANCH   8   9
ENDBRANCH   7   8
ENDBRANCH   6   7
ENDBRANCH   5   6
ENDBRANCH   4   5
ENDBRANCH   3   4
ENDBRANCH   2   3
TORSDOF 37
ENDMDL
MODEL        7
REMARK 921   NORMALIZED FREE ENERGY PREDICTED BY IDOCK:   -4.06 KCAL/MOL
REMARK 922        TOTAL FREE ENERGY PREDICTED BY IDOCK:  -16.48 KCAL/MOL
REMARK 923 INTER-LIGAND FREE ENERGY PREDICTED BY IDOCK:  -12.91 KCAL/MOL
REMARK 924 INTRA-LIGAND FREE ENERGY PREDICTED BY IDOCK:   -3.57 KCAL/MOL
REMARK 927      BINDING AFFINITY PREDICTED BY RF-SCORE:    0.00 PKD
ROOT
HETATM    1  C   UNL     1     -12.457  16.291  74.296  1.00  0.00    -0.631 C  
HETATM    2  C   UNL     1     -12.910  15.021  73.596  1.00  0.00    -0.583 C  
ENDROOT
BRANCH   2   3
HETATM    3  C   UNL     1     -13.469  15.329  72.209  1.00  0.00    -0.552 C  
BRANCH   3   4
HETATM    4  C   UNL     1     -13.367  14.114  71.289  1.00  0.00    -0.370 C  
BRANCH   4   5
HETATM    5  C   UNL     1     -13.445  12.819  72.093  1.00  0.00    -0.591 C  
BRANCH   5   6
HETATM    6  C   UNL     1     -12.804  11.665  71.331  1.00  0.00    -0.461 C  
BRANCH   6   7
HETATM    7  C   UNL     1     -11.888  12.189  70.230  1.00  0.00    -0.339 C  
BRANCH   7   8
HETATM    8  C   UNL     1     -12.080  11.391  68.947  1.00  0.00    -0.285 C  
BRANCH   8   9
HETATM    9  C   UNL     1     -11.154  10.179  68.915  1.00  0.00    -0.251 C  
BRANCH   9  10
HETATM   10  C   UNL     1     -10.635   9.950  67.501  1.00  0.00    -0.333 C  
BRANCH  10  11
HETATM   11  C   UNL     1     -10.368  11.270  66.792  1.00  0.00    -0.278 C  
BRANCH  11  12
HETATM   12  C   UNL     1      -9.713  11.022  65.444  1.00  0.00    -0.232 C  
BRANCH  12  13
HETATM   13  O   UNL     1      -9.824  12.212  64.673  1.00  0.00    -0.222 OA 
BRANCH  13  14
HETATM   14  C   UNL     1     -10.535  11.964  63.465  1.00  0.00    -0.459 C  
BRANCH  14  15
HETATM   15  C   UNL     1     -12.016  12.210  63.697  1.00  0.00    -0.534 C  
BRANCH  15  16
HETATM   16  O   UNL     1     -12.310  13.548  63.314  1.00  0.00    -0.709 OA 
BRANCH  16  17
HETATM   17  C   UNL     1     -12.144  14.447  64.405  1.00  0.00    -0.470 C  
BRANCH  17  18
HETATM   18  C   UNL     1     -12.910  13.903  65.600  1.00  0.00    -0.424 C  
BRANCH  18  19
HETATM   19  O   UNL     1     -12.150  14.136  66.779  1.00  0.00    -0.429 OA 
BRANCH  19  20
HETATM   20  C   UNL     1     -11.142  15.127  66.566  1.00  0.00    -0.305 C  
BRANCH  20  21
HETATM   21  C   UNL     1     -10.918  15.880  67.871  1.00  0.00    -0.327 C  
BRANCH  21  22
HETATM   22  O   UNL     1     -10.768  17.272  67.577  1.00  0.00    -0.345 OA 
BRANCH  22  23
HETATM   23  C   UNL     1     -10.450  17.485  66.207  1.00  0.00    -0.283 C  
BRANCH  23  24
HETATM   24  C   UNL     1     -10.526  18.975  65.908  1.00  0.00    -0.399 C  
BRANCH  24  25
HETATM   25  O   UNL     1      -9.634  19.662  66.781  1.00  0.00    -0.327 OA 
BRANCH  25  26
HETATM   26  C   UNL     1      -8.374  19.887  66.160  1.00  0.00    -0.317 C  
BRANCH  26  27
HETATM   27  C   UNL     1      -7.460  20.595  67.148  1.00  0.00    -0.330 C  
BRANCH  27  28
HETATM   28  O   UNL     1      -6.210  19.914  67.197  1.00  0.00    -0.183 OA 
BRANCH  28  29
HETATM   29  C   UNL     1      -6.396  18.511  67.353  1.00  0.00    -0.193 C  
BRANCH  29  30
HETATM   30  C   UNL     1      -6.837  18.228  68.781  1.00  0.00    -0.260 C  
BRANCH  30  31
HETATM   31  O   UNL     1      -7.682  17.082  68.785  1.00  0.00    -0.234 OA 
BRANCH  31  32
HETATM   32  C   UNL     1      -7.003  15.937  68.276  1.00  0.00    -0.117 C  
BRANCH  32  33
HETATM   33  C   UNL     1      -7.540  14.694  68.970  1.00  0.00    -0.136 C  
BRANCH  33  34
HETATM   34  O   UNL     1      -6.757  13.567  68.585  1.00  0.00    -0.081 OA 
BRANCH  34  35
HETATM   35  C   UNL     1      -7.213  13.013  67.354  1.00  0.00    -0.116 C  
BRANCH  35  36
HETATM   36  C   UNL     1      -6.247  11.919  66.918  1.00  0.00    -0.115 C  
BRANCH  36  37
HETATM   37  O   UNL     1      -5.999  11.033  68.010  1.00  0.00    -0.049 OA 
BRANCH  37  38
HETATM   38  C   UNL     1      -7.005  10.014  68.080  1.00  0.00    -0.075 C  
BRANCH  38  39
HETATM   39  C   UNL     1      -7.355   9.788  69.547  1.00  0.00    -0.092 C  
HETATM   40  O   UNL     1      -7.149  10.990  70.287  1.00  0.00    -0.468 OA 
HETATM   41  H   UNL     1      -7.367  10.849  71.200  1.00  0.00     0.000 HD 
ENDBRANCH  38  39
ENDBRANCH  37  38
ENDBRANCH  36  37
ENDBRANCH  35  36
ENDBRANCH  34  35
ENDBRANCH  33  34
ENDBRANCH  32  33
ENDBRANCH  31  32
ENDBRANCH  30  31
ENDBRANCH  29  30
ENDBRANCH  28  29
ENDBRANCH  27  28
ENDBRANCH  26  27
ENDBRANCH  25  26
ENDBRANCH  24  25
ENDBRANCH  23  24
ENDBRANCH  22  23
ENDBRANCH  21  22
ENDBRANCH  20  21
ENDBRANCH  19  20
ENDBRANCH  18  19
ENDBRANCH  17  18
ENDBRANCH  16  17
ENDBRANCH  15  16
ENDBRANCH  14  15
ENDBRANCH  13  14
ENDBRANCH  12  13
ENDBRANCH  11  12
ENDBRANCH  10  11
ENDBRANCH   9  10
ENDBRANCH   8   9
ENDBRANCH   7   8
ENDBRANCH   6   7
ENDBRANCH   5   6
ENDBRANCH   4   5
ENDBRANCH   3   4
ENDBRANCH   2   3
TORSDOF 37
ENDMDL
MODEL        8
REMARK 921   NORMALIZED FREE ENERGY PREDICTED BY IDOCK:   -4.05 KCAL/MOL
REMARK 922        TOTAL FREE ENERGY PREDICTED BY IDOCK:  -16.42 KCAL/MOL
REMARK 923 INTER-LIGAND FREE ENERGY PREDICTED BY IDOCK:  -13.37 KCAL/MOL
REMARK 924 INTRA-LIGAND FREE ENERGY PREDICTED BY IDOCK:   -3.05 KCAL/MOL
REMARK 927      BINDING AFFINITY PREDICTED BY RF-SCORE:    0.00 PKD
ROOT
HETATM    1  C   UNL     1     -10.781   3.454  73.846  1.00  0.00    -0.297 C  
HETATM    2  C   UNL     1     -11.435   4.701  73.276  1.00  0.00    -0.346 C  
ENDROOT
BRANCH   2   3
HETATM    3  C   UNL     1     -10.607   5.945  73.587  1.00  0.00    -0.292 C  
BRANCH   3   4
HETATM    4  C   UNL     1     -10.352   6.769  72.327  1.00  0.00    -0.219 C  
BRANCH   4   5
HETATM    5  C   UNL     1     -11.267   6.318  71.191  1.00  0.00    -0.365 C  
BRANCH   5   6
HETATM    6  C   UNL     1     -12.222   7.435  70.785  1.00  0.00    -0.204 C  
BRANCH   6   7
HETATM    7  C   UNL     1     -13.513   7.361  71.594  1.00  0.00    -0.437 C  
BRANCH   7   8
HETATM    8  C   UNL     1     -13.905   8.740  72.108  1.00  0.00    -0.513 C  
BRANCH   8   9
HETATM    9  C   UNL     1     -12.762   9.734  71.928  1.00  0.00    -0.501 C  
BRANCH   9  10
HETATM   10  C   UNL     1     -13.291  11.161  71.985  1.00  0.00    -0.384 C  
BRANCH  10  11
HETATM   11  C   UNL     1     -12.652  12.029  70.911  1.00  0.00    -0.347 C  
BRANCH  11  12
HETATM   12  C   UNL     1     -11.816  11.177  69.971  1.00  0.00    -0.361 C  
BRANCH  12  13
HETATM   13  O   UNL     1     -12.239  11.444  68.639  1.00  0.00    -0.532 OA 
BRANCH  13  14
HETATM   14  C   UNL     1     -11.369  10.819  67.701  1.00  0.00    -0.252 C  
BRANCH  14  15
HETATM   15  C   UNL     1     -10.230  10.147  68.446  1.00  0.00    -0.169 C  
BRANCH  15  16
HETATM   16  O   UNL     1      -9.816   9.011  67.696  1.00  0.00    -0.157 OA 
BRANCH  16  17
HETATM   17  C   UNL     1      -9.920   9.249  66.296  1.00  0.00    -0.286 C  
BRANCH  17  18
HETATM   18  C   UNL     1      -8.537   9.108  65.680  1.00  0.00    -0.158 C  
BRANCH  18  19
HETATM   19  O   UNL     1      -8.659   9.144  64.264  1.00  0.00    -0.189 OA 
BRANCH  19  20
HETATM   20  C   UNL     1      -8.187  10.381  63.727  1.00  0.00    -0.122 C  
BRANCH  20  21
HETATM   21  C   UNL     1      -9.118  10.808  62.599  1.00  0.00    -0.318 C  
BRANCH  21  22
HETATM   22  O   UNL     1      -9.938  11.884  63.063  1.00  0.00    -0.387 OA 
BRANCH  22  23
HETATM   23  C   UNL     1     -11.059  11.406  63.798  1.00  0.00    -0.334 C  
BRANCH  23  24
HETATM   24  C   UNL     1     -12.324  12.027  63.228  1.00  0.00    -0.438 C  
BRANCH  24  25
HETATM   25  O   UNL     1     -13.181  12.392  64.307  1.00  0.00    -0.769 OA 
BRANCH  25  26
HETATM   26  C   UNL     1     -12.529  13.277  65.208  1.00  0.00    -0.489 C  
BRANCH  26  27
HETATM   27  C   UNL     1     -12.411  14.645  64.553  1.00  0.00    -0.398 C  
BRANCH  27  28
HETATM   28  O   UNL     1     -11.076  15.119  64.702  1.00  0.00    -0.375 OA 
BRANCH  28  29
HETATM   29  C   UNL     1     -11.004  16.524  64.481  1.00  0.00     0.078 C  
BRANCH  29  30
HETATM   30  C   UNL     1     -10.311  17.174  65.668  1.00  0.00    -0.183 C  
BRANCH  30  31
HETATM   31  O   UNL     1     -10.687  18.546  65.730  1.00  0.00    -0.489 OA 
BRANCH  31  32
HETATM   32  C   UNL     1      -9.620  19.355  66.218  1.00  0.00    -0.375 C  
BRANCH  32  33
HETATM   33  C   UNL     1     -10.073  20.060  67.487  1.00  0.00    -0.425 C  
BRANCH  33  34
HETATM   34  O   UNL     1      -9.808  19.222  68.609  1.00  0.00    -0.383 OA 
BRANCH  34  35
HETATM   35  C   UNL     1      -8.591  18.500  68.443  1.00  0.00    -0.331 C  
BRANCH  35  36
HETATM   36  C   UNL     1      -8.788  17.078  68.949  1.00  0.00    -0.206 C  
BRANCH  36  37
HETATM   37  O   UNL     1     -10.172  16.849  69.215  1.00  0.00    -0.290 OA 
BRANCH  37  38
HETATM   38  C   UNL     1     -10.413  15.470  69.522  1.00  0.00    -0.263 C  
BRANCH  38  39
HETATM   39  C   UNL     1     -10.970  14.792  68.275  1.00  0.00    -0.258 C  
HETATM   40  O   UNL     1     -12.390  14.685  68.375  1.00  0.00    -0.603 OA 
HETATM   41  H   UNL     1     -12.736  14.262  67.598  1.00  0.00     0.000 HD 
ENDBRANCH  38  39
ENDBRANCH  37  38
ENDBRANCH  36  37
ENDBRANCH  35  36
ENDBRANCH  34  35
ENDBRANCH  33  34
ENDBRANCH  32  33
ENDBRANCH  31  32
ENDBRANCH  30  31
ENDBRANCH  29  30
ENDBRANCH  28  29
ENDBRANCH  27  28
ENDBRANCH  26  27
ENDBRANCH  25  26
ENDBRANCH  24  25
ENDBRANCH  23  24
ENDBRANCH  22  23
ENDBRANCH  21  22
ENDBRANCH  20  21
ENDBRANCH  19  20
ENDBRANCH  18  19
ENDBRANCH  17  18
ENDBRANCH  16  17
ENDBRANCH  15  16
ENDBRANCH  14  15
ENDBRANCH  13  14
ENDBRANCH  12  13
ENDBRANCH  11  12
ENDBRANCH  10  11
ENDBRANCH   9  10
ENDBRANCH   8   9
ENDBRANCH   7   8
ENDBRANCH   6   7
ENDBRANCH   5   6
ENDBRANCH   4   5
ENDBRANCH   3   4
ENDBRANCH   2   3
TORSDOF 37
ENDMDL
MODEL        9
REMARK 921   NORMALIZED FREE ENERGY PREDICTED BY IDOCK:   -4.03 KCAL/MOL
REMARK 922        TOTAL FREE ENERGY PREDICTED BY IDOCK:  -16.35 KCAL/MOL
REMARK 923 INTER-LIGAND FREE ENERGY PREDICTED BY IDOCK:  -12.92 KCAL/MOL
REMARK 924 INTRA-LIGAND FREE ENERGY PREDICTED BY IDOCK:   -3.44 KCAL/MOL
REMARK 927      BINDING AFFINITY PREDICTED BY RF-SCORE:    0.00 PKD
ROOT
HETATM    1  C   UNL     1     -11.119  11.721  63.728  1.00  0.00    -0.513 C  
HETATM    2  C   UNL     1     -12.365  12.588  63.684  1.00  0.00    -0.618 C  
ENDROOT
BRANCH   2   3
HETATM    3  C   UNL     1     -12.147  13.900  64.433  1.00  0.00    -0.477 C  
BRANCH   3   4
HETATM    4  C   UNL     1     -11.297  13.687  65.684  1.00  0.00    -0.309 C  
BRANCH   4   5
HETATM    5  C   UNL     1     -12.061  14.114  66.936  1.00  0.00    -0.466 C  
BRANCH   5   6
HETATM    6  C   UNL     1     -11.558  13.363  68.163  1.00  0.00    -0.376 C  
BRANCH   6   7
HETATM    7  C   UNL     1     -10.959  14.329  69.179  1.00  0.00    -0.286 C  
BRANCH   7   8
HETATM    8  C   UNL     1     -11.929  15.466  69.476  1.00  0.00    -0.358 C  
BRANCH   8   9
HETATM    9  C   UNL     1     -12.266  15.522  70.962  1.00  0.00    -0.449 C  
BRANCH   9  10
HETATM   10  C   UNL     1     -13.528  14.719  71.246  1.00  0.00    -0.478 C  
BRANCH  10  11
HETATM   11  C   UNL     1     -13.366  13.860  72.491  1.00  0.00    -0.656 C  
BRANCH  11  12
HETATM   12  C   UNL     1     -13.555  12.392  72.148  1.00  0.00    -0.306 C  
BRANCH  12  13
HETATM   13  O   UNL     1     -12.552  12.026  71.208  1.00  0.00    -0.347 OA 
BRANCH  13  14
HETATM   14  C   UNL     1     -12.690  10.659  70.833  1.00  0.00    -0.404 C  
BRANCH  14  15
HETATM   15  C   UNL     1     -13.272   9.878  71.998  1.00  0.00    -0.456 C  
BRANCH  15  16
HETATM   16  O   UNL     1     -12.406   8.784  72.277  1.00  0.00    -0.373 OA 
BRANCH  16  17
HETATM   17  C   UNL     1     -12.795   7.619  71.559  1.00  0.00    -0.344 C  
BRANCH  17  18
HETATM   18  C   UNL     1     -11.868   6.479  71.950  1.00  0.00    -0.334 C  
BRANCH  18  19
HETATM   19  O   UNL     1     -11.157   6.847  73.125  1.00  0.00    -0.268 OA 
BRANCH  19  20
HETATM   20  C   UNL     1      -9.769   6.522  73.022  1.00  0.00    -0.155 C  
BRANCH  20  21
HETATM   21  C   UNL     1      -8.959   7.654  73.641  1.00  0.00    -0.256 C  
BRANCH  21  22
HETATM   22  O   UNL     1      -9.034   8.795  72.780  1.00  0.00    -0.361 OA 
BRANCH  22  23
HETATM   23  C   UNL     1      -8.545   8.500  71.478  1.00  0.00    -0.181 C  
BRANCH  23  24
HETATM   24  C   UNL     1      -9.368   9.268  70.455  1.00  0.00    -0.264 C  
BRANCH  24  25
HETATM   25  O   UNL     1      -9.957   8.339  69.550  1.00  0.00    -0.179 OA 
BRANCH  25  26
HETATM   26  C   UNL     1     -10.077   8.894  68.246  1.00  0.00    -0.187 C  
BRANCH  26  27
HETATM   27  C   UNL     1      -9.187  10.124  68.153  1.00  0.00    -0.135 C  
BRANCH  27  28
HETATM   28  O   UNL     1      -9.515  10.848  66.971  1.00  0.00    -0.163 OA 
BRANCH  28  29
HETATM   29  C   UNL     1      -8.421  11.652  66.542  1.00  0.00    -0.141 C  
BRANCH  29  30
HETATM   30  C   UNL     1      -7.658  12.139  67.764  1.00  0.00    -0.131 C  
BRANCH  30  31
HETATM   31  O   UNL     1      -6.542  12.912  67.335  1.00  0.00    -0.161 OA 
BRANCH  31  32
HETATM   32  C   UNL     1      -6.353  14.055  68.166  1.00  0.00    -0.128 C  
BRANCH  32  33
HETATM   33  C   UNL     1      -6.848  15.290  67.428  1.00  0.00    -0.154 C  
BRANCH  33  34
HETATM   34  O   UNL     1      -7.920  15.877  68.162  1.00  0.00    -0.134 OA 
BRANCH  34  35
HETATM   35  C   UNL     1      -7.796  17.295  68.219  1.00  0.00    -0.244 C  
BRANCH  35  36
HETATM   36  C   UNL     1      -7.311  17.803  66.868  1.00  0.00    -0.199 C  
BRANCH  36  37
HETATM   37  O   UNL     1      -8.431  18.189  66.070  1.00  0.00    -0.496 OA 
BRANCH  37  38
HETATM   38  C   UNL     1      -8.809  19.545  66.342  1.00  0.00    -0.366 C  
BRANCH  38  39
HETATM   39  C   UNL     1     -10.330  19.609  66.427  1.00  0.00    -0.504 C  
HETATM   40  O   UNL     1     -10.909  18.840  65.373  1.00  0.00    -0.563 OA 
HETATM   41  H   UNL     1     -11.856  18.880  65.426  1.00  0.00     0.000 HD 
ENDBRANCH  38  39
ENDBRANCH  37  38
ENDBRANCH  36  37
ENDBRANCH  35  36
ENDBRANCH  34  35
ENDBRANCH  33  34
ENDBRANCH  32  33
ENDBRANCH  31  32
ENDBRANCH  30  31
ENDBRANCH  29  30
ENDBRANCH  28  29
ENDBRANCH  27  28
ENDBRANCH  26  27
ENDBRANCH  25  26
ENDBRANCH  24  25
ENDBRANCH  23  24
ENDBRANCH  22  23
ENDBRANCH  21  22
ENDBRANCH  20  21
ENDBRANCH  19  20
ENDBRANCH  18  19
ENDBRANCH  17  18
ENDBRANCH  16  17
ENDBRANCH  15  16
ENDBRANCH  14  15
ENDBRANCH  13  14
ENDBRANCH  12  13
ENDBRANCH  11  12
ENDBRANCH  10  11
ENDBRANCH   9  10
ENDBRANCH   8   9
ENDBRANCH   7   8
ENDBRANCH   6   7
ENDBRANCH   5   6
ENDBRANCH   4   5
ENDBRANCH   3   4
ENDBRANCH   2   3
TORSDOF 37
ENDMDL
MODEL       10
REMARK 921   NORMALIZED FREE ENERGY PREDICTED BY IDOCK:   -4.02 KCAL/MOL
REMARK 922        TOTAL FREE ENERGY PREDICTED BY IDOCK:  -16.35 KCAL/MOL
REMARK 923 INTER-LIGAND FREE ENERGY PREDICTED BY IDOCK:  -13.38 KCAL/MOL
REMARK 924 INTRA-LIGAND FREE ENERGY PREDICTED BY IDOCK:   -2.97 KCAL/MOL
REMARK 927      BINDING AFFINITY PREDICTED BY RF-SCORE:    0.00 PKD
ROOT
HETATM    1  C   UNL     1     -14.102  15.462  72.425  1.00  0.00    -0.645 C  
HETATM    2  C   UNL     1     -13.210  15.361  71.200  1.00  0.00    -0.583 C  
ENDROOT
BRANCH   2   3
HETATM    3  C   UNL     1     -12.484  14.020  71.159  1.00  0.00    -0.447 C  
BRANCH   3   4
HETATM    4  C   UNL     1     -13.167  12.993  72.060  1.00  0.00    -0.543 C  
BRANCH   4   5
HETATM    5  C   UNL     1     -12.849  11.573  71.600  1.00  0.00    -0.475 C  
BRANCH   5   6
HETATM    6  C   UNL     1     -12.038  11.586  70.310  1.00  0.00    -0.444 C  
BRANCH   6   7
HETATM    7  C   UNL     1     -11.117  10.373  70.239  1.00  0.00    -0.379 C  
BRANCH   7   8
HETATM    8  C   UNL     1     -11.543   9.315  71.249  1.00  0.00    -0.419 C  
BRANCH   8   9
HETATM    9  C   UNL     1     -10.340   8.777  72.015  1.00  0.00    -0.411 C  
BRANCH   9  10
HETATM   10  C   UNL     1     -10.779   7.692  72.991  1.00  0.00    -0.449 C  
BRANCH  10  11
HETATM   11  C   UNL     1      -9.585   6.921  73.532  1.00  0.00    -0.222 C  
BRANCH  11  12
HETATM   12  C   UNL     1      -9.084   5.928  72.498  1.00  0.00    -0.135 C  
BRANCH  12  13
HETATM   13  O   UNL     1     -10.202   5.196  72.010  1.00  0.00    -0.190 OA 
BRANCH  13  14
HETATM   14  C   UNL     1     -10.152   5.087  70.592  1.00  0.00    -0.243 C  
BRANCH  14  15
HETATM   15  C   UNL     1      -8.973   5.890  70.070  1.00  0.00    -0.141 C  
BRANCH  15  16
HETATM   16  O   UNL     1      -9.453   6.794  69.082  1.00  0.00    -0.142 OA 
BRANCH  16  17
HETATM   17  C   UNL     1     -10.827   6.560  68.790  1.00  0.00    -0.299 C  
BRANCH  17  18
HETATM   18  C   UNL     1     -11.109   7.047  67.378  1.00  0.00    -0.195 C  
BRANCH  18  19
HETATM   19  O   UNL     1      -9.990   7.794  66.916  1.00  0.00    -0.213 OA 
BRANCH  19  20
HETATM   20  C   UNL     1     -10.382   9.081  66.433  1.00  0.00    -0.149 C  
BRANCH  20  21
HETATM   21  C   UNL     1      -9.278  10.079  66.761  1.00  0.00    -0.148 C  
BRANCH  21  22
HETATM   22  O   UNL     1      -8.983  10.838  65.585  1.00  0.00    -0.178 OA 
BRANCH  22  23
HETATM   23  C   UNL     1      -9.432  10.176  64.409  1.00  0.00    -0.308 C  
BRANCH  23  24
HETATM   24  C   UNL     1      -9.879  11.218  63.396  1.00  0.00    -0.385 C  
BRANCH  24  25
HETATM   25  O   UNL     1     -11.304  11.242  63.362  1.00  0.00    -0.272 OA 
BRANCH  25  26
HETATM   26  C   UNL     1     -11.797  12.576  63.372  1.00  0.00    -0.503 C  
BRANCH  26  27
HETATM   27  C   UNL     1     -12.659  12.771  64.611  1.00  0.00    -0.419 C  
BRANCH  27  28
HETATM   28  O   UNL     1     -11.998  12.194  65.733  1.00  0.00    -0.536 OA 
BRANCH  28  29
HETATM   29  C   UNL     1     -12.033  13.070  66.855  1.00  0.00    -0.352 C  
BRANCH  29  30
HETATM   30  C   UNL     1     -10.803  13.963  66.821  1.00  0.00    -0.286 C  
BRANCH  30  31
HETATM   31  O   UNL     1     -10.850  14.858  67.927  1.00  0.00    -0.263 OA 
BRANCH  31  32
HETATM   32  C   UNL     1     -10.027  16.000  67.704  1.00  0.00    -0.239 C  
BRANCH  32  33
HETATM   33  C   UNL     1     -10.551  17.159  68.540  1.00  0.00    -0.361 C  
BRANCH  33  34
HETATM   34  O   UNL     1     -10.870  18.250  67.681  1.00  0.00    -0.396 OA 
BRANCH  34  35
HETATM   35  C   UNL     1     -10.145  19.424  68.040  1.00  0.00    -0.412 C  
BRANCH  35  36
HETATM   36  C   UNL     1      -9.560  20.046  66.779  1.00  0.00    -0.417 C  
BRANCH  36  37
HETATM   37  O   UNL     1      -8.794  19.071  66.071  1.00  0.00    -0.460 OA 
BRANCH  37  38
HETATM   38  C   UNL     1      -7.548  18.820  66.735  1.00  0.00    -0.231 C  
BRANCH  38  39
HETATM   39  C   UNL     1      -6.801  20.142  66.867  1.00  0.00    -0.225 C  
HETATM   40  O   UNL     1      -6.380  20.329  68.217  1.00  0.00    -0.268 OA 
HETATM   41  H   UNL     1      -5.915  21.153  68.300  1.00  0.00     0.000 HD 
ENDBRANCH  38  39
ENDBRANCH  37  38
ENDBRANCH  36  37
ENDBRANCH  35  36
ENDBRANCH  34  35
ENDBRANCH  33  34
ENDBRANCH  32  33
ENDBRANCH  31  32
ENDBRANCH  30  31
ENDBRANCH  29  30
ENDBRANCH  28  29
ENDBRANCH  27  28
ENDBRANCH  26  27
ENDBRANCH  25  26
ENDBRANCH  24  25
ENDBRANCH  23  24
ENDBRANCH  22  23
ENDBRANCH  21  22
ENDBRANCH  20  21
ENDBRANCH  19  20
ENDBRANCH  18  19
ENDBRANCH  17  18
ENDBRANCH  16  17
ENDBRANCH  15  16
ENDBRANCH  14  15
ENDBRANCH  13  14
ENDBRANCH  12  13
ENDBRANCH  11  12
ENDBRANCH  10  11
ENDBRANCH   9  10
ENDBRANCH   8   9
ENDBRANCH   7   8
ENDBRANCH   6   7
ENDBRANCH   5   6
ENDBRANCH   4   5
ENDBRANCH   3   4
ENDBRANCH   2   3
TORSDOF 37
ENDMDL
MODEL       11
REMARK 921   NORMALIZED FREE ENERGY PREDICTED BY IDOCK:   -3.98 KCAL/MOL
REMARK 922        TOTAL FREE ENERGY PREDICTED BY IDOCK:  -16.21 KCAL/MOL
REMARK 923 INTER-LIGAND FREE ENERGY PREDICTED BY IDOCK:  -12.38 KCAL/MOL
REMARK 924 INTRA-LIGAND FREE ENERGY PREDICTED BY IDOCK:   -3.82 KCAL/MOL
REMARK 927      BINDING AFFINITY PREDICTED BY RF-SCORE:    0.00 PKD
ROOT
HETATM    1  C   UNL     1     -11.181   6.253  69.449  1.00  0.00    -0.489 C  
HETATM    2  C   UNL     1      -9.873   5.857  70.112  1.00  0.00    -0.226 C  
ENDROOT
BRANCH   2   3
HETATM    3  C   UNL     1      -9.943   4.432  70.655  1.00  0.00    -0.254 C  
BRANCH   3   4
HETATM    4  C   UNL     1      -9.654   4.397  72.154  1.00  0.00    -0.206 C  
BRANCH   4   5
HETATM    5  C   UNL     1     -10.807   5.013  72.942  1.00  0.00    -0.322 C  
BRANCH   5   6
HETATM    6  C   UNL     1     -10.300   5.691  74.210  1.00  0.00    -0.289 C  
BRANCH   6   7
HETATM    7  C   UNL     1      -9.880   7.129  73.922  1.00  0.00    -0.346 C  
BRANCH   7   8
HETATM    8  C   UNL     1     -10.872   7.799  72.980  1.00  0.00    -0.451 C  
BRANCH   8   9
HETATM    9  C   UNL     1     -10.173   8.825  72.092  1.00  0.00    -0.371 C  
BRANCH   9  10
HETATM   10  C   UNL     1     -11.201   9.621  71.300  1.00  0.00    -0.446 C  
BRANCH  10  11
HETATM   11  C   UNL     1     -12.608   9.089  71.530  1.00  0.00    -0.400 C  
BRANCH  11  12
HETATM   12  C   UNL     1     -13.581  10.237  71.732  1.00  0.00    -0.187 C  
BRANCH  12  13
HETATM   13  O   UNL     1     -12.848  11.455  71.665  1.00  0.00    -0.420 OA 
BRANCH  13  14
HETATM   14  C   UNL     1     -13.634  12.541  72.145  1.00  0.00    -0.360 C  
BRANCH  14  15
HETATM   15  C   UNL     1     -13.287  13.794  71.360  1.00  0.00    -0.270 C  
BRANCH  15  16
HETATM   16  O   UNL     1     -11.989  13.625  70.803  1.00  0.00    -0.311 OA 
BRANCH  16  17
HETATM   17  C   UNL     1     -12.006  13.788  69.389  1.00  0.00    -0.347 C  
BRANCH  17  18
HETATM   18  C   UNL     1     -11.093  12.741  68.772  1.00  0.00    -0.260 C  
BRANCH  18  19
HETATM   19  O   UNL     1     -11.860  11.917  67.902  1.00  0.00    -0.492 OA 
BRANCH  19  20
HETATM   20  C   UNL     1     -11.046  10.934  67.259  1.00  0.00    -0.283 C  
BRANCH  20  21
HETATM   21  C   UNL     1      -9.832  10.658  68.137  1.00  0.00    -0.155 C  
BRANCH  21  22
HETATM   22  O   UNL     1      -9.610   9.245  68.179  1.00  0.00    -0.141 OA 
BRANCH  22  23
HETATM   23  C   UNL     1      -8.399   8.927  68.854  1.00  0.00    -0.122 C  
BRANCH  23  24
HETATM   24  C   UNL     1      -7.860  10.185  69.519  1.00  0.00    -0.162 C  
BRANCH  24  25
HETATM   25  O   UNL     1      -6.436  10.121  69.533  1.00  0.00    -0.046 OA 
BRANCH  25  26
HETATM   26  C   UNL     1      -5.862  11.417  69.648  1.00  0.00    -0.087 C  
BRANCH  26  27
HETATM   27  C   UNL     1      -5.678  11.996  68.252  1.00  0.00    -0.051 C  
BRANCH  27  28
HETATM   28  O   UNL     1      -5.441  10.933  67.335  1.00  0.00    -0.043 OA 
BRANCH  28  29
HETATM   29  C   UNL     1      -6.142  11.145  66.113  1.00  0.00    -0.084 C  
BRANCH  29  30
HETATM   30  C   UNL     1      -6.572   9.799  65.552  1.00  0.00    -0.085 C  
BRANCH  30  31
HETATM   31  O   UNL     1      -7.960   9.850  65.238  1.00  0.00    -0.125 OA 
BRANCH  31  32
HETATM   32  C   UNL     1      -8.171  10.243  63.884  1.00  0.00    -0.152 C  
BRANCH  32  33
HETATM   33  C   UNL     1      -9.668  10.315  63.617  1.00  0.00    -0.213 C  
BRANCH  33  34
HETATM   34  O   UNL     1      -9.960  11.517  62.910  1.00  0.00    -0.330 OA 
BRANCH  34  35
HETATM   35  C   UNL     1     -10.420  12.540  63.790  1.00  0.00    -0.419 C  
BRANCH  35  36
HETATM   36  C   UNL     1     -11.940  12.605  63.720  1.00  0.00    -0.510 C  
BRANCH  36  37
HETATM   37  O   UNL     1     -12.380  13.925  64.040  1.00  0.00    -0.637 OA 
BRANCH  37  38
HETATM   38  C   UNL     1     -11.672  14.439  65.175  1.00  0.00    -0.372 C  
BRANCH  38  39
HETATM   39  C   UNL     1     -11.052  15.777  64.787  1.00  0.00    -0.400 C  
HETATM   40  O   UNL     1     -11.768  16.345  63.691  1.00  0.00    -1.520 OA 
HETATM   41  H   UNL     1     -11.382  17.178  63.450  1.00  0.00     0.000 HD 
ENDBRANCH  38  39
ENDBRANCH  37  38
ENDBRANCH  36  37
ENDBRANCH  35  36
ENDBRANCH  34  35
ENDBRANCH  33  34
ENDBRANCH  32  33
ENDBRANCH  31  32
ENDBRANCH  30  31
ENDBRANCH  29  30
ENDBRANCH  28  29
ENDBRANCH  27  28
ENDBRANCH  26  27
ENDBRANCH  25  26
ENDBRANCH  24  25
ENDBRANCH  23  24
ENDBRANCH  22  23
ENDBRANCH  21  22
ENDBRANCH  20  21
ENDBRANCH  19  20
ENDBRANCH  18  19
ENDBRANCH  17  18
ENDBRANCH  16  17
ENDBRANCH  15  16
ENDBRANCH  14  15
ENDBRANCH  13  14
ENDBRANCH  12  13
ENDBRANCH  11  12
ENDBRANCH  10  11
ENDBRANCH   9  10
ENDBRANCH   8   9
ENDBRANCH   7   8
ENDBRANCH   6   7
ENDBRANCH   5   6
ENDBRANCH   4   5
ENDBRANCH   3   4
ENDBRANCH   2   3
TORSDOF 37
ENDMDL
MODEL       12
REMARK 921   NORMALIZED FREE ENERGY PREDICTED BY IDOCK:   -3.96 KCAL/MOL
REMARK 922        TOTAL FREE ENERGY PREDICTED BY IDOCK:  -16.14 KCAL/MOL
REMARK 923 INTER-LIGAND FREE ENERGY PREDICTED BY IDOCK:  -11.87 KCAL/MOL
REMARK 924 INTRA-LIGAND FREE ENERGY PREDICTED BY IDOCK:   -4.27 KCAL/MOL
REMARK 927      BINDING AFFINITY PREDICTED BY RF-SCORE:    0.00 PKD
ROOT
HETATM    1  C   UNL     1      -8.761   5.022  68.361  1.00  0.00    -0.107 C  
HETATM    2  C   UNL     1      -9.800   5.554  67.389  1.00  0.00    -0.167 C  
ENDROOT
BRANCH   2   3
HETATM    3  C   UNL     1     -10.937   6.252  68.130  1.00  0.00    -0.412 C  
BRANCH   3   4
HETATM    4  C   UNL     1     -10.946   5.877  69.610  1.00  0.00    -0.447 C  
BRANCH   4   5
HETATM    5  C   UNL     1     -11.911   6.768  70.389  1.00  0.00    -0.395 C  
BRANCH   5   6
HETATM    6  C   UNL     1     -11.714   6.601  71.891  1.00  0.00    -0.355 C  
BRANCH   6   7
HETATM    7  C   UNL     1     -11.573   7.959  72.571  1.00  0.00    -0.443 C  
BRANCH   7   8
HETATM    8  C   UNL     1     -10.212   8.572  72.268  1.00  0.00    -0.395 C  
BRANCH   8   9
HETATM    9  C   UNL     1      -9.092   7.567  72.522  1.00  0.00    -0.189 C  
BRANCH   9  10
HETATM   10  C   UNL     1      -8.172   7.487  71.311  1.00  0.00    -0.100 C  
BRANCH  10  11
HETATM   11  C   UNL     1      -8.471   8.600  70.317  1.00  0.00    -0.133 C  
BRANCH  11  12
HETATM   12  C   UNL     1      -7.681   8.391  69.036  1.00  0.00    -0.097 C  
BRANCH  12  13
HETATM   13  O   UNL     1      -7.222   9.660  68.588  1.00  0.00    -0.071 OA 
BRANCH  13  14
HETATM   14  C   UNL     1      -7.995  10.112  67.481  1.00  0.00    -0.106 C  
BRANCH  14  15
HETATM   15  C   UNL     1      -8.282   8.940  66.559  1.00  0.00    -0.114 C  
BRANCH  15  16
HETATM   16  O   UNL     1      -9.560   9.142  65.967  1.00  0.00    -0.236 OA 
BRANCH  16  17
HETATM   17  C   UNL     1      -9.442   9.668  64.650  1.00  0.00    -0.152 C  
BRANCH  17  18
HETATM   18  C   UNL     1     -10.099  11.039  64.617  1.00  0.00    -0.311 C  
BRANCH  18  19
HETATM   19  O   UNL     1     -11.049  11.119  65.673  1.00  0.00    -0.150 OA 
BRANCH  19  20
HETATM   20  C   UNL     1     -11.303  12.474  66.048  1.00  0.00    -0.344 C  
BRANCH  20  21
HETATM   21  C   UNL     1     -12.325  13.062  65.083  1.00  0.00    -0.484 C  
BRANCH  21  22
HETATM   22  O   UNL     1     -11.916  14.388  64.735  1.00  0.00    -0.403 OA 
BRANCH  22  23
HETATM   23  C   UNL     1     -10.857  14.844  65.569  1.00  0.00    -0.356 C  
BRANCH  23  24
HETATM   24  C   UNL     1     -10.683  16.342  65.371  1.00  0.00    -0.327 C  
BRANCH  24  25
HETATM   25  O   UNL     1      -9.321  16.681  65.621  1.00  0.00    -0.502 OA 
BRANCH  25  26
HETATM   26  C   UNL     1      -9.219  17.849  66.425  1.00  0.00    -0.242 C  
BRANCH  26  27
HETATM   27  C   UNL     1     -10.616  18.264  66.866  1.00  0.00    -0.329 C  
BRANCH  27  28
HETATM   28  O   UNL     1     -10.779  17.958  68.246  1.00  0.00    -0.334 OA 
BRANCH  28  29
HETATM   29  C   UNL     1      -9.616  17.327  68.773  1.00  0.00    -0.269 C  
BRANCH  29  30
HETATM   30  C   UNL     1     -10.021  16.023  69.441  1.00  0.00    -0.262 C  
BRANCH  30  31
HETATM   31  O   UNL     1     -11.431  16.023  69.640  1.00  0.00    -0.326 OA 
BRANCH  31  32
HETATM   32  C   UNL     1     -11.760  16.196  71.016  1.00  0.00    -0.367 C  
BRANCH  32  33
HETATM   33  C   UNL     1     -12.972  15.337  71.346  1.00  0.00    -0.431 C  
BRANCH  33  34
HETATM   34  O   UNL     1     -12.537  14.024  71.688  1.00  0.00    -0.331 OA 
BRANCH  34  35
HETATM   35  C   UNL     1     -13.606  13.243  72.216  1.00  0.00    -0.605 C  
BRANCH  35  36
HETATM   36  C   UNL     1     -13.292  11.769  72.000  1.00  0.00    -0.312 C  
BRANCH  36  37
HETATM   37  O   UNL     1     -12.155  11.638  71.146  1.00  0.00    -0.232 OA 
BRANCH  37  38
HETATM   38  C   UNL     1     -12.471  10.854  69.989  1.00  0.00    -0.263 C  
BRANCH  38  39
HETATM   39  C   UNL     1     -11.168  10.496  69.282  1.00  0.00    -0.262 C  
HETATM   40  O   UNL     1     -11.438   9.648  68.167  1.00  0.00    -0.504 OA 
HETATM   41  H   UNL     1     -10.627   9.425  67.727  1.00  0.00     0.000 HD 
ENDBRANCH  38  39
ENDBRANCH  37  38
ENDBRANCH  36  37
ENDBRANCH  35  36
ENDBRANCH  34  35
ENDBRANCH  33  34
ENDBRANCH  32  33
ENDBRANCH  31  32
ENDBRANCH  30  31
ENDBRANCH  29  30
ENDBRANCH  28  29
ENDBRANCH  27  28
ENDBRANCH  26  27
ENDBRANCH  25  26
ENDBRANCH  24  25
ENDBRANCH  23  24
ENDBRANCH  22  23
ENDBRANCH  21  22
ENDBRANCH  20  21
ENDBRANCH  19  20
ENDBRANCH  18  19
ENDBRANCH  17  18
ENDBRANCH  16  17
ENDBRANCH  15  16
ENDBRANCH  14  15
ENDBRANCH  13  14
ENDBRANCH  12  13
ENDBRANCH  11  12
ENDBRANCH  10  11
ENDBRANCH   9  10
ENDBRANCH   8   9
ENDBRANCH   7   8
ENDBRANCH   6   7
ENDBRANCH   5   6
ENDBRANCH   4   5
ENDBRANCH   3   4
ENDBRANCH   2   3
TORSDOF 37
ENDMDL
MODEL       13
REMARK 921   NORMALIZED FREE ENERGY PREDICTED BY IDOCK:   -3.95 KCAL/MOL
REMARK 922        TOTAL FREE ENERGY PREDICTED BY IDOCK:  -16.10 KCAL/MOL
REMARK 923 INTER-LIGAND FREE ENERGY PREDICTED BY IDOCK:  -13.10 KCAL/MOL
REMARK 924 INTRA-LIGAND FREE ENERGY PREDICTED BY IDOCK:   -3.00 KCAL/MOL
REMARK 927      BINDING AFFINITY PREDICTED BY RF-SCORE:    0.00 PKD
ROOT
HETATM    1  C   UNL     1     -10.787  19.498  67.201  1.00  0.00    -0.555 C  
HETATM    2  C   UNL     1      -9.835  19.127  68.325  1.00  0.00    -0.462 C  
ENDROOT
BRANCH   2   3
HETATM    3  C   UNL     1      -8.460  18.753  67.779  1.00  0.00    -0.298 C  
BRANCH   3   4
HETATM    4  C   UNL     1      -8.211  17.250  67.888  1.00  0.00    -0.219 C  
BRANCH   4   5
HETATM    5  C   UNL     1      -8.222  16.598  66.508  1.00  0.00    -0.330 C  
BRANCH   5   6
HETATM    6  C   UNL     1      -9.284  15.507  66.429  1.00  0.00    -0.339 C  
BRANCH   6   7
HETATM    7  C   UNL     1     -10.602  16.073  65.911  1.00  0.00    -0.338 C  
BRANCH   7   8
HETATM    8  C   UNL     1     -11.132  15.229  64.759  1.00  0.00    -0.407 C  
BRANCH   8   9
HETATM    9  C   UNL     1     -12.142  14.200  65.256  1.00  0.00    -0.407 C  
BRANCH   9  10
HETATM   10  C   UNL     1     -11.850  12.837  64.642  1.00  0.00    -0.428 C  
BRANCH  10  11
HETATM   11  C   UNL     1     -10.493  12.821  63.955  1.00  0.00    -0.402 C  
BRANCH  11  12
HETATM   12  C   UNL     1     -10.290  11.510  63.215  1.00  0.00    -0.384 C  
BRANCH  12  13
HETATM   13  O   UNL     1     -10.198  10.468  64.179  1.00  0.00    -0.342 OA 
BRANCH  13  14
HETATM   14  C   UNL     1      -8.847  10.281  64.589  1.00  0.00    -0.199 C  
BRANCH  14  15
HETATM   15  C   UNL     1      -8.826   9.654  65.971  1.00  0.00    -0.152 C  
BRANCH  15  16
HETATM   16  O   UNL     1     -10.060   9.953  66.615  1.00  0.00    -0.212 OA 
BRANCH  16  17
HETATM   17  C   UNL     1     -10.516   8.855  67.396  1.00  0.00    -0.277 C  
BRANCH  17  18
HETATM   18  C   UNL     1     -10.166   7.567  66.668  1.00  0.00    -0.190 C  
BRANCH  18  19
HETATM   19  O   UNL     1     -10.957   6.510  67.196  1.00  0.00    -0.356 OA 
BRANCH  19  20
HETATM   20  C   UNL     1     -10.358   5.235  66.954  1.00  0.00    -0.255 C  
BRANCH  20  21
HETATM   21  C   UNL     1      -9.935   4.636  68.290  1.00  0.00    -0.062 C  
BRANCH  21  22
HETATM   22  O   UNL     1      -8.802   5.360  68.778  1.00  0.00    -0.103 OA 
BRANCH  22  23
HETATM   23  C   UNL     1      -9.134   6.140  69.921  1.00  0.00    -0.143 C  
BRANCH  23  24
HETATM   24  C   UNL     1     -10.403   5.583  70.547  1.00  0.00    -0.272 C  
BRANCH  24  25
HETATM   25  O   UNL     1     -11.334   6.649  70.717  1.00  0.00    -0.292 OA 
BRANCH  25  26
HETATM   26  C   UNL     1     -11.805   6.713  72.058  1.00  0.00    -0.324 C  
BRANCH  26  27
HETATM   27  C   UNL     1     -11.789   8.165  72.514  1.00  0.00    -0.376 C  
BRANCH  27  28
HETATM   28  O   UNL     1     -11.919   9.012  71.376  1.00  0.00    -0.295 OA 
BRANCH  28  29
HETATM   29  C   UNL     1     -13.175   9.681  71.376  1.00  0.00    -0.389 C  
BRANCH  29  30
HETATM   30  C   UNL     1     -12.964  11.128  70.958  1.00  0.00    -0.245 C  
BRANCH  30  31
HETATM   31  O   UNL     1     -11.712  11.238  70.288  1.00  0.00    -0.316 OA 
BRANCH  31  32
HETATM   32  C   UNL     1     -11.886  11.600  68.921  1.00  0.00    -0.329 C  
BRANCH  32  33
HETATM   33  C   UNL     1     -10.987  12.786  68.604  1.00  0.00    -0.260 C  
BRANCH  33  34
HETATM   34  O   UNL     1     -11.039  13.715  69.683  1.00  0.00    -0.147 OA 
BRANCH  34  35
HETATM   35  C   UNL     1     -11.957  14.772  69.416  1.00  0.00    -0.303 C  
BRANCH  35  36
HETATM   36  C   UNL     1     -12.462  15.333  70.738  1.00  0.00    -0.402 C  
BRANCH  36  37
HETATM   37  O   UNL     1     -13.613  14.601  71.163  1.00  0.00    -0.381 OA 
BRANCH  37  38
HETATM   38  C   UNL     1     -14.099  15.095  72.417  1.00  0.00    -0.495 C  
BRANCH  38  39
HETATM   39  C   UNL     1     -13.083  16.091  72.965  1.00  0.00    -0.498 C  
HETATM   40  O   UNL     1     -13.001  15.970  74.385  1.00  0.00    -0.919 OA 
HETATM   41  H   UNL     1     -12.368  16.590  74.726  1.00  0.00     0.000 HD 
ENDBRANCH  38  39
ENDBRANCH  37  38
ENDBRANCH  36  37
ENDBRANCH  35  36
ENDBRANCH  34  35
ENDBRANCH  33  34
ENDBRANCH  32  33
ENDBRANCH  31  32
ENDBRANCH  30  31
ENDBRANCH  29  30
ENDBRANCH  28  29
ENDBRANCH  27  28
ENDBRANCH  26  27
ENDBRANCH  25  26
ENDBRANCH  24  25
ENDBRANCH  23  24
ENDBRANCH  22  23
ENDBRANCH  21  22
ENDBRANCH  20  21
ENDBRANCH  19  20
ENDBRANCH  18  19
ENDBRANCH  17  18
ENDBRANCH  16  17
ENDBRANCH  15  16
ENDBRANCH  14  15
ENDBRANCH  13  14
ENDBRANCH  12  13
ENDBRANCH  11  12
ENDBRANCH  10  11
ENDBRANCH   9  10
ENDBRANCH   8   9
ENDBRANCH   7   8
ENDBRANCH   6   7
ENDBRANCH   5   6
ENDBRANCH   4   5
ENDBRANCH   3   4
ENDBRANCH   2   3
TORSDOF 37
ENDMDL
MODEL       14
REMARK 921   NORMALIZED FREE ENERGY PREDICTED BY IDOCK:   -3.94 KCAL/MOL
REMARK 922        TOTAL FREE ENERGY PREDICTED BY IDOCK:  -16.09 KCAL/MOL
REMARK 923 INTER-LIGAND FREE ENERGY PREDICTED BY IDOCK:  -12.43 KCAL/MOL
REMARK 924 INTRA-LIGAND FREE ENERGY PREDICTED BY IDOCK:   -3.66 KCAL/MOL
REMARK 927      BINDING AFFINITY PREDICTED BY RF-SCORE:    0.00 PKD
ROOT
HETATM    1  C   UNL     1      -8.786  11.086  62.373  1.00  0.00    -0.356 C  
HETATM    2  C   UNL     1      -9.622  11.799  63.422  1.00  0.00    -0.267 C  
ENDROOT
BRANCH   2   3
HETATM    3  C   UNL     1     -11.087  11.381  63.333  1.00  0.00    -0.308 C  
BRANCH   3   4
HETATM    4  C   UNL     1     -12.012  12.596  63.365  1.00  0.00    -0.613 C  
BRANCH   4   5
HETATM    5  C   UNL     1     -12.837  12.614  64.649  1.00  0.00    -0.361 C  
BRANCH   5   6
HETATM    6  C   UNL     1     -12.723  13.962  65.351  1.00  0.00    -0.525 C  
BRANCH   6   7
HETATM    7  C   UNL     1     -11.718  13.892  66.496  1.00  0.00    -0.414 C  
BRANCH   7   8
HETATM    8  C   UNL     1     -11.668  12.486  67.080  1.00  0.00    -0.437 C  
BRANCH   8   9
HETATM    9  C   UNL     1     -10.227  12.008  67.229  1.00  0.00    -0.221 C  
BRANCH   9  10
HETATM   10  C   UNL     1     -10.096  10.572  66.739  1.00  0.00    -0.270 C  
BRANCH  10  11
HETATM   11  C   UNL     1     -10.673   9.591  67.748  1.00  0.00    -0.302 C  
BRANCH  11  12
HETATM   12  C   UNL     1     -10.385   8.162  67.319  1.00  0.00    -0.303 C  
BRANCH  12  13
HETATM   13  O   UNL     1     -10.176   7.382  68.490  1.00  0.00    -0.174 OA 
BRANCH  13  14
HETATM   14  C   UNL     1      -9.139   7.943  69.288  1.00  0.00    -0.148 C  
BRANCH  14  15
HETATM   15  C   UNL     1      -8.576   6.869  70.202  1.00  0.00    -0.141 C  
BRANCH  15  16
HETATM   16  O   UNL     1      -7.838   7.508  71.237  1.00  0.00    -0.091 OA 
BRANCH  16  17
HETATM   17  C   UNL     1      -7.943   6.794  72.464  1.00  0.00    -0.101 C  
BRANCH  17  18
HETATM   18  C   UNL     1      -8.861   5.602  72.251  1.00  0.00    -0.132 C  
BRANCH  18  19
HETATM   19  O   UNL     1      -9.812   5.558  73.307  1.00  0.00    -0.159 OA 
BRANCH  19  20
HETATM   20  C   UNL     1     -10.773   6.610  73.191  1.00  0.00    -0.278 C  
BRANCH  20  21
HETATM   21  C   UNL     1     -11.781   6.230  72.114  1.00  0.00    -0.319 C  
BRANCH  21  22
HETATM   22  O   UNL     1     -11.992   7.361  71.264  1.00  0.00    -0.290 OA 
BRANCH  22  23
HETATM   23  C   UNL     1     -11.775   8.583  71.959  1.00  0.00    -0.362 C  
BRANCH  23  24
HETATM   24  C   UNL     1     -12.379   9.723  71.153  1.00  0.00    -0.359 C  
BRANCH  24  25
HETATM   25  O   UNL     1     -13.008  10.634  72.050  1.00  0.00    -0.461 OA 
BRANCH  25  26
HETATM   26  C   UNL     1     -12.904  11.973  71.582  1.00  0.00    -0.294 C  
BRANCH  26  27
HETATM   27  C   UNL     1     -13.810  12.859  72.425  1.00  0.00    -0.345 C  
BRANCH  27  28
HETATM   28  O   UNL     1     -14.002  14.101  71.756  1.00  0.00    -0.406 OA 
BRANCH  28  29
HETATM   29  C   UNL     1     -13.452  15.179  72.506  1.00  0.00    -0.464 C  
BRANCH  29  30
HETATM   30  C   UNL     1     -12.419  15.897  71.654  1.00  0.00    -0.446 C  
BRANCH  30  31
HETATM   31  O   UNL     1     -11.308  15.031  71.445  1.00  0.00    -0.336 OA 
BRANCH  31  32
HETATM   32  C   UNL     1     -11.085  14.801  70.056  1.00  0.00    -0.204 C  
BRANCH  32  33
HETATM   33  C   UNL     1     -11.309  16.101  69.297  1.00  0.00    -0.328 C  
BRANCH  33  34
HETATM   34  O   UNL     1     -10.059  16.760  69.117  1.00  0.00    -0.274 OA 
BRANCH  34  35
HETATM   35  C   UNL     1      -9.323  16.194  68.036  1.00  0.00    -0.203 C  
BRANCH  35  36
HETATM   36  C   UNL     1      -8.948  17.301  67.061  1.00  0.00    -0.232 C  
BRANCH  36  37
HETATM   37  O   UNL     1      -8.564  18.471  67.785  1.00  0.00    -0.264 OA 
BRANCH  37  38
HETATM   38  C   UNL     1      -9.095  19.651  67.169  1.00  0.00    -0.315 C  
BRANCH  38  39
HETATM   39  C   UNL     1     -10.436  19.970  67.821  1.00  0.00    -0.318 C  
HETATM   40  O   UNL     1     -10.371  19.704  69.221  1.00  0.00    -0.612 OA 
HETATM   41  H   UNL     1     -11.206  19.902  69.627  1.00  0.00     0.000 HD 
ENDBRANCH  38  39
ENDBRANCH  37  38
ENDBRANCH  36  37
ENDBRANCH  35  36
ENDBRANCH  34  35
ENDBRANCH  33  34
ENDBRANCH  32  33
ENDBRANCH  31  32
ENDBRANCH  30  31
ENDBRANCH  29  30
ENDBRANCH  28  29
ENDBRANCH  27  28
ENDBRANCH  26  27
ENDBRANCH  25  26
ENDBRANCH  24  25
ENDBRANCH  23  24
ENDBRANCH  22  23
ENDBRANCH  21  22
ENDBRANCH  20  21
ENDBRANCH  19  20
ENDBRANCH  18  19
ENDBRANCH  17  18
ENDBRANCH  16  17
ENDBRANCH  15  16
ENDBRANCH  14  15
ENDBRANCH  13  14
ENDBRANCH  12  13
ENDBRANCH  11  12
ENDBRANCH  10  11
ENDBRANCH   9  10
ENDBRANCH   8   9
ENDBRANCH   7   8
ENDBRANCH   6   7
ENDBRANCH   5   6
ENDBRANCH   4   5
ENDBRANCH   3   4
ENDBRANCH   2   3
TORSDOF 37
ENDMDL
MODEL       15
REMARK 921   NORMALIZED FREE ENERGY PREDICTED BY IDOCK:   -3.93 KCAL/MOL
REMARK 922        TOTAL FREE ENERGY PREDICTED BY IDOCK:  -16.05 KCAL/MOL
REMARK 923 INTER-LIGAND FREE ENERGY PREDICTED BY IDOCK:  -12.76 KCAL/MOL
REMARK 924 INTRA-LIGAND FREE ENERGY PREDICTED BY IDOCK:   -3.30 KCAL/MOL
REMARK 927      BINDING AFFINITY PREDICTED BY RF-SCORE:    0.00 PKD
ROOT
HETATM    1  C   UNL     1     -10.089  20.076  66.584  1.00  0.00    -0.607 C  
HETATM    2  C   UNL     1      -8.624  19.745  66.807  1.00  0.00    -0.375 C  
ENDROOT
BRANCH   2   3
HETATM    3  C   UNL     1      -8.414  19.068  68.159  1.00  0.00    -0.351 C  
BRANCH   3   4
HETATM    4  C   UNL     1      -7.646  17.757  68.009  1.00  0.00    -0.236 C  
BRANCH   4   5
HETATM    5  C   UNL     1      -7.792  17.203  66.594  1.00  0.00    -0.297 C  
BRANCH   5   6
HETATM    6  C   UNL     1      -8.250  15.750  66.622  1.00  0.00    -0.305 C  
BRANCH   6   7
HETATM    7  C   UNL     1      -8.881  15.409  67.968  1.00  0.00    -0.165 C  
BRANCH   7   8
HETATM    8  C   UNL     1      -8.342  14.085  68.494  1.00  0.00    -0.143 C  
BRANCH   8   9
HETATM    9  C   UNL     1      -8.066  13.115  67.350  1.00  0.00    -0.181 C  
BRANCH   9  10
HETATM   10  C   UNL     1      -7.167  11.981  67.826  1.00  0.00    -0.108 C  
BRANCH  10  11
HETATM   11  C   UNL     1      -7.913  11.042  68.761  1.00  0.00    -0.144 C  
BRANCH  11  12
HETATM   12  C   UNL     1      -6.958  10.440  69.778  1.00  0.00    -0.138 C  
BRANCH  12  13
HETATM   13  O   UNL     1      -7.729   9.919  70.854  1.00  0.00    -0.269 OA 
BRANCH  13  14
HETATM   14  C   UNL     1      -9.031   9.554  70.408  1.00  0.00    -0.243 C  
BRANCH  14  15
HETATM   15  C   UNL     1      -9.757   8.829  71.527  1.00  0.00    -0.291 C  
BRANCH  15  16
HETATM   16  O   UNL     1     -11.149   9.095  71.400  1.00  0.00    -0.289 OA 
BRANCH  16  17
HETATM   17  C   UNL     1     -11.930   7.993  71.851  1.00  0.00    -0.314 C  
BRANCH  17  18
HETATM   18  C   UNL     1     -11.314   6.713  71.309  1.00  0.00    -0.299 C  
BRANCH  18  19
HETATM   19  O   UNL     1     -11.836   6.465  70.009  1.00  0.00    -0.404 OA 
BRANCH  19  20
HETATM   20  C   UNL     1     -10.818   6.015  69.113  1.00  0.00    -0.352 C  
BRANCH  20  21
HETATM   21  C   UNL     1     -10.609   7.078  68.042  1.00  0.00    -0.207 C  
BRANCH  21  22
HETATM   22  O   UNL     1      -9.204   7.274  67.859  1.00  0.00    -0.132 OA 
BRANCH  22  23
HETATM   23  C   UNL     1      -8.909   7.754  66.553  1.00  0.00    -0.153 C  
BRANCH  23  24
HETATM   24  C   UNL     1      -9.800   8.950  66.254  1.00  0.00    -0.285 C  
BRANCH  24  25
HETATM   25  O   UNL     1      -9.597   9.345  64.900  1.00  0.00    -0.191 OA 
BRANCH  25  26
HETATM   26  C   UNL     1      -9.574  10.761  64.773  1.00  0.00    -0.262 C  
BRANCH  26  27
HETATM   27  C   UNL     1     -10.250  11.147  63.465  1.00  0.00    -0.390 C  
BRANCH  27  28
HETATM   28  O   UNL     1     -10.691  12.498  63.550  1.00  0.00    -0.435 OA 
BRANCH  28  29
HETATM   29  C   UNL     1     -12.112  12.576  63.532  1.00  0.00    -0.562 C  
BRANCH  29  30
HETATM   30  C   UNL     1     -12.618  12.694  64.961  1.00  0.00    -0.430 C  
BRANCH  30  31
HETATM   31  O   UNL     1     -12.493  14.047  65.387  1.00  0.00    -0.451 OA 
BRANCH  31  32
HETATM   32  C   UNL     1     -12.133  14.125  66.764  1.00  0.00    -0.442 C  
BRANCH  32  33
HETATM   33  C   UNL     1     -11.748  12.737  67.254  1.00  0.00    -0.378 C  
BRANCH  33  34
HETATM   34  O   UNL     1     -11.950  12.664  68.663  1.00  0.00    -0.304 OA 
BRANCH  34  35
HETATM   35  C   UNL     1     -12.012  13.963  69.247  1.00  0.00    -0.357 C  
BRANCH  35  36
HETATM   36  C   UNL     1     -12.598  13.846  70.647  1.00  0.00    -0.335 C  
BRANCH  36  37
HETATM   37  O   UNL     1     -13.316  15.038  70.969  1.00  0.00    -0.403 OA 
BRANCH  37  38
HETATM   38  C   UNL     1     -13.973  14.912  72.237  1.00  0.00    -0.499 C  
BRANCH  38  39
HETATM   39  C   UNL     1     -12.958  15.209  73.335  1.00  0.00    -0.518 C  
HETATM   40  O   UNL     1     -12.251  16.410  73.031  1.00  0.00    -0.509 OA 
HETATM   41  H   UNL     1     -11.619  16.595  73.715  1.00  0.00     0.000 HD 
ENDBRANCH  38  39
ENDBRANCH  37  38
ENDBRANCH  36  37
ENDBRANCH  35  36
ENDBRANCH  34  35
ENDBRANCH  33  34
ENDBRANCH  32  33
ENDBRANCH  31  32
ENDBRANCH  30  31
ENDBRANCH  29  30
ENDBRANCH  28  29
ENDBRANCH  27  28
ENDBRANCH  26  27
ENDBRANCH  25  26
ENDBRANCH  24  25
ENDBRANCH  23  24
ENDBRANCH  22  23
ENDBRANCH  21  22
ENDBRANCH  20  21
ENDBRANCH  19  20
ENDBRANCH  18  19
ENDBRANCH  17  18
ENDBRANCH  16  17
ENDBRANCH  15  16
ENDBRANCH  14  15
ENDBRANCH  13  14
ENDBRANCH  12  13
ENDBRANCH  11  12
ENDBRANCH  10  11
ENDBRANCH   9  10
ENDBRANCH   8   9
ENDBRANCH   7   8
ENDBRANCH   6   7
ENDBRANCH   5   6
ENDBRANCH   4   5
ENDBRANCH   3   4
ENDBRANCH   2   3
TORSDOF 37
ENDMDL
MODEL       16
REMARK 921   NORMALIZED FREE ENERGY PREDICTED BY IDOCK:   -3.92 KCAL/MOL
REMARK 922        TOTAL FREE ENERGY PREDICTED BY IDOCK:  -16.03 KCAL/MOL
REMARK 923 INTER-LIGAND FREE ENERGY PREDICTED BY IDOCK:  -13.24 KCAL/MOL
REMARK 924 INTRA-LIGAND FREE ENERGY PREDICTED BY IDOCK:   -2.79 KCAL/MOL
REMARK 927      BINDING AFFINITY PREDICTED BY RF-SCORE:    0.00 PKD
ROOT
HETATM    1  C   UNL     1      -6.674  14.935  67.939  1.00  0.00    -0.175 C  
HETATM    2  C   UNL     1      -6.506  16.383  67.512  1.00  0.00    -0.187 C  
ENDROOT
BRANCH   2   3
HETATM    3  C   UNL     1      -7.080  17.334  68.559  1.00  0.00    -0.220 C  
BRANCH   3   4
HETATM    4  C   UNL     1      -6.844  18.792  68.171  1.00  0.00    -0.254 C  
BRANCH   4   5
HETATM    5  C   UNL     1      -8.129  19.604  68.312  1.00  0.00    -0.357 C  
BRANCH   5   6
HETATM    6  C   UNL     1      -8.520  20.240  66.983  1.00  0.00    -0.388 C  
BRANCH   6   7
HETATM    7  C   UNL     1     -10.034  20.387  66.880  1.00  0.00    -0.549 C  
BRANCH   7   8
HETATM    8  C   UNL     1     -10.726  19.072  67.214  1.00  0.00    -0.556 C  
BRANCH   8   9
HETATM    9  C   UNL     1     -10.487  18.037  66.119  1.00  0.00    -0.336 C  
BRANCH   9  10
HETATM   10  C   UNL     1     -10.094  16.701  66.734  1.00  0.00    -0.293 C  
BRANCH  10  11
HETATM   11  C   UNL     1      -9.714  15.691  65.662  1.00  0.00    -0.348 C  
BRANCH  11  12
HETATM   12  C   UNL     1     -10.946  15.258  64.884  1.00  0.00    -0.430 C  
BRANCH  12  13
HETATM   13  O   UNL     1     -11.778  14.504  65.757  1.00  0.00    -0.358 OA 
BRANCH  13  14
HETATM   14  C   UNL     1     -12.688  13.700  65.014  1.00  0.00    -0.336 C  
BRANCH  14  15
HETATM   15  C   UNL     1     -12.113  12.303  64.862  1.00  0.00    -0.356 C  
BRANCH  15  16
HETATM   16  O   UNL     1     -11.694  12.139  63.512  1.00  0.00    -0.452 OA 
BRANCH  16  17
HETATM   17  C   UNL     1     -10.335  11.720  63.440  1.00  0.00    -0.439 C  
BRANCH  17  18
HETATM   18  C   UNL     1      -9.967  11.050  64.753  1.00  0.00    -0.294 C  
BRANCH  18  19
HETATM   19  O   UNL     1      -9.387   9.781  64.476  1.00  0.00    -0.261 OA 
BRANCH  19  20
HETATM   20  C   UNL     1      -8.927   9.142  65.668  1.00  0.00    -0.203 C  
BRANCH  20  21
HETATM   21  C   UNL     1      -9.678   9.731  66.856  1.00  0.00    -0.192 C  
BRANCH  21  22
HETATM   22  O   UNL     1     -10.653   8.782  67.298  1.00  0.00    -0.286 OA 
BRANCH  22  23
HETATM   23  C   UNL     1     -10.180   7.447  67.161  1.00  0.00    -0.277 C  
BRANCH  23  24
HETATM   24  C   UNL     1     -10.899   6.563  68.169  1.00  0.00    -0.295 C  
BRANCH  24  25
HETATM   25  O   UNL     1     -10.085   5.427  68.445  1.00  0.00    -0.161 OA 
BRANCH  25  26
HETATM   26  C   UNL     1     -10.266   4.974  69.780  1.00  0.00    -0.266 C  
BRANCH  26  27
HETATM   27  C   UNL     1      -8.991   5.241  70.566  1.00  0.00    -0.136 C  
BRANCH  27  28
HETATM   28  O   UNL     1      -9.317   5.958  71.753  1.00  0.00    -0.149 OA 
BRANCH  28  29
HETATM   29  C   UNL     1     -10.654   5.689  72.164  1.00  0.00    -0.223 C  
BRANCH  29  30
HETATM   30  C   UNL     1     -11.316   6.995  72.572  1.00  0.00    -0.263 C  
BRANCH  30  31
HETATM   31  O   UNL     1     -11.940   7.575  71.430  1.00  0.00    -0.287 OA 
BRANCH  31  32
HETATM   32  C   UNL     1     -12.481   8.859  71.732  1.00  0.00    -0.362 C  
BRANCH  32  33
HETATM   33  C   UNL     1     -11.751   9.909  70.907  1.00  0.00    -0.364 C  
BRANCH  33  34
HETATM   34  O   UNL     1     -12.613  11.025  70.700  1.00  0.00    -0.337 OA 
BRANCH  34  35
HETATM   35  C   UNL     1     -13.268  11.408  71.906  1.00  0.00    -0.380 C  
BRANCH  35  36
HETATM   36  C   UNL     1     -12.839  12.822  72.272  1.00  0.00    -0.045 C  
BRANCH  36  37
HETATM   37  O   UNL     1     -13.994  13.636  72.481  1.00  0.00    -0.681 OA 
BRANCH  37  38
HETATM   38  C   UNL     1     -13.620  14.984  72.792  1.00  0.00    -0.461 C  
BRANCH  38  39
HETATM   39  C   UNL     1     -12.928  15.583  71.573  1.00  0.00    -0.472 C  
HETATM   40  O   UNL     1     -13.826  15.601  70.464  1.00  0.00    -0.818 OA 
HETATM   41  H   UNL     1     -13.395  15.974  69.705  1.00  0.00     0.000 HD 
ENDBRANCH  38  39
ENDBRANCH  37  38
ENDBRANCH  36  37
ENDBRANCH  35  36
ENDBRANCH  34  35
ENDBRANCH  33  34
ENDBRANCH  32  33
ENDBRANCH  31  32
ENDBRANCH  30  31
ENDBRANCH  29  30
ENDBRANCH  28  29
ENDBRANCH  27  28
ENDBRANCH  26  27
ENDBRANCH  25  26
ENDBRANCH  24  25
ENDBRANCH  23  24
ENDBRANCH  22  23
ENDBRANCH  21  22
ENDBRANCH  20  21
ENDBRANCH  19  20
ENDBRANCH  18  19
ENDBRANCH  17  18
ENDBRANCH  16  17
ENDBRANCH  15  16
ENDBRANCH  14  15
ENDBRANCH  13  14
ENDBRANCH  12  13
ENDBRANCH  11  12
ENDBRANCH  10  11
ENDBRANCH   9  10
ENDBRANCH   8   9
ENDBRANCH   7   8
ENDBRANCH   6   7
ENDBRANCH   5   6
ENDBRANCH   4   5
ENDBRANCH   3   4
ENDBRANCH   2   3
TORSDOF 37
ENDMDL
MODEL       17
REMARK 921   NORMALIZED FREE ENERGY PREDICTED BY IDOCK:   -3.90 KCAL/MOL
REMARK 922        TOTAL FREE ENERGY PREDICTED BY IDOCK:  -15.97 KCAL/MOL
REMARK 923 INTER-LIGAND FREE ENERGY PREDICTED BY IDOCK:  -12.12 KCAL/MOL
REMARK 924 INTRA-LIGAND FREE ENERGY PREDICTED BY IDOCK:   -3.85 KCAL/MOL
REMARK 927      BINDING AFFINITY PREDICTED BY RF-SCORE:    0.00 PKD
ROOT
HETATM    1  C   UNL     1     -10.531   5.658  67.674  1.00  0.00    -0.284 C  
HETATM    2  C   UNL     1      -9.349   5.206  68.514  1.00  0.00    -0.161 C  
ENDROOT
BRANCH   2   3
HETATM    3  C   UNL     1      -9.765   4.125  69.508  1.00  0.00    -0.254 C  
BRANCH   3   4
HETATM    4  C   UNL     1      -9.242   4.432  70.910  1.00  0.00    -0.202 C  
BRANCH   4   5
HETATM    5  C   UNL     1     -10.389   4.497  71.914  1.00  0.00    -0.198 C  
BRANCH   5   6
HETATM    6  C   UNL     1     -10.597   5.923  72.411  1.00  0.00    -0.257 C  
BRANCH   6   7
HETATM    7  C   UNL     1     -12.002   6.412  72.077  1.00  0.00    -0.375 C  
BRANCH   7   8
HETATM    8  C   UNL     1     -12.029   7.070  70.704  1.00  0.00    -0.361 C  
BRANCH   8   9
HETATM    9  C   UNL     1     -10.829   7.992  70.517  1.00  0.00    -0.241 C  
BRANCH   9  10
HETATM   10  C   UNL     1     -11.000   9.254  71.352  1.00  0.00    -0.429 C  
BRANCH  10  11
HETATM   11  C   UNL     1     -11.888  10.267  70.646  1.00  0.00    -0.439 C  
BRANCH  11  12
HETATM   12  C   UNL     1     -12.988  10.746  71.577  1.00  0.00    -0.456 C  
BRANCH  12  13
HETATM   13  O   UNL     1     -13.004  12.168  71.549  1.00  0.00    -0.391 OA 
BRANCH  13  14
HETATM   14  C   UNL     1     -12.166  12.659  70.508  1.00  0.00    -0.299 C  
BRANCH  14  15
HETATM   15  C   UNL     1     -12.252  14.174  70.470  1.00  0.00    -0.361 C  
BRANCH  15  16
HETATM   16  O   UNL     1     -12.041  14.598  69.128  1.00  0.00    -0.299 OA 
BRANCH  16  17
HETATM   17  C   UNL     1     -11.715  13.499  68.284  1.00  0.00    -0.359 C  
BRANCH  17  18
HETATM   18  C   UNL     1     -12.002  13.895  66.844  1.00  0.00    -0.433 C  
BRANCH  18  19
HETATM   19  O   UNL     1     -12.473  12.755  66.138  1.00  0.00    -0.512 OA 
BRANCH  19  20
HETATM   20  C   UNL     1     -12.250  12.879  64.732  1.00  0.00    -0.445 C  
BRANCH  20  21
HETATM   21  C   UNL     1     -10.859  13.461  64.511  1.00  0.00    -0.406 C  
BRANCH  21  22
HETATM   22  O   UNL     1     -10.229  12.748  63.443  1.00  0.00    -0.314 OA 
BRANCH  22  23
HETATM   23  C   UNL     1     -10.532  11.359  63.492  1.00  0.00    -0.417 C  
BRANCH  23  24
HETATM   24  C   UNL     1      -9.238  10.577  63.649  1.00  0.00    -0.270 C  
BRANCH  24  25
HETATM   25  O   UNL     1      -8.993  10.371  65.038  1.00  0.00    -0.173 OA 
BRANCH  25  26
HETATM   26  C   UNL     1     -10.032   9.610  65.638  1.00  0.00    -0.251 C  
BRANCH  26  27
HETATM   27  C   UNL     1     -10.224  10.085  67.071  1.00  0.00    -0.237 C  
BRANCH  27  28
HETATM   28  O   UNL     1      -9.131   9.630  67.863  1.00  0.00    -0.126 OA 
BRANCH  28  29
HETATM   29  C   UNL     1      -8.706  10.637  68.776  1.00  0.00    -0.157 C  
BRANCH  29  30
HETATM   30  C   UNL     1      -7.860  11.655  68.029  1.00  0.00    -0.128 C  
BRANCH  30  31
HETATM   31  O   UNL     1      -8.405  12.953  68.238  1.00  0.00    -0.159 OA 
BRANCH  31  32
HETATM   32  C   UNL     1      -7.557  13.964  67.700  1.00  0.00    -0.178 C  
BRANCH  32  33
HETATM   33  C   UNL     1      -8.407  14.971  66.939  1.00  0.00    -0.212 C  
BRANCH  33  34
HETATM   34  O   UNL     1      -7.597  16.083  66.567  1.00  0.00    -0.208 OA 
BRANCH  34  35
HETATM   35  C   UNL     1      -8.390  17.233  66.283  1.00  0.00    -0.254 C  
BRANCH  35  36
HETATM   36  C   UNL     1      -9.861  16.857  66.392  1.00  0.00    -0.305 C  
BRANCH  36  37
HETATM   37  O   UNL     1     -10.601  17.958  66.921  1.00  0.00    -0.338 OA 
BRANCH  37  38
HETATM   38  C   UNL     1     -10.296  18.160  68.307  1.00  0.00    -0.363 C  
BRANCH  38  39
HETATM   39  C   UNL     1     -10.052  19.648  68.532  1.00  0.00    -0.453 C  
HETATM   40  O   UNL     1      -9.928  20.314  67.276  1.00  0.00    -0.415 OA 
HETATM   41  H   UNL     1      -9.776  21.241  67.417  1.00  0.00     0.000 HD 
ENDBRANCH  38  39
ENDBRANCH  37  38
ENDBRANCH  36  37
ENDBRANCH  35  36
ENDBRANCH  34  35
ENDBRANCH  33  34
ENDBRANCH  32  33
ENDBRANCH  31  32
ENDBRANCH  30  31
ENDBRANCH  29  30
ENDBRANCH  28  29
ENDBRANCH  27  28
ENDBRANCH  26  27
ENDBRANCH  25  26
ENDBRANCH  24  25
ENDBRANCH  23  24
ENDBRANCH  22  23
ENDBRANCH  21  22
ENDBRANCH  20  21
ENDBRANCH  19  20
ENDBRANCH  18  19
ENDBRANCH  17  18
ENDBRANCH  16  17
ENDBRANCH  15  16
ENDBRANCH  14  15
ENDBRANCH  13  14
ENDBRANCH  12  13
ENDBRANCH  11  12
ENDBRANCH  10  11
ENDBRANCH   9  10
ENDBRANCH   8   9
ENDBRANCH   7   8
ENDBRANCH   6   7
ENDBRANCH   5   6
ENDBRANCH   4   5
ENDBRANCH   3   4
ENDBRANCH   2   3
TORSDOF 37
ENDMDL
MODEL       18
REMARK 921   NORMALIZED FREE ENERGY PREDICTED BY IDOCK:   -3.90 KCAL/MOL
REMARK 922        TOTAL FREE ENERGY PREDICTED BY IDOCK:  -15.95 KCAL/MOL
REMARK 923 INTER-LIGAND FREE ENERGY PREDICTED BY IDOCK:  -12.89 KCAL/MOL
REMARK 924 INTRA-LIGAND FREE ENERGY PREDICTED BY IDOCK:   -3.06 KCAL/MOL
REMARK 927      BINDING AFFINITY PREDICTED BY RF-SCORE:    0.00 PKD
ROOT
HETATM    1  C   UNL     1     -12.356  16.270  74.104  1.00  0.00    -0.631 C  
HETATM    2  C   UNL     1     -13.261  15.504  73.155  1.00  0.00    -0.657 C  
ENDROOT
BRANCH   2   3
HETATM    3  C   UNL     1     -12.766  15.616  71.716  1.00  0.00    -0.519 C  
BRANCH   3   4
HETATM    4  C   UNL     1     -13.026  14.326  70.940  1.00  0.00    -0.395 C  
BRANCH   4   5
HETATM    5  C   UNL     1     -13.299  13.166  71.894  1.00  0.00    -0.546 C  
BRANCH   5   6
HETATM    6  C   UNL     1     -12.669  11.877  71.379  1.00  0.00    -0.395 C  
BRANCH   6   7
HETATM    7  C   UNL     1     -12.025  12.099  70.015  1.00  0.00    -0.391 C  
BRANCH   7   8
HETATM    8  C   UNL     1     -12.083  10.826  69.180  1.00  0.00    -0.227 C  
BRANCH   8   9
HETATM    9  C   UNL     1     -10.693  10.221  69.011  1.00  0.00    -0.257 C  
BRANCH   9  10
HETATM   10  C   UNL     1     -10.450   9.863  67.551  1.00  0.00    -0.310 C  
BRANCH  10  11
HETATM   11  C   UNL     1     -10.308  11.112  66.694  1.00  0.00    -0.286 C  
BRANCH  11  12
HETATM   12  C   UNL     1      -9.960  10.734  65.264  1.00  0.00    -0.282 C  
BRANCH  12  13
HETATM   13  O   UNL     1     -10.108  11.893  64.452  1.00  0.00    -0.269 OA 
BRANCH  13  14
HETATM   14  C   UNL     1     -11.198  11.739  63.550  1.00  0.00    -0.408 C  
BRANCH  14  15
HETATM   15  C   UNL     1     -12.464  12.267  64.200  1.00  0.00    -0.434 C  
BRANCH  15  16
HETATM   16  O   UNL     1     -12.715  13.572  63.690  1.00  0.00    -0.695 OA 
BRANCH  16  17
HETATM   17  C   UNL     1     -12.128  14.571  64.516  1.00  0.00    -0.484 C  
BRANCH  17  18
HETATM   18  C   UNL     1     -12.374  14.202  65.970  1.00  0.00    -0.445 C  
BRANCH  18  19
HETATM   19  O   UNL     1     -11.172  14.396  66.704  1.00  0.00    -0.321 OA 
BRANCH  19  20
HETATM   20  C   UNL     1     -10.832  15.781  66.798  1.00  0.00    -0.254 C  
BRANCH  20  21
HETATM   21  C   UNL     1     -10.858  16.189  68.266  1.00  0.00    -0.326 C  
BRANCH  21  22
HETATM   22  O   UNL     1     -10.299  17.500  68.387  1.00  0.00    -0.339 OA 
BRANCH  22  23
HETATM   23  C   UNL     1     -10.438  18.240  67.180  1.00  0.00    -0.395 C  
BRANCH  23  24
HETATM   24  C   UNL     1      -9.177  19.059  66.955  1.00  0.00    -0.303 C  
BRANCH  24  25
HETATM   25  O   UNL     1      -8.056  18.310  67.415  1.00  0.00    -0.229 OA 
BRANCH  25  26
HETATM   26  C   UNL     1      -7.504  17.515  66.373  1.00  0.00    -0.299 C  
BRANCH  26  27
HETATM   27  C   UNL     1      -6.682  16.395  66.994  1.00  0.00    -0.204 C  
BRANCH  27  28
HETATM   28  O   UNL     1      -7.523  15.267  67.215  1.00  0.00    -0.191 OA 
BRANCH  28  29
HETATM   29  C   UNL     1      -7.100  14.527  68.355  1.00  0.00    -0.111 C  
BRANCH  29  30
HETATM   30  C   UNL     1      -7.747  13.152  68.318  1.00  0.00    -0.141 C  
BRANCH  30  31
HETATM   31  O   UNL     1      -7.028  12.278  69.183  1.00  0.00    -0.098 OA 
BRANCH  31  32
HETATM   32  C   UNL     1      -7.065  10.934  68.709  1.00  0.00    -0.083 C  
BRANCH  32  33
HETATM   33  C   UNL     1      -6.493  10.016  69.780  1.00  0.00    -0.064 C  
BRANCH  33  34
HETATM   34  O   UNL     1      -7.347  10.038  70.920  1.00  0.00    -0.302 OA 
BRANCH  34  35
HETATM   35  C   UNL     1      -8.045   8.805  71.073  1.00  0.00    -0.156 C  
BRANCH  35  36
HETATM   36  C   UNL     1      -8.016   8.400  72.540  1.00  0.00    -0.106 C  
BRANCH  36  37
HETATM   37  O   UNL     1      -9.345   8.393  73.063  1.00  0.00    -0.253 OA 
BRANCH  37  38
HETATM   38  C   UNL     1     -10.311   8.474  72.007  1.00  0.00    -0.338 C  
BRANCH  38  39
HETATM   39  C   UNL     1     -11.696   8.263  72.608  1.00  0.00    -0.337 C  
HETATM   40  O   UNL     1     -12.219   7.002  72.193  1.00  0.00    -0.410 OA 
HETATM   41  H   UNL     1     -13.082   6.871  72.567  1.00  0.00     0.000 HD 
ENDBRANCH  38  39
ENDBRANCH  37  38
ENDBRANCH  36  37
ENDBRANCH  35  36
ENDBRANCH  34  35
ENDBRANCH  33  34
ENDBRANCH  32  33
ENDBRANCH  31  32
ENDBRANCH  30  31
ENDBRANCH  29  30
ENDBRANCH  28  29
ENDBRANCH  27  28
ENDBRANCH  26  27
ENDBRANCH  25  26
ENDBRANCH  24  25
ENDBRANCH  23  24
ENDBRANCH  22  23
ENDBRANCH  21  22
ENDBRANCH  20  21
ENDBRANCH  19  20
ENDBRANCH  18  19
ENDBRANCH  17  18
ENDBRANCH  16  17
ENDBRANCH  15  16
ENDBRANCH  14  15
ENDBRANCH  13  14
ENDBRANCH  12  13
ENDBRANCH  11  12
ENDBRANCH  10  11
ENDBRANCH   9  10
ENDBRANCH   8   9
ENDBRANCH   7   8
ENDBRANCH   6   7
ENDBRANCH   5   6
ENDBRANCH   4   5
ENDBRANCH   3   4
ENDBRANCH   2   3
TORSDOF 37
ENDMDL
MODEL       19
REMARK 921   NORMALIZED FREE ENERGY PREDICTED BY IDOCK:   -3.88 KCAL/MOL
REMARK 922        TOTAL FREE ENERGY PREDICTED BY IDOCK:  -15.90 KCAL/MOL
REMARK 923 INTER-LIGAND FREE ENERGY PREDICTED BY IDOCK:  -12.68 KCAL/MOL
REMARK 924 INTRA-LIGAND FREE ENERGY PREDICTED BY IDOCK:   -3.22 KCAL/MOL
REMARK 927      BINDING AFFINITY PREDICTED BY RF-SCORE:    0.00 PKD
ROOT
HETATM    1  C   UNL     1     -12.361  15.411  70.533  1.00  0.00    -0.452 C  
HETATM    2  C   UNL     1     -11.854  15.417  69.101  1.00  0.00    -0.357 C  
ENDROOT
BRANCH   2   3
HETATM    3  C   UNL     1     -10.440  14.846  69.017  1.00  0.00    -0.247 C  
BRANCH   3   4
HETATM    4  C   UNL     1      -9.393  15.915  69.323  1.00  0.00    -0.259 C  
BRANCH   4   5
HETATM    5  C   UNL     1      -7.991  15.406  68.999  1.00  0.00    -0.202 C  
BRANCH   5   6
HETATM    6  C   UNL     1      -7.676  15.582  67.518  1.00  0.00    -0.195 C  
BRANCH   6   7
HETATM    7  C   UNL     1      -6.496  16.529  67.326  1.00  0.00    -0.216 C  
BRANCH   7   8
HETATM    8  C   UNL     1      -6.982  17.922  66.949  1.00  0.00    -0.211 C  
BRANCH   8   9
HETATM    9  C   UNL     1      -6.827  18.889  68.119  1.00  0.00    -0.261 C  
BRANCH   9  10
HETATM   10  C   UNL     1      -8.184  19.449  68.522  1.00  0.00    -0.392 C  
BRANCH  10  11
HETATM   11  C   UNL     1      -9.083  19.642  67.310  1.00  0.00    -0.396 C  
BRANCH  11  12
HETATM   12  C   UNL     1     -10.538  19.434  67.693  1.00  0.00    -0.458 C  
BRANCH  12  13
HETATM   13  O   UNL     1     -10.962  18.185  67.161  1.00  0.00    -0.263 OA 
BRANCH  13  14
HETATM   14  C   UNL     1     -10.437  17.992  65.852  1.00  0.00    -0.264 C  
BRANCH  14  15
HETATM   15  C   UNL     1     -10.602  16.535  65.457  1.00  0.00    -0.295 C  
BRANCH  15  16
HETATM   16  O   UNL     1     -11.322  16.485  64.230  1.00  0.00    -1.020 OA 
BRANCH  16  17
HETATM   17  C   UNL     1     -12.343  15.495  64.269  1.00  0.00     0.004 C  
BRANCH  17  18
HETATM   18  C   UNL     1     -11.685  14.127  64.346  1.00  0.00    -0.392 C  
BRANCH  18  19
HETATM   19  O   UNL     1     -12.404  13.223  63.516  1.00  0.00    -0.698 OA 
BRANCH  19  20
HETATM   20  C   UNL     1     -11.983  11.873  63.721  1.00  0.00    -0.445 C  
BRANCH  20  21
HETATM   21  C   UNL     1     -10.554  11.727  63.211  1.00  0.00    -0.368 C  
BRANCH  21  22
HETATM   22  O   UNL     1      -9.886  10.736  63.997  1.00  0.00    -0.277 OA 
BRANCH  22  23
HETATM   23  C   UNL     1     -10.209  10.860  65.377  1.00  0.00    -0.277 C  
BRANCH  23  24
HETATM   24  C   UNL     1      -9.987   9.519  66.058  1.00  0.00    -0.278 C  
BRANCH  24  25
HETATM   25  O   UNL     1     -10.654   9.529  67.317  1.00  0.00    -0.264 OA 
BRANCH  25  26
HETATM   26  C   UNL     1     -11.233  10.800  67.584  1.00  0.00    -0.299 C  
BRANCH  26  27
HETATM   27  C   UNL     1     -11.023  11.134  69.054  1.00  0.00    -0.235 C  
BRANCH  27  28
HETATM   28  O   UNL     1     -12.216  10.840  69.773  1.00  0.00    -0.323 OA 
BRANCH  28  29
HETATM   29  C   UNL     1     -12.325  11.649  70.940  1.00  0.00    -0.336 C  
BRANCH  29  30
HETATM   30  C   UNL     1     -13.357  11.035  71.872  1.00  0.00    -0.318 C  
BRANCH  30  31
HETATM   31  O   UNL     1     -12.918   9.736  72.258  1.00  0.00    -0.397 OA 
BRANCH  31  32
HETATM   32  C   UNL     1     -13.872   8.740  71.901  1.00  0.00    -0.442 C  
BRANCH  32  33
HETATM   33  C   UNL     1     -13.137   7.460  71.532  1.00  0.00    -0.374 C  
BRANCH  33  34
HETATM   34  O   UNL     1     -11.737   7.721  71.484  1.00  0.00    -0.265 OA 
BRANCH  34  35
HETATM   35  C   UNL     1     -11.220   7.549  70.167  1.00  0.00    -0.196 C  
BRANCH  35  36
HETATM   36  C   UNL     1     -11.168   6.061  69.848  1.00  0.00    -0.368 C  
BRANCH  36  37
HETATM   37  O   UNL     1     -10.539   5.360  70.921  1.00  0.00    -0.246 OA 
BRANCH  37  38
HETATM   38  C   UNL     1      -9.642   4.359  70.422  1.00  0.00    -0.196 C  
BRANCH  38  39
HETATM   39  C   UNL     1      -8.224   4.918  70.476  1.00  0.00    -0.096 C  
HETATM   40  O   UNL     1      -8.153   5.969  71.439  1.00  0.00    -0.111 OA 
HETATM   41  H   UNL     1      -7.269   6.316  71.472  1.00  0.00     0.000 HD 
ENDBRANCH  38  39
ENDBRANCH  37  38
ENDBRANCH  36  37
ENDBRANCH  35  36
ENDBRANCH  34  35
ENDBRANCH  33  34
ENDBRANCH  32  33
ENDBRANCH  31  32
ENDBRANCH  30  31
ENDBRANCH  29  30
ENDBRANCH  28  29
ENDBRANCH  27  28
ENDBRANCH  26  27
ENDBRANCH  25  26
ENDBRANCH  24  25
ENDBRANCH  23  24
ENDBRANCH  22  23
ENDBRANCH  21  22
ENDBRANCH  20  21
ENDBRANCH  19  20
ENDBRANCH  18  19
ENDBRANCH  17  18
ENDBRANCH  16  17
ENDBRANCH  15  16
ENDBRANCH  14  15
ENDBRANCH  13  14
ENDBRANCH  12  13
ENDBRANCH  11  12
ENDBRANCH  10  11
ENDBRANCH   9  10
ENDBRANCH   8   9
ENDBRANCH   7   8
ENDBRANCH   6   7
ENDBRANCH   5   6
ENDBRANCH   4   5
ENDBRANCH   3   4
ENDBRANCH   2   3
TORSDOF 37
ENDMDL
MODEL       20
REMARK 921   NORMALIZED FREE ENERGY PREDICTED BY IDOCK:   -3.88 KCAL/MOL
REMARK 922        TOTAL FREE ENERGY PREDICTED BY IDOCK:  -15.88 KCAL/MOL
REMARK 923 INTER-LIGAND FREE ENERGY PREDICTED BY IDOCK:  -11.35 KCAL/MOL
REMARK 924 INTRA-LIGAND FREE ENERGY PREDICTED BY IDOCK:   -4.53 KCAL/MOL
REMARK 927      BINDING AFFINITY PREDICTED BY RF-SCORE:    0.00 PKD
ROOT
HETATM    1  C   UNL     1     -10.192  19.724  67.850  1.00  0.00    -0.576 C  
HETATM    2  C   UNL     1      -9.531  19.537  66.495  1.00  0.00    -0.450 C  
ENDROOT
BRANCH   2   3
HETATM    3  C   UNL     1      -8.021  19.367  66.640  1.00  0.00    -0.300 C  
BRANCH   3   4
HETATM    4  C   UNL     1      -7.560  18.021  66.084  1.00  0.00    -0.285 C  
BRANCH   4   5
HETATM    5  C   UNL     1      -7.523  16.964  67.184  1.00  0.00    -0.208 C  
BRANCH   5   6
HETATM    6  C   UNL     1      -8.364  15.751  66.803  1.00  0.00    -0.309 C  
BRANCH   6   7
HETATM    7  C   UNL     1      -9.611  15.663  67.677  1.00  0.00    -0.220 C  
BRANCH   7   8
HETATM    8  C   UNL     1     -10.870  15.712  66.822  1.00  0.00    -0.277 C  
BRANCH   8   9
HETATM    9  C   UNL     1     -10.523  15.921  65.351  1.00  0.00    -0.429 C  
BRANCH   9  10
HETATM   10  C   UNL     1     -11.494  15.150  64.467  1.00  0.00    -0.319 C  
BRANCH  10  11
HETATM   11  C   UNL     1     -11.140  13.672  64.417  1.00  0.00    -0.378 C  
BRANCH  11  12
HETATM   12  C   UNL     1     -12.369  12.824  64.701  1.00  0.00    -0.459 C  
BRANCH  12  13
HETATM   13  O   UNL     1     -12.321  12.418  66.063  1.00  0.00    -0.627 OA 
BRANCH  13  14
HETATM   14  C   UNL     1     -11.102  11.737  66.342  1.00  0.00    -0.307 C  
BRANCH  14  15
HETATM   15  C   UNL     1     -10.817  11.812  67.832  1.00  0.00    -0.211 C  
BRANCH  15  16
HETATM   16  O   UNL     1     -11.661  12.808  68.397  1.00  0.00    -0.302 OA 
BRANCH  16  17
HETATM   17  C   UNL     1     -12.033  12.475  69.730  1.00  0.00    -0.289 C  
BRANCH  17  18
HETATM   18  C   UNL     1     -12.228  10.970  69.815  1.00  0.00    -0.318 C  
BRANCH  18  19
HETATM   19  O   UNL     1     -12.017  10.554  71.158  1.00  0.00    -0.352 OA 
BRANCH  19  20
HETATM   20  C   UNL     1     -13.247  10.469  71.881  1.00  0.00    -0.420 C  
BRANCH  20  21
HETATM   21  C   UNL     1     -13.575   8.999  72.111  1.00  0.00    -0.469 C  
BRANCH  21  22
HETATM   22  O   UNL     1     -12.366   8.240  72.019  1.00  0.00    -0.314 OA 
BRANCH  22  23
HETATM   23  C   UNL     1     -12.575   7.005  71.343  1.00  0.00    -0.386 C  
BRANCH  23  24
HETATM   24  C   UNL     1     -11.384   6.095  71.599  1.00  0.00    -0.284 C  
BRANCH  24  25
HETATM   25  O   UNL     1     -10.838   5.693  70.346  1.00  0.00    -0.292 OA 
BRANCH  25  26
HETATM   26  C   UNL     1      -9.937   4.603  70.501  1.00  0.00    -0.225 C  
BRANCH  26  27
HETATM   27  C   UNL     1      -9.682   4.385  71.986  1.00  0.00    -0.166 C  
BRANCH  27  28
HETATM   28  O   UNL     1      -8.317   4.029  72.176  1.00  0.00    -0.096 OA 
BRANCH  28  29
HETATM   29  C   UNL     1      -7.740   4.765  73.250  1.00  0.00    -0.092 C  
BRANCH  29  30
HETATM   30  C   UNL     1      -7.540   6.206  72.810  1.00  0.00    -0.101 C  
BRANCH  30  31
HETATM   31  O   UNL     1      -8.359   7.052  73.609  1.00  0.00    -0.116 OA 
BRANCH  31  32
HETATM   32  C   UNL     1      -8.771   8.209  72.885  1.00  0.00    -0.224 C  
BRANCH  32  33
HETATM   33  C   UNL     1      -8.258   8.106  71.456  1.00  0.00    -0.125 C  
BRANCH  33  34
HETATM   34  O   UNL     1      -9.059   8.927  70.610  1.00  0.00    -0.169 OA 
BRANCH  34  35
HETATM   35  C   UNL     1      -8.280   9.940  69.979  1.00  0.00    -0.168 C  
BRANCH  35  36
HETATM   36  C   UNL     1      -7.549   9.331  68.790  1.00  0.00    -0.079 C  
BRANCH  36  37
HETATM   37  O   UNL     1      -8.395   9.357  67.640  1.00  0.00    -0.117 OA 
BRANCH  37  38
HETATM   38  C   UNL     1      -8.778   8.030  67.257  1.00  0.00    -0.131 C  
BRANCH  38  39
HETATM   39  C   UNL     1     -10.295   7.993  67.108  1.00  0.00    -0.325 C  
HETATM   40  O   UNL     1     -10.912   8.061  68.392  1.00  0.00    -0.430 OA 
HETATM   41  H   UNL     1     -11.857   8.038  68.299  1.00  0.00     0.000 HD 
ENDBRANCH  38  39
ENDBRANCH  37  38
ENDBRANCH  36  37
ENDBRANCH  35  36
ENDBRANCH  34  35
ENDBRANCH  33  34
ENDBRANCH  32  33
ENDBRANCH  31  32
ENDBRANCH  30  31
ENDBRANCH  29  30
ENDBRANCH  28  29
ENDBRANCH  27  28
ENDBRANCH  26  27
ENDBRANCH  25  26
ENDBRANCH  24  25
ENDBRANCH  23  24
ENDBRANCH  22  23
ENDBRANCH  21  22
ENDBRANCH  20  21
ENDBRANCH  19  20
ENDBRANCH  18  19
ENDBRANCH  17  18
ENDBRANCH  16  17
ENDBRANCH  15  16
ENDBRANCH  14  15
ENDBRANCH  13  14
ENDBRANCH  12  13
ENDBRANCH  11  12
ENDBRANCH  10  11
ENDBRANCH   9  10
ENDBRANCH   8   9
ENDBRANCH   7   8
ENDBRANCH   6   7
ENDBRANCH   5   6
ENDBRANCH   4   5
ENDBRANCH   3   4
ENDBRANCH   2   3
TORSDOF 37
ENDMDL
MODEL       21
REMARK 921   NORMALIZED FREE ENERGY PREDICTED BY IDOCK:   -3.87 KCAL/MOL
REMARK 922        TOTAL FREE ENERGY PREDICTED BY IDOCK:  -15.87 KCAL/MOL
REMARK 923 INTER-LIGAND FREE ENERGY PREDICTED BY IDOCK:  -12.39 KCAL/MOL
REMARK 924 INTRA-LIGAND FREE ENERGY PREDICTED BY IDOCK:   -3.48 KCAL/MOL
REMARK 927      BINDING AFFINITY PREDICTED BY RF-SCORE:    0.00 PKD
ROOT
HETATM    1  C   UNL     1     -12.838   7.266  71.456  1.00  0.00    -0.430 C  
HETATM    2  C   UNL     1     -12.052   8.522  71.788  1.00  0.00    -0.391 C  
ENDROOT
BRANCH   2   3
HETATM    3  C   UNL     1     -12.574   9.721  71.000  1.00  0.00    -0.406 C  
BRANCH   3   4
HETATM    4  C   UNL     1     -13.357  10.675  71.899  1.00  0.00    -0.454 C  
BRANCH   4   5
HETATM    5  C   UNL     1     -12.933  12.121  71.652  1.00  0.00    -0.427 C  
BRANCH   5   6
HETATM    6  C   UNL     1     -13.874  13.092  72.355  1.00  0.00    -0.583 C  
BRANCH   6   7
HETATM    7  C   UNL     1     -13.170  14.414  72.641  1.00  0.00    -0.586 C  
BRANCH   7   8
HETATM    8  C   UNL     1     -12.126  14.710  71.572  1.00  0.00    -0.413 C  
BRANCH   8   9
HETATM    9  C   UNL     1     -12.650  15.730  70.566  1.00  0.00    -0.336 C  
BRANCH   9  10
HETATM   10  C   UNL     1     -11.852  15.650  69.272  1.00  0.00    -0.378 C  
BRANCH  10  11
HETATM   11  C   UNL     1     -11.590  14.205  68.874  1.00  0.00    -0.345 C  
BRANCH  11  12
HETATM   12  C   UNL     1     -11.833  14.014  67.387  1.00  0.00    -0.409 C  
BRANCH  12  13
HETATM   13  O   UNL     1     -10.827  14.726  66.679  1.00  0.00    -0.307 OA 
BRANCH  13  14
HETATM   14  C   UNL     1     -11.194  14.890  65.313  1.00  0.00    -0.369 C  
BRANCH  14  15
HETATM   15  C   UNL     1     -12.502  14.163  65.056  1.00  0.00    -0.419 C  
BRANCH  15  16
HETATM   16  O   UNL     1     -12.457  13.617  63.742  1.00  0.00    -0.703 OA 
BRANCH  16  17
HETATM   17  C   UNL     1     -12.402  12.195  63.774  1.00  0.00    -0.532 C  
BRANCH  17  18
HETATM   18  C   UNL     1     -11.004  11.757  63.369  1.00  0.00    -0.380 C  
BRANCH  18  19
HETATM   19  O   UNL     1     -10.209  11.614  64.539  1.00  0.00    -0.260 OA 
BRANCH  19  20
HETATM   20  C   UNL     1     -10.135  10.251  64.959  1.00  0.00    -0.283 C  
BRANCH  20  21
HETATM   21  C   UNL     1     -10.096  10.213  66.482  1.00  0.00    -0.234 C  
BRANCH  21  22
HETATM   22  O   UNL     1      -9.413  11.379  66.952  1.00  0.00    -0.175 OA 
BRANCH  22  23
HETATM   23  C   UNL     1      -9.104  11.279  68.337  1.00  0.00    -0.170 C  
BRANCH  23  24
HETATM   24  C   UNL     1      -9.492   9.894  68.832  1.00  0.00    -0.170 C  
BRANCH  24  25
HETATM   25  O   UNL     1      -9.002   9.728  70.159  1.00  0.00    -0.226 OA 
BRANCH  25  26
HETATM   26  C   UNL     1      -7.590   9.559  70.171  1.00  0.00    -0.142 C  
BRANCH  26  27
HETATM   27  C   UNL     1      -7.241   8.411  71.107  1.00  0.00    -0.068 C  
BRANCH  27  28
HETATM   28  O   UNL     1      -8.048   8.502  72.276  1.00  0.00    -0.232 OA 
BRANCH  28  29
HETATM   29  C   UNL     1      -7.420   7.864  73.384  1.00  0.00    -0.140 C  
BRANCH  29  30
HETATM   30  C   UNL     1      -8.489   7.422  74.369  1.00  0.00    -0.210 C  
BRANCH  30  31
HETATM   31  O   UNL     1      -9.644   7.009  73.646  1.00  0.00    -0.180 OA 
BRANCH  31  32
HETATM   32  C   UNL     1     -10.033   5.685  74.003  1.00  0.00    -0.212 C  
BRANCH  32  33
HETATM   33  C   UNL     1     -10.405   4.921  72.740  1.00  0.00    -0.190 C  
BRANCH  33  34
HETATM   34  O   UNL     1      -9.721   5.491  71.628  1.00  0.00    -0.156 OA 
BRANCH  34  35
HETATM   35  C   UNL     1      -9.852   4.679  70.464  1.00  0.00    -0.231 C  
BRANCH  35  36
HETATM   36  C   UNL     1      -8.747   5.043  69.482  1.00  0.00    -0.091 C  
BRANCH  36  37
HETATM   37  O   UNL     1      -9.067   6.273  68.831  1.00  0.00    -0.125 OA 
BRANCH  37  38
HETATM   38  C   UNL     1      -9.293   6.066  67.431  1.00  0.00    -0.111 C  
BRANCH  38  39
HETATM   39  C   UNL     1     -10.716   6.503  67.105  1.00  0.00    -0.368 C  
HETATM   40  O   UNL     1     -11.436   6.752  68.311  1.00  0.00    -0.554 OA 
HETATM   41  H   UNL     1     -12.323   7.024  68.108  1.00  0.00     0.000 HD 
ENDBRANCH  38  39
ENDBRANCH  37  38
ENDBRANCH  36  37
ENDBRANCH  35  36
ENDBRANCH  34  35
ENDBRANCH  33  34
ENDBRANCH  32  33
ENDBRANCH  31  32
ENDBRANCH  30  31
ENDBRANCH  29  30
ENDBRANCH  28  29
ENDBRANCH  27  28
ENDBRANCH  26  27
ENDBRANCH  25  26
ENDBRANCH  24  25
ENDBRANCH  23  24
ENDBRANCH  22  23
ENDBRANCH  21  22
ENDBRANCH  20  21
ENDBRANCH  19  20
ENDBRANCH  18  19
ENDBRANCH  17  18
ENDBRANCH  16  17
ENDBRANCH  15  16
ENDBRANCH  14  15
ENDBRANCH  13  14
ENDBRANCH  12  13
ENDBRANCH  11  12
ENDBRANCH  10  11
ENDBRANCH   9  10
ENDBRANCH   8   9
ENDBRANCH   7   8
ENDBRANCH   6   7
ENDBRANCH   5   6
ENDBRANCH   4   5
ENDBRANCH   3   4
ENDBRANCH   2   3
TORSDOF 37
ENDMDL
MODEL       22
REMARK 921   NORMALIZED FREE ENERGY PREDICTED BY IDOCK:   -3.85 KCAL/MOL
REMARK 922        TOTAL FREE ENERGY PREDICTED BY IDOCK:  -15.79 KCAL/MOL
REMARK 923 INTER-LIGAND FREE ENERGY PREDICTED BY IDOCK:  -13.15 KCAL/MOL
REMARK 924 INTRA-LIGAND FREE ENERGY PREDICTED BY IDOCK:   -2.63 KCAL/MOL
REMARK 927      BINDING AFFINITY PREDICTED BY RF-SCORE:    0.00 PKD
ROOT
HETATM    1  C   UNL     1     -12.315  15.378  74.198  1.00  0.00    -0.800 C  
HETATM    2  C   UNL     1     -13.276  14.871  73.136  1.00  0.00    -0.568 C  
ENDROOT
BRANCH   2   3
HETATM    3  C   UNL     1     -12.822  15.291  71.740  1.00  0.00    -0.457 C  
BRANCH   3   4
HETATM    4  C   UNL     1     -12.248  14.106  70.966  1.00  0.00    -0.432 C  
BRANCH   4   5
HETATM    5  C   UNL     1     -12.024  14.475  69.501  1.00  0.00    -0.363 C  
BRANCH   5   6
HETATM    6  C   UNL     1     -11.467  15.888  69.374  1.00  0.00    -0.351 C  
BRANCH   6   7
HETATM    7  C   UNL     1      -9.942  15.867  69.367  1.00  0.00    -0.274 C  
BRANCH   7   8
HETATM    8  C   UNL     1      -9.424  14.772  68.444  1.00  0.00    -0.213 C  
BRANCH   8   9
HETATM    9  C   UNL     1      -7.969  14.437  68.758  1.00  0.00    -0.133 C  
BRANCH   9  10
HETATM   10  C   UNL     1      -7.088  15.658  68.533  1.00  0.00    -0.116 C  
BRANCH  10  11
HETATM   11  C   UNL     1      -6.976  15.993  67.054  1.00  0.00    -0.209 C  
BRANCH  11  12
HETATM   12  C   UNL     1      -7.165  17.484  66.833  1.00  0.00    -0.197 C  
BRANCH  12  13
HETATM   13  O   UNL     1      -8.175  17.661  65.847  1.00  0.00    -0.534 OA 
BRANCH  13  14
HETATM   14  C   UNL     1      -9.242  18.454  66.356  1.00  0.00    -0.273 C  
BRANCH  14  15
HETATM   15  C   UNL     1     -10.535  17.664  66.278  1.00  0.00    -0.292 C  
BRANCH  15  16
HETATM   16  O   UNL     1     -10.663  17.149  64.957  1.00  0.00    -0.712 OA 
BRANCH  16  17
HETATM   17  C   UNL     1     -10.925  15.750  64.971  1.00  0.00    -0.417 C  
BRANCH  17  18
HETATM   18  C   UNL     1     -12.303  15.512  64.374  1.00  0.00    -0.001 C  
BRANCH  18  19
HETATM   19  O   UNL     1     -12.348  14.199  63.829  1.00  0.00    -0.716 OA 
BRANCH  19  20
HETATM   20  C   UNL     1     -11.195  13.439  64.196  1.00  0.00    -0.350 C  
BRANCH  20  21
HETATM   21  C   UNL     1     -11.262  12.087  63.496  1.00  0.00    -0.445 C  
BRANCH  21  22
HETATM   22  O   UNL     1     -10.664  11.102  64.343  1.00  0.00    -0.350 OA 
BRANCH  22  23
HETATM   23  C   UNL     1     -10.369  11.631  65.631  1.00  0.00    -0.262 C  
BRANCH  23  24
HETATM   24  C   UNL     1     -10.219  10.481  66.614  1.00  0.00    -0.233 C  
BRANCH  24  25
HETATM   25  O   UNL     1      -9.961   9.285  65.884  1.00  0.00    -0.307 OA 
BRANCH  25  26
HETATM   26  C   UNL     1     -10.106   8.135  66.709  1.00  0.00    -0.295 C  
BRANCH  26  27
HETATM   27  C   UNL     1      -9.036   7.122  66.330  1.00  0.00    -0.155 C  
BRANCH  27  28
HETATM   28  O   UNL     1      -9.233   5.932  67.086  1.00  0.00    -0.115 OA 
BRANCH  28  29
HETATM   29  C   UNL     1      -9.718   6.227  68.392  1.00  0.00    -0.124 C  
BRANCH  29  30
HETATM   30  C   UNL     1     -10.188   4.939  69.047  1.00  0.00    -0.094 C  
BRANCH  30  31
HETATM   31  O   UNL     1     -10.581   5.217  70.387  1.00  0.00    -0.268 OA 
BRANCH  31  32
HETATM   32  C   UNL     1     -11.278   6.458  70.475  1.00  0.00    -0.352 C  
BRANCH  32  33
HETATM   33  C   UNL     1     -11.516   6.788  71.942  1.00  0.00    -0.282 C  
BRANCH  33  34
HETATM   34  O   UNL     1     -12.892   6.584  72.250  1.00  0.00    -0.130 OA 
BRANCH  34  35
HETATM   35  C   UNL     1     -13.730   7.455  71.495  1.00  0.00    -0.371 C  
BRANCH  35  36
HETATM   36  C   UNL     1     -13.747   8.824  72.162  1.00  0.00    -0.447 C  
BRANCH  36  37
HETATM   37  O   UNL     1     -13.758   9.846  71.165  1.00  0.00    -0.276 OA 
BRANCH  37  38
HETATM   38  C   UNL     1     -12.808  10.873  71.475  1.00  0.00    -0.454 C  
BRANCH  38  39
HETATM   39  C   UNL     1     -11.584  10.677  70.588  1.00  0.00    -0.336 C  
HETATM   40  O   UNL     1     -11.889   9.765  69.534  1.00  0.00    -0.452 OA 
HETATM   41  H   UNL     1     -11.126   9.643  68.981  1.00  0.00     0.000 HD 
ENDBRANCH  38  39
ENDBRANCH  37  38
ENDBRANCH  36  37
ENDBRANCH  35  36
ENDBRANCH  34  35
ENDBRANCH  33  34
ENDBRANCH  32  33
ENDBRANCH  31  32
ENDBRANCH  30  31
ENDBRANCH  29  30
ENDBRANCH  28  29
ENDBRANCH  27  28
ENDBRANCH  26  27
ENDBRANCH  25  26
ENDBRANCH  24  25
ENDBRANCH  23  24
ENDBRANCH  22  23
ENDBRANCH  21  22
ENDBRANCH  20  21
ENDBRANCH  19  20
ENDBRANCH  18  19
ENDBRANCH  17  18
ENDBRANCH  16  17
ENDBRANCH  15  16
ENDBRANCH  14  15
ENDBRANCH  13  14
ENDBRANCH  12  13
ENDBRANCH  11  12
ENDBRANCH  10  11
ENDBRANCH   9  10
ENDBRANCH   8   9
ENDBRANCH   7   8
ENDBRANCH   6   7
ENDBRANCH   5   6
ENDBRANCH   4   5
ENDBRANCH   3   4
ENDBRANCH   2   3
TORSDOF 37
ENDMDL
MODEL       23
REMARK 921   NORMALIZED FREE ENERGY PREDICTED BY IDOCK:   -3.83 KCAL/MOL
REMARK 922        TOTAL FREE ENERGY PREDICTED BY IDOCK:  -15.73 KCAL/MOL
REMARK 923 INTER-LIGAND FREE ENERGY PREDICTED BY IDOCK:  -11.64 KCAL/MOL
REMARK 924 INTRA-LIGAND FREE ENERGY PREDICTED BY IDOCK:   -4.10 KCAL/MOL
REMARK 927      BINDING AFFINITY PREDICTED BY RF-SCORE:    0.00 PKD
ROOT
HETATM    1  C   UNL     1     -10.685  19.572  67.332  1.00  0.00    -0.589 C  
HETATM    2  C   UNL     1      -9.218  19.960  67.257  1.00  0.00    -0.453 C  
ENDROOT
BRANCH   2   3
HETATM    3  C   UNL     1      -8.489  19.148  66.190  1.00  0.00    -0.241 C  
BRANCH   3   4
HETATM    4  C   UNL     1      -7.580  18.095  66.820  1.00  0.00    -0.248 C  
BRANCH   4   5
HETATM    5  C   UNL     1      -8.294  16.750  66.915  1.00  0.00    -0.241 C  
BRANCH   5   6
HETATM    6  C   UNL     1      -8.227  16.197  68.334  1.00  0.00    -0.172 C  
BRANCH   6   7
HETATM    7  C   UNL     1      -9.625  16.070  68.931  1.00  0.00    -0.236 C  
BRANCH   7   8
HETATM    8  C   UNL     1     -10.679  16.055  67.831  1.00  0.00    -0.316 C  
BRANCH   8   9
HETATM    9  C   UNL     1     -11.751  15.009  68.117  1.00  0.00    -0.335 C  
BRANCH   9  10
HETATM   10  C   UNL     1     -12.122  14.271  66.838  1.00  0.00    -0.440 C  
BRANCH  10  11
HETATM   11  C   UNL     1     -11.434  14.886  65.628  1.00  0.00    -0.290 C  
BRANCH  11  12
HETATM   12  C   UNL     1     -12.087  14.400  64.345  1.00  0.00    -0.470 C  
BRANCH  12  13
HETATM   13  O   UNL     1     -12.565  13.079  64.565  1.00  0.00    -0.598 OA 
BRANCH  13  14
HETATM   14  C   UNL     1     -12.230  12.234  63.470  1.00  0.00    -0.568 C  
BRANCH  14  15
HETATM   15  C   UNL     1     -10.766  11.843  63.570  1.00  0.00    -0.442 C  
BRANCH  15  16
HETATM   16  O   UNL     1     -10.526  11.351  64.884  1.00  0.00    -0.276 OA 
BRANCH  16  17
HETATM   17  C   UNL     1      -9.824  10.114  64.853  1.00  0.00    -0.319 C  
BRANCH  17  18
HETATM   18  C   UNL     1      -9.097  10.005  63.522  1.00  0.00    -0.272 C  
BRANCH  18  19
HETATM   19  O   UNL     1      -8.339   8.801  63.509  1.00  0.00    -0.178 OA 
BRANCH  19  20
HETATM   20  C   UNL     1      -6.939   9.065  63.405  1.00  0.00    -0.089 C  
BRANCH  20  21
HETATM   21  C   UNL     1      -6.371   9.238  64.808  1.00  0.00    -0.075 C  
BRANCH  21  22
HETATM   22  O   UNL     1      -5.980  10.603  64.980  1.00  0.00    -0.122 OA 
BRANCH  22  23
HETATM   23  C   UNL     1      -6.117  11.019  66.333  1.00  0.00    -0.141 C  
BRANCH  23  24
HETATM   24  C   UNL     1      -6.717   9.880  67.142  1.00  0.00    -0.074 C  
BRANCH  24  25
HETATM   25  O   UNL     1      -7.548  10.429  68.161  1.00  0.00    -0.089 OA 
BRANCH  25  26
HETATM   26  C   UNL     1      -7.914  11.770  67.861  1.00  0.00    -0.141 C  
BRANCH  26  27
HETATM   27  C   UNL     1      -9.369  11.981  68.252  1.00  0.00    -0.197 C  
BRANCH  27  28
HETATM   28  O   UNL     1     -10.067  10.745  68.135  1.00  0.00    -0.157 OA 
BRANCH  28  29
HETATM   29  C   UNL     1     -11.473  10.938  68.245  1.00  0.00    -0.305 C  
BRANCH  29  30
HETATM   30  C   UNL     1     -11.796  11.426  69.647  1.00  0.00    -0.362 C  
BRANCH  30  31
HETATM   31  O   UNL     1     -12.155  10.310  70.455  1.00  0.00    -0.279 OA 
BRANCH  31  32
HETATM   32  C   UNL     1     -12.912  10.716  71.593  1.00  0.00    -0.477 C  
BRANCH  32  33
HETATM   33  C   UNL     1     -13.514   9.484  72.252  1.00  0.00    -0.440 C  
BRANCH  33  34
HETATM   34  O   UNL     1     -12.514   8.475  72.363  1.00  0.00    -0.373 OA 
BRANCH  34  35
HETATM   35  C   UNL     1     -12.979   7.223  71.867  1.00  0.00    -0.250 C  
BRANCH  35  36
HETATM   36  C   UNL     1     -11.899   6.609  70.987  1.00  0.00    -0.372 C  
BRANCH  36  37
HETATM   37  O   UNL     1     -10.612   6.894  71.535  1.00  0.00    -0.216 OA 
BRANCH  37  38
HETATM   38  C   UNL     1      -9.888   7.803  70.696  1.00  0.00    -0.182 C  
BRANCH  38  39
HETATM   39  C   UNL     1      -9.151   8.796  71.588  1.00  0.00    -0.244 C  
HETATM   40  O   UNL     1      -8.494   9.775  70.786  1.00  0.00    -0.365 OA 
HETATM   41  H   UNL     1      -8.035  10.393  71.342  1.00  0.00     0.000 HD 
ENDBRANCH  38  39
ENDBRANCH  37  38
ENDBRANCH  36  37
ENDBRANCH  35  36
ENDBRANCH  34  35
ENDBRANCH  33  34
ENDBRANCH  32  33
ENDBRANCH  31  32
ENDBRANCH  30  31
ENDBRANCH  29  30
ENDBRANCH  28  29
ENDBRANCH  27  28
ENDBRANCH  26  27
ENDBRANCH  25  26
ENDBRANCH  24  25
ENDBRANCH  23  24
ENDBRANCH  22  23
ENDBRANCH  21  22
ENDBRANCH  20  21
ENDBRANCH  19  20
ENDBRANCH  18  19
ENDBRANCH  17  18
ENDBRANCH  16  17
ENDBRANCH  15  16
ENDBRANCH  14  15
ENDBRANCH  13  14
ENDBRANCH  12  13
ENDBRANCH  11  12
ENDBRANCH  10  11
ENDBRANCH   9  10
ENDBRANCH   8   9
ENDBRANCH   7   8
ENDBRANCH   6   7
ENDBRANCH   5   6
ENDBRANCH   4   5
ENDBRANCH   3   4
ENDBRANCH   2   3
TORSDOF 37
ENDMDL
MODEL       24
REMARK 921   NORMALIZED FREE ENERGY PREDICTED BY IDOCK:   -3.83 KCAL/MOL
REMARK 922        TOTAL FREE ENERGY PREDICTED BY IDOCK:  -15.73 KCAL/MOL
REMARK 923 INTER-LIGAND FREE ENERGY PREDICTED BY IDOCK:  -12.45 KCAL/MOL
REMARK 924 INTRA-LIGAND FREE ENERGY PREDICTED BY IDOCK:   -3.29 KCAL/MOL
REMARK 927      BINDING AFFINITY PREDICTED BY RF-SCORE:    0.00 PKD
ROOT
HETATM    1  C   UNL     1     -12.500  11.937  63.358  1.00  0.00    -0.582 C  
HETATM    2  C   UNL     1     -11.077  12.442  63.519  1.00  0.00    -0.521 C  
ENDROOT
BRANCH   2   3
HETATM    3  C   UNL     1     -11.017  13.606  64.504  1.00  0.00    -0.405 C  
BRANCH   3   4
HETATM    4  C   UNL     1     -12.407  13.963  65.025  1.00  0.00    -0.452 C  
BRANCH   4   5
HETATM    5  C   UNL     1     -12.408  14.050  66.549  1.00  0.00    -0.442 C  
BRANCH   5   6
HETATM    6  C   UNL     1     -11.353  15.036  67.039  1.00  0.00    -0.319 C  
BRANCH   6   7
HETATM    7  C   UNL     1     -11.562  15.362  68.514  1.00  0.00    -0.373 C  
BRANCH   7   8
HETATM    8  C   UNL     1     -10.815  16.633  68.894  1.00  0.00    -0.321 C  
BRANCH   8   9
HETATM    9  C   UNL     1     -10.768  17.609  67.723  1.00  0.00    -0.336 C  
BRANCH   9  10
HETATM   10  C   UNL     1     -10.140  18.926  68.160  1.00  0.00    -0.447 C  
BRANCH  10  11
HETATM   11  C   UNL     1      -9.733  19.768  66.961  1.00  0.00    -0.503 C  
BRANCH  11  12
HETATM   12  C   UNL     1      -8.243  19.629  66.700  1.00  0.00    -0.317 C  
BRANCH  12  13
HETATM   13  O   UNL     1      -8.057  18.610  65.725  1.00  0.00    -0.479 OA 
BRANCH  13  14
HETATM   14  C   UNL     1      -6.988  17.747  66.097  1.00  0.00    -0.303 C  
BRANCH  14  15
HETATM   15  C   UNL     1      -7.558  16.472  66.693  1.00  0.00    -0.275 C  
BRANCH  15  16
HETATM   16  O   UNL     1      -7.283  16.471  68.089  1.00  0.00    -0.145 OA 
BRANCH  16  17
HETATM   17  C   UNL     1      -7.352  15.156  68.629  1.00  0.00    -0.121 C  
BRANCH  17  18
HETATM   18  C   UNL     1      -7.900  14.225  67.560  1.00  0.00    -0.194 C  
BRANCH  18  19
HETATM   19  O   UNL     1      -8.637  13.184  68.190  1.00  0.00    -0.169 OA 
BRANCH  19  20
HETATM   20  C   UNL     1      -8.991  12.156  67.263  1.00  0.00    -0.184 C  
BRANCH  20  21
HETATM   21  C   UNL     1     -10.122  11.329  67.862  1.00  0.00    -0.178 C  
BRANCH  21  22
HETATM   22  O   UNL     1     -10.631  12.013  69.011  1.00  0.00    -0.190 OA 
BRANCH  22  23
HETATM   23  C   UNL     1     -11.767  11.350  69.552  1.00  0.00    -0.348 C  
BRANCH  23  24
HETATM   24  C   UNL     1     -12.301  12.161  70.723  1.00  0.00    -0.297 C  
BRANCH  24  25
HETATM   25  O   UNL     1     -12.931  11.275  71.644  1.00  0.00    -0.448 OA 
BRANCH  25  26
HETATM   26  C   UNL     1     -13.363  10.083  71.000  1.00  0.00    -0.266 C  
BRANCH  26  27
HETATM   27  C   UNL     1     -13.396   8.957  72.024  1.00  0.00    -0.421 C  
BRANCH  27  28
HETATM   28  O   UNL     1     -13.277   7.710  71.348  1.00  0.00    -0.334 OA 
BRANCH  28  29
HETATM   29  C   UNL     1     -12.192   6.948  71.866  1.00  0.00    -0.332 C  
BRANCH  29  30
HETATM   30  C   UNL     1     -11.332   7.845  72.741  1.00  0.00    -0.393 C  
BRANCH  30  31
HETATM   31  O   UNL     1     -10.427   7.037  73.486  1.00  0.00    -0.311 OA 
BRANCH  31  32
HETATM   32  C   UNL     1      -9.073   7.391  73.214  1.00  0.00    -0.174 C  
BRANCH  32  33
HETATM   33  C   UNL     1      -8.395   6.235  72.492  1.00  0.00    -0.113 C  
BRANCH  33  34
HETATM   34  O   UNL     1      -8.609   6.368  71.090  1.00  0.00    -0.126 OA 
BRANCH  34  35
HETATM   35  C   UNL     1      -8.268   7.674  70.633  1.00  0.00    -0.113 C  
BRANCH  35  36
HETATM   36  C   UNL     1      -9.219   8.068  69.511  1.00  0.00    -0.152 C  
BRANCH  36  37
HETATM   37  O   UNL     1     -10.011   6.942  69.133  1.00  0.00    -0.157 OA 
BRANCH  37  38
HETATM   38  C   UNL     1      -9.747   6.563  67.776  1.00  0.00    -0.122 C  
BRANCH  38  39
HETATM   39  C   UNL     1     -11.067   6.567  67.013  1.00  0.00    -0.339 C  
HETATM   40  O   UNL     1     -11.127   5.440  66.140  1.00  0.00    -0.748 OA 
HETATM   41  H   UNL     1     -11.949   5.442  65.665  1.00  0.00     0.000 HD 
ENDBRANCH  38  39
ENDBRANCH  37  38
ENDBRANCH  36  37
ENDBRANCH  35  36
ENDBRANCH  34  35
ENDBRANCH  33  34
ENDBRANCH  32  33
ENDBRANCH  31  32
ENDBRANCH  30  31
ENDBRANCH  29  30
ENDBRANCH  28  29
ENDBRANCH  27  28
ENDBRANCH  26  27
ENDBRANCH  25  26
ENDBRANCH  24  25
ENDBRANCH  23  24
ENDBRANCH  22  23
ENDBRANCH  21  22
ENDBRANCH  20  21
ENDBRANCH  19  20
ENDBRANCH  18  19
ENDBRANCH  17  18
ENDBRANCH  16  17
ENDBRANCH  15  16
ENDBRANCH  14  15
ENDBRANCH  13  14
ENDBRANCH  12  13
ENDBRANCH  11  12
ENDBRANCH  10  11
ENDBRANCH   9  10
ENDBRANCH   8   9
ENDBRANCH   7   8
ENDBRANCH   6   7
ENDBRANCH   5   6
ENDBRANCH   4   5
ENDBRANCH   3   4
ENDBRANCH   2   3
TORSDOF 37
ENDMDL
MODEL       25
REMARK 921   NORMALIZED FREE ENERGY PREDICTED BY IDOCK:   -3.83 KCAL/MOL
REMARK 922        TOTAL FREE ENERGY PREDICTED BY IDOCK:  -15.72 KCAL/MOL
REMARK 923 INTER-LIGAND FREE ENERGY PREDICTED BY IDOCK:  -12.82 KCAL/MOL
REMARK 924 INTRA-LIGAND FREE ENERGY PREDICTED BY IDOCK:   -2.90 KCAL/MOL
REMARK 927      BINDING AFFINITY PREDICTED BY RF-SCORE:    0.00 PKD
ROOT
HETATM    1  C   UNL     1      -7.074  19.483  68.637  1.00  0.00    -0.373 C  
HETATM    2  C   UNL     1      -7.350  20.507  67.549  1.00  0.00    -0.365 C  
ENDROOT
BRANCH   2   3
HETATM    3  C   UNL     1      -8.476  20.042  66.630  1.00  0.00    -0.370 C  
BRANCH   3   4
HETATM    4  C   UNL     1      -9.835  20.159  67.318  1.00  0.00    -0.580 C  
BRANCH   4   5
HETATM    5  C   UNL     1     -10.626  18.861  67.178  1.00  0.00    -0.531 C  
BRANCH   5   6
HETATM    6  C   UNL     1     -10.311  17.905  68.322  1.00  0.00    -0.389 C  
BRANCH   6   7
HETATM    7  C   UNL     1      -9.841  16.557  67.786  1.00  0.00    -0.240 C  
BRANCH   7   8
HETATM    8  C   UNL     1      -9.944  16.518  66.266  1.00  0.00    -0.346 C  
BRANCH   8   9
HETATM    9  C   UNL     1     -10.503  15.181  65.791  1.00  0.00    -0.355 C  
BRANCH   9  10
HETATM   10  C   UNL     1     -11.040  14.385  66.973  1.00  0.00    -0.317 C  
BRANCH  10  11
HETATM   11  C   UNL     1     -12.193  13.486  66.554  1.00  0.00    -0.433 C  
BRANCH  11  12
HETATM   12  C   UNL     1     -12.647  13.830  65.146  1.00  0.00    -0.433 C  
BRANCH  12  13
HETATM   13  O   UNL     1     -12.711  12.624  64.395  1.00  0.00    -0.656 OA 
BRANCH  13  14
HETATM   14  C   UNL     1     -11.709  12.608  63.383  1.00  0.00    -0.498 C  
BRANCH  14  15
HETATM   15  C   UNL     1     -10.494  11.854  63.895  1.00  0.00    -0.397 C  
BRANCH  15  16
HETATM   16  O   UNL     1     -10.937  10.887  64.840  1.00  0.00    -0.160 OA 
BRANCH  16  17
HETATM   17  C   UNL     1      -9.854  10.094  65.315  1.00  0.00    -0.319 C  
BRANCH  17  18
HETATM   18  C   UNL     1      -8.936  10.978  66.144  1.00  0.00    -0.191 C  
BRANCH  18  19
HETATM   19  O   UNL     1      -7.760  10.247  66.467  1.00  0.00    -0.106 OA 
BRANCH  19  20
HETATM   20  C   UNL     1      -7.818   8.911  65.962  1.00  0.00    -0.102 C  
BRANCH  20  21
HETATM   21  C   UNL     1      -7.026   8.004  66.895  1.00  0.00    -0.074 C  
BRANCH  21  22
HETATM   22  O   UNL     1      -7.252   6.644  66.514  1.00  0.00    -0.070 OA 
BRANCH  22  23
HETATM   23  C   UNL     1      -8.476   6.498  65.803  1.00  0.00    -0.148 C  
BRANCH  23  24
HETATM   24  C   UNL     1      -9.226   5.295  66.352  1.00  0.00    -0.144 C  
BRANCH  24  25
HETATM   25  O   UNL     1     -10.590   5.655  66.546  1.00  0.00    -0.269 OA 
BRANCH  25  26
HETATM   26  C   UNL     1     -10.707   6.811  67.366  1.00  0.00    -0.335 C  
BRANCH  26  27
HETATM   27  C   UNL     1     -11.206   6.389  68.741  1.00  0.00    -0.274 C  
BRANCH  27  28
HETATM   28  O   UNL     1     -10.184   6.632  69.702  1.00  0.00    -0.177 OA 
BRANCH  28  29
HETATM   29  C   UNL     1     -10.215   5.659  70.741  1.00  0.00    -0.227 C  
BRANCH  29  30
HETATM   30  C   UNL     1     -11.436   5.909  71.613  1.00  0.00    -0.172 C  
BRANCH  30  31
HETATM   31  O   UNL     1     -11.201   7.059  72.420  1.00  0.00    -0.250 OA 
BRANCH  31  32
HETATM   32  C   UNL     1     -12.270   7.995  72.310  1.00  0.00    -0.318 C  
BRANCH  32  33
HETATM   33  C   UNL     1     -11.717   9.321  71.808  1.00  0.00    -0.386 C  
BRANCH  33  34
HETATM   34  O   UNL     1     -12.761  10.055  71.174  1.00  0.00    -0.335 OA 
BRANCH  34  35
HETATM   35  C   UNL     1     -12.404  11.424  71.002  1.00  0.00    -0.343 C  
BRANCH  35  36
HETATM   36  C   UNL     1     -13.318  12.283  71.867  1.00  0.00    -0.329 C  
BRANCH  36  37
HETATM   37  O   UNL     1     -13.139  13.660  71.535  1.00  0.00    -0.344 OA 
BRANCH  37  38
HETATM   38  C   UNL     1     -13.382  14.496  72.674  1.00  0.00    -0.495 C  
BRANCH  38  39
HETATM   39  C   UNL     1     -12.228  15.485  72.798  1.00  0.00    -0.432 C  
HETATM   40  O   UNL     1     -11.208  15.161  71.854  1.00  0.00    -0.536 OA 
HETATM   41  H   UNL     1     -10.489  15.777  71.932  1.00  0.00     0.000 HD 
ENDBRANCH  38  39
ENDBRANCH  37  38
ENDBRANCH  36  37
ENDBRANCH  35  36
ENDBRANCH  34  35
ENDBRANCH  33  34
ENDBRANCH  32  33
ENDBRANCH  31  32
ENDBRANCH  30  31
ENDBRANCH  29  30
ENDBRANCH  28  29
ENDBRANCH  27  28
ENDBRANCH  26  27
ENDBRANCH  25  26
ENDBRANCH  24  25
ENDBRANCH  23  24
ENDBRANCH  22  23
ENDBRANCH  21  22
ENDBRANCH  20  21
ENDBRANCH  19  20
ENDBRANCH  18  19
ENDBRANCH  17  18
ENDBRANCH  16  17
ENDBRANCH  15  16
ENDBRANCH  14  15
ENDBRANCH  13  14
ENDBRANCH  12  13
ENDBRANCH  11  12
ENDBRANCH  10  11
ENDBRANCH   9  10
ENDBRANCH   8   9
ENDBRANCH   7   8
ENDBRANCH   6   7
ENDBRANCH   5   6
ENDBRANCH   4   5
ENDBRANCH   3   4
ENDBRANCH   2   3
TORSDOF 37
ENDMDL
MODEL       26
REMARK 921   NORMALIZED FREE ENERGY PREDICTED BY IDOCK:   -3.82 KCAL/MOL
REMARK 922        TOTAL FREE ENERGY PREDICTED BY IDOCK:  -15.69 KCAL/MOL
REMARK 923 INTER-LIGAND FREE ENERGY PREDICTED BY IDOCK:  -12.46 KCAL/MOL
REMARK 924 INTRA-LIGAND FREE ENERGY PREDICTED BY IDOCK:   -3.23 KCAL/MOL
REMARK 927      BINDING AFFINITY PREDICTED BY RF-SCORE:    0.00 PKD
ROOT
HETATM    1  C   UNL     1     -13.152  10.581  71.717  1.00  0.00    -0.570 C  
HETATM    2  C   UNL     1     -12.273  10.597  70.478  1.00  0.00    -0.449 C  
ENDROOT
BRANCH   2   3
HETATM    3  C   UNL     1     -11.861  12.022  70.116  1.00  0.00    -0.383 C  
BRANCH   3   4
HETATM    4  C   UNL     1     -11.767  12.203  68.603  1.00  0.00    -0.382 C  
BRANCH   4   5
HETATM    5  C   UNL     1     -11.670  13.683  68.241  1.00  0.00    -0.398 C  
BRANCH   5   6
HETATM    6  C   UNL     1     -12.118  13.922  66.803  1.00  0.00    -0.476 C  
BRANCH   6   7
HETATM    7  C   UNL     1     -11.666  12.779  65.900  1.00  0.00    -0.464 C  
BRANCH   7   8
HETATM    8  C   UNL     1     -12.574  12.665  64.683  1.00  0.00    -0.517 C  
BRANCH   8   9
HETATM    9  C   UNL     1     -11.882  11.909  63.554  1.00  0.00    -0.560 C  
BRANCH   9  10
HETATM   10  C   UNL     1     -10.370  11.993  63.714  1.00  0.00    -0.457 C  
BRANCH  10  11
HETATM   11  C   UNL     1      -9.722  10.626  63.561  1.00  0.00    -0.389 C  
BRANCH  11  12
HETATM   12  C   UNL     1      -8.884  10.298  64.785  1.00  0.00    -0.196 C  
BRANCH  12  13
HETATM   13  O   UNL     1      -9.511   9.225  65.476  1.00  0.00    -0.252 OA 
BRANCH  13  14
HETATM   14  C   UNL     1     -10.179   9.698  66.640  1.00  0.00    -0.232 C  
BRANCH  14  15
HETATM   15  C   UNL     1     -10.448   8.531  67.573  1.00  0.00    -0.258 C  
BRANCH  15  16
HETATM   16  O   UNL     1     -10.572   7.352  66.785  1.00  0.00    -0.310 OA 
BRANCH  16  17
HETATM   17  C   UNL     1     -11.110   6.276  67.546  1.00  0.00    -0.279 C  
BRANCH  17  18
HETATM   18  C   UNL     1     -10.272   6.107  68.803  1.00  0.00    -0.184 C  
BRANCH  18  19
HETATM   19  O   UNL     1     -11.120   5.708  69.872  1.00  0.00    -0.321 OA 
BRANCH  19  20
HETATM   20  C   UNL     1     -11.883   6.807  70.375  1.00  0.00    -0.338 C  
BRANCH  20  21
HETATM   21  C   UNL     1     -11.849   6.765  71.898  1.00  0.00    -0.326 C  
BRANCH  21  22
HETATM   22  O   UNL     1     -11.136   7.912  72.371  1.00  0.00    -0.278 OA 
BRANCH  22  23
HETATM   23  C   UNL     1      -9.966   7.540  73.088  1.00  0.00    -0.289 C  
BRANCH  23  24
HETATM   24  C   UNL     1      -8.758   7.694  72.177  1.00  0.00    -0.122 C  
BRANCH  24  25
HETATM   25  O   UNL     1      -8.620   9.069  71.828  1.00  0.00    -0.353 OA 
BRANCH  25  26
HETATM   26  C   UNL     1      -8.755   9.262  70.426  1.00  0.00    -0.229 C  
BRANCH  26  27
HETATM   27  C   UNL     1      -7.664  10.213  69.955  1.00  0.00    -0.136 C  
BRANCH  27  28
HETATM   28  O   UNL     1      -8.227  11.156  69.049  1.00  0.00    -0.137 OA 
BRANCH  28  29
HETATM   29  C   UNL     1      -7.230  11.702  68.192  1.00  0.00    -0.085 C  
BRANCH  29  30
HETATM   30  C   UNL     1      -7.735  13.020  67.625  1.00  0.00    -0.161 C  
BRANCH  30  31
HETATM   31  O   UNL     1      -8.141  13.860  68.700  1.00  0.00    -0.141 OA 
BRANCH  31  32
HETATM   32  C   UNL     1      -7.355  15.048  68.755  1.00  0.00    -0.125 C  
BRANCH  32  33
HETATM   33  C   UNL     1      -8.281  16.250  68.863  1.00  0.00    -0.231 C  
BRANCH  33  34
HETATM   34  O   UNL     1      -9.468  15.867  69.552  1.00  0.00    -0.260 OA 
BRANCH  34  35
HETATM   35  C   UNL     1     -10.462  16.886  69.483  1.00  0.00    -0.228 C  
BRANCH  35  36
HETATM   36  C   UNL     1      -9.902  18.069  68.705  1.00  0.00    -0.354 C  
BRANCH  36  37
HETATM   37  O   UNL     1     -10.873  18.531  67.765  1.00  0.00    -0.388 OA 
BRANCH  37  38
HETATM   38  C   UNL     1     -10.394  18.386  66.422  1.00  0.00    -0.405 C  
BRANCH  38  39
HETATM   39  C   UNL     1      -9.023  19.046  66.328  1.00  0.00    -0.279 C  
HETATM   40  O   UNL     1      -8.096  18.155  65.711  1.00  0.00    -0.520 OA 
HETATM   41  H   UNL     1      -7.242  18.566  65.653  1.00  0.00     0.000 HD 
ENDBRANCH  38  39
ENDBRANCH  37  38
ENDBRANCH  36  37
ENDBRANCH  35  36
ENDBRANCH  34  35
ENDBRANCH  33  34
ENDBRANCH  32  33
ENDBRANCH  31  32
ENDBRANCH  30  31
ENDBRANCH  29  30
ENDBRANCH  28  29
ENDBRANCH  27  28
ENDBRANCH  26  27
ENDBRANCH  25  26
ENDBRANCH  24  25
ENDBRANCH  23  24
ENDBRANCH  22  23
ENDBRANCH  21  22
ENDBRANCH  20  21
ENDBRANCH  19  20
ENDBRANCH  18  19
ENDBRANCH  17  18
ENDBRANCH  16  17
ENDBRANCH  15  16
ENDBRANCH  14  15
ENDBRANCH  13  14
ENDBRANCH  12  13
ENDBRANCH  11  12
ENDBRANCH  10  11
ENDBRANCH   9  10
ENDBRANCH   8   9
ENDBRANCH   7   8
ENDBRANCH   6   7
ENDBRANCH   5   6
ENDBRANCH   4   5
ENDBRANCH   3   4
ENDBRANCH   2   3
TORSDOF 37
ENDMDL
MODEL       27
REMARK 921   NORMALIZED FREE ENERGY PREDICTED BY IDOCK:   -3.81 KCAL/MOL
REMARK 922        TOTAL FREE ENERGY PREDICTED BY IDOCK:  -15.68 KCAL/MOL
REMARK 923 INTER-LIGAND FREE ENERGY PREDICTED BY IDOCK:  -11.89 KCAL/MOL
REMARK 924 INTRA-LIGAND FREE ENERGY PREDICTED BY IDOCK:   -3.79 KCAL/MOL
REMARK 927      BINDING AFFINITY PREDICTED BY RF-SCORE:    0.00 PKD
ROOT
HETATM    1  C   UNL     1     -12.423  11.825  63.669  1.00  0.00    -0.482 C  
HETATM    2  C   UNL     1     -11.093  12.516  63.918  1.00  0.00    -0.476 C  
ENDROOT
BRANCH   2   3
HETATM    3  C   UNL     1     -11.301  13.923  64.473  1.00  0.00    -0.381 C  
BRANCH   3   4
HETATM    4  C   UNL     1     -12.560  13.997  65.335  1.00  0.00    -0.529 C  
BRANCH   4   5
HETATM    5  C   UNL     1     -12.197  14.089  66.815  1.00  0.00    -0.439 C  
BRANCH   5   6
HETATM    6  C   UNL     1     -11.163  15.182  67.055  1.00  0.00    -0.308 C  
BRANCH   6   7
HETATM    7  C   UNL     1     -11.165  15.615  68.518  1.00  0.00    -0.342 C  
BRANCH   7   8
HETATM    8  C   UNL     1     -10.767  17.079  68.645  1.00  0.00    -0.333 C  
BRANCH   8   9
HETATM    9  C   UNL     1     -10.649  17.734  67.273  1.00  0.00    -0.322 C  
BRANCH   9  10
HETATM   10  C   UNL     1     -10.602  19.250  67.415  1.00  0.00    -0.594 C  
BRANCH  10  11
HETATM   11  C   UNL     1      -9.844  19.888  66.261  1.00  0.00    -0.570 C  
BRANCH  11  12
HETATM   12  C   UNL     1      -8.345  19.763  66.480  1.00  0.00    -0.342 C  
BRANCH  12  13
HETATM   13  O   UNL     1      -7.848  18.777  65.584  1.00  0.00    -0.465 OA 
BRANCH  13  14
HETATM   14  C   UNL     1      -6.747  18.083  66.161  1.00  0.00    -0.268 C  
BRANCH  14  15
HETATM   15  C   UNL     1      -7.209  16.713  66.627  1.00  0.00    -0.241 C  
BRANCH  15  16
HETATM   16  O   UNL     1      -7.317  16.740  68.046  1.00  0.00    -0.154 OA 
BRANCH  16  17
HETATM   17  C   UNL     1      -7.350  15.423  68.587  1.00  0.00    -0.127 C  
BRANCH  17  18
HETATM   18  C   UNL     1      -7.671  14.449  67.465  1.00  0.00    -0.192 C  
BRANCH  18  19
HETATM   19  O   UNL     1      -8.321  13.310  68.015  1.00  0.00    -0.142 OA 
BRANCH  19  20
HETATM   20  C   UNL     1      -8.665  12.363  67.003  1.00  0.00    -0.207 C  
BRANCH  20  21
HETATM   21  C   UNL     1      -9.890  11.583  67.464  1.00  0.00    -0.190 C  
BRANCH  21  22
HETATM   22  O   UNL     1     -10.187  11.952  68.814  1.00  0.00    -0.207 OA 
BRANCH  22  23
HETATM   23  C   UNL     1     -11.394  11.350  69.267  1.00  0.00    -0.289 C  
BRANCH  23  24
HETATM   24  C   UNL     1     -12.105  12.313  70.205  1.00  0.00    -0.287 C  
BRANCH  24  25
HETATM   25  O   UNL     1     -12.756  11.561  71.225  1.00  0.00    -0.398 OA 
BRANCH  25  26
HETATM   26  C   UNL     1     -12.830  10.183  70.884  1.00  0.00    -0.355 C  
BRANCH  26  27
HETATM   27  C   UNL     1     -12.873   9.362  72.164  1.00  0.00    -0.401 C  
BRANCH  27  28
HETATM   28  O   UNL     1     -13.715   8.231  71.964  1.00  0.00    -0.351 OA 
BRANCH  28  29
HETATM   29  C   UNL     1     -13.007   7.170  71.330  1.00  0.00    -0.368 C  
BRANCH  29  30
HETATM   30  C   UNL     1     -11.666   6.989  72.024  1.00  0.00    -0.295 C  
BRANCH  30  31
HETATM   31  O   UNL     1     -10.682   6.656  71.049  1.00  0.00    -0.225 OA 
BRANCH  31  32
HETATM   32  C   UNL     1     -11.283   6.308  69.804  1.00  0.00    -0.430 C  
BRANCH  32  33
HETATM   33  C   UNL     1     -10.367   6.750  68.672  1.00  0.00    -0.186 C  
BRANCH  33  34
HETATM   34  O   UNL     1      -9.238   5.883  68.618  1.00  0.00    -0.118 OA 
BRANCH  34  35
HETATM   35  C   UNL     1      -8.265   6.354  67.688  1.00  0.00    -0.118 C  
BRANCH  35  36
HETATM   36  C   UNL     1      -7.978   7.821  67.974  1.00  0.00    -0.122 C  
BRANCH  36  37
HETATM   37  O   UNL     1      -6.706   7.948  68.611  1.00  0.00    -0.055 OA 
BRANCH  37  38
HETATM   38  C   UNL     1      -6.827   8.639  69.861  1.00  0.00    -0.042 C  
BRANCH  38  39
HETATM   39  C   UNL     1      -7.944   9.670  69.732  1.00  0.00    -0.151 C  
HETATM   40  O   UNL     1      -7.425  10.979  69.962  1.00  0.00    -0.387 OA 
HETATM   41  H   UNL     1      -8.120  11.620  69.881  1.00  0.00     0.000 HD 
ENDBRANCH  38  39
ENDBRANCH  37  38
ENDBRANCH  36  37
ENDBRANCH  35  36
ENDBRANCH  34  35
ENDBRANCH  33  34
ENDBRANCH  32  33
ENDBRANCH  31  32
ENDBRANCH  30  31
ENDBRANCH  29  30
ENDBRANCH  28  29
ENDBRANCH  27  28
ENDBRANCH  26  27
ENDBRANCH  25  26
ENDBRANCH  24  25
ENDBRANCH  23  24
ENDBRANCH  22  23
ENDBRANCH  21  22
ENDBRANCH  20  21
ENDBRANCH  19  20
ENDBRANCH  18  19
ENDBRANCH  17  18
ENDBRANCH  16  17
ENDBRANCH  15  16
ENDBRANCH  14  15
ENDBRANCH  13  14
ENDBRANCH  12  13
ENDBRANCH  11  12
ENDBRANCH  10  11
ENDBRANCH   9  10
ENDBRANCH   8   9
ENDBRANCH   7   8
ENDBRANCH   6   7
ENDBRANCH   5   6
ENDBRANCH   4   5
ENDBRANCH   3   4
ENDBRANCH   2   3
TORSDOF 37
ENDMDL
MODEL       28
REMARK 921   NORMALIZED FREE ENERGY PREDICTED BY IDOCK:   -3.81 KCAL/MOL
REMARK 922        TOTAL FREE ENERGY PREDICTED BY IDOCK:  -15.66 KCAL/MOL
REMARK 923 INTER-LIGAND FREE ENERGY PREDICTED BY IDOCK:  -12.42 KCAL/MOL
REMARK 924 INTRA-LIGAND FREE ENERGY PREDICTED BY IDOCK:   -3.24 KCAL/MOL
REMARK 927      BINDING AFFINITY PREDICTED BY RF-SCORE:    0.00 PKD
ROOT
HETATM    1  C   UNL     1     -12.779  15.145  73.579  1.00  0.00    -0.678 C  
HETATM    2  C   UNL     1     -13.721  15.254  72.392  1.00  0.00    -0.622 C  
ENDROOT
BRANCH   2   3
HETATM    3  C   UNL     1     -12.949  15.498  71.099  1.00  0.00    -0.560 C  
BRANCH   3   4
HETATM    4  C   UNL     1     -11.442  15.471  71.341  1.00  0.00    -0.478 C  
BRANCH   4   5
HETATM    5  C   UNL     1     -10.683  15.381  70.019  1.00  0.00    -0.323 C  
BRANCH   5   6
HETATM    6  C   UNL     1     -11.614  15.632  68.838  1.00  0.00    -0.392 C  
BRANCH   6   7
HETATM    7  C   UNL     1     -10.852  16.253  67.672  1.00  0.00    -0.293 C  
BRANCH   7   8
HETATM    8  C   UNL     1      -9.763  15.309  67.180  1.00  0.00    -0.220 C  
BRANCH   8   9
HETATM    9  C   UNL     1      -9.955  14.977  65.703  1.00  0.00    -0.387 C  
BRANCH   9  10
HETATM   10  C   UNL     1     -10.742  16.084  65.013  1.00  0.00    -0.400 C  
BRANCH  10  11
HETATM   11  C   UNL     1     -11.955  15.525  64.284  1.00  0.00    -0.161 C  
BRANCH  11  12
HETATM   12  C   UNL     1     -12.112  14.043  64.578  1.00  0.00    -0.459 C  
BRANCH  12  13
HETATM   13  O   UNL     1     -12.451  13.385  63.364  1.00  0.00    -0.753 OA 
BRANCH  13  14
HETATM   14  C   UNL     1     -12.306  11.975  63.499  1.00  0.00    -0.551 C  
BRANCH  14  15
HETATM   15  C   UNL     1     -11.181  11.679  64.475  1.00  0.00    -0.269 C  
BRANCH  15  16
HETATM   16  O   UNL     1     -10.026  11.318  63.726  1.00  0.00    -0.275 OA 
BRANCH  16  17
HETATM   17  C   UNL     1      -9.454  10.107  64.208  1.00  0.00    -0.305 C  
BRANCH  17  18
HETATM   18  C   UNL     1      -8.163   9.847  63.449  1.00  0.00    -0.161 C  
BRANCH  18  19
HETATM   19  O   UNL     1      -7.072  10.341  64.216  1.00  0.00    -0.127 OA 
BRANCH  19  20
HETATM   20  C   UNL     1      -7.147   9.907  65.575  1.00  0.00    -0.118 C  
BRANCH  20  21
HETATM   21  C   UNL     1      -6.550  10.990  66.465  1.00  0.00    -0.132 C  
BRANCH  21  22
HETATM   22  O   UNL     1      -7.329  11.082  67.661  1.00  0.00    -0.090 OA 
BRANCH  22  23
HETATM   23  C   UNL     1      -8.539  11.797  67.442  1.00  0.00    -0.160 C  
BRANCH  23  24
HETATM   24  C   UNL     1      -9.663  11.111  68.204  1.00  0.00    -0.181 C  
BRANCH  24  25
HETATM   25  O   UNL     1     -10.661  12.078  68.516  1.00  0.00    -0.218 OA 
BRANCH  25  26
HETATM   26  C   UNL     1     -11.882  11.456  68.897  1.00  0.00    -0.347 C  
BRANCH  26  27
HETATM   27  C   UNL     1     -12.068  11.620  70.399  1.00  0.00    -0.373 C  
BRANCH  27  28
HETATM   28  O   UNL     1     -12.839  10.530  70.894  1.00  0.00    -0.363 OA 
BRANCH  28  29
HETATM   29  C   UNL     1     -12.001   9.470  71.341  1.00  0.00    -0.386 C  
BRANCH  29  30
HETATM   30  C   UNL     1     -12.866   8.266  71.678  1.00  0.00    -0.329 C  
BRANCH  30  31
HETATM   31  O   UNL     1     -12.094   7.080  71.514  1.00  0.00    -0.311 OA 
BRANCH  31  32
HETATM   32  C   UNL     1     -11.463   6.701  72.734  1.00  0.00    -0.130 C  
BRANCH  32  33
HETATM   33  C   UNL     1     -10.539   5.521  72.467  1.00  0.00    -0.226 C  
BRANCH  33  34
HETATM   34  O   UNL     1     -10.614   5.170  71.088  1.00  0.00    -0.205 OA 
BRANCH  34  35
HETATM   35  C   UNL     1      -9.327   4.858  70.561  1.00  0.00    -0.154 C  
BRANCH  35  36
HETATM   36  C   UNL     1      -9.199   5.478  69.176  1.00  0.00    -0.116 C  
BRANCH  36  37
HETATM   37  O   UNL     1     -10.003   6.656  69.099  1.00  0.00    -0.153 OA 
BRANCH  37  38
HETATM   38  C   UNL     1     -10.894   6.595  67.978  1.00  0.00    -0.271 C  
BRANCH  38  39
HETATM   39  C   UNL     1     -10.455   7.641  66.960  1.00  0.00    -0.349 C  
HETATM   40  O   UNL     1      -9.572   7.051  66.007  1.00  0.00    -0.397 OA 
HETATM   41  H   UNL     1      -9.299   7.702  65.373  1.00  0.00     0.000 HD 
ENDBRANCH  38  39
ENDBRANCH  37  38
ENDBRANCH  36  37
ENDBRANCH  35  36
ENDBRANCH  34  35
ENDBRANCH  33  34
ENDBRANCH  32  33
ENDBRANCH  31  32
ENDBRANCH  30  31
ENDBRANCH  29  30
ENDBRANCH  28  29
ENDBRANCH  27  28
ENDBRANCH  26  27
ENDBRANCH  25  26
ENDBRANCH  24  25
ENDBRANCH  23  24
ENDBRANCH  22  23
ENDBRANCH  21  22
ENDBRANCH  20  21
ENDBRANCH  19  20
ENDBRANCH  18  19
ENDBRANCH  17  18
ENDBRANCH  16  17
ENDBRANCH  15  16
ENDBRANCH  14  15
ENDBRANCH  13  14
ENDBRANCH  12  13
ENDBRANCH  11  12
ENDBRANCH  10  11
ENDBRANCH   9  10
ENDBRANCH   8   9
ENDBRANCH   7   8
ENDBRANCH   6   7
ENDBRANCH   5   6
ENDBRANCH   4   5
ENDBRANCH   3   4
ENDBRANCH   2   3
TORSDOF 37
ENDMDL
MODEL       29
REMARK 921   NORMALIZED FREE ENERGY PREDICTED BY IDOCK:   -3.81 KCAL/MOL
REMARK 922        TOTAL FREE ENERGY PREDICTED BY IDOCK:  -15.66 KCAL/MOL
REMARK 923 INTER-LIGAND FREE ENERGY PREDICTED BY IDOCK:  -12.71 KCAL/MOL
REMARK 924 INTRA-LIGAND FREE ENERGY PREDICTED BY IDOCK:   -2.96 KCAL/MOL
REMARK 927      BINDING AFFINITY PREDICTED BY RF-SCORE:    0.00 PKD
ROOT
HETATM    1  C   UNL     1      -9.667   4.476  70.061  1.00  0.00    -0.283 C  
HETATM    2  C   UNL     1      -9.188   3.914  71.388  1.00  0.00    -0.189 C  
ENDROOT
BRANCH   2   3
HETATM    3  C   UNL     1     -10.194   2.917  71.957  1.00  0.00    -0.110 C  
BRANCH   3   4
HETATM    4  C   UNL     1     -10.491   3.208  73.426  1.00  0.00    -0.252 C  
BRANCH   4   5
HETATM    5  C   UNL     1     -11.223   4.539  73.577  1.00  0.00    -0.388 C  
BRANCH   5   6
HETATM    6  C   UNL     1     -10.501   5.449  74.563  1.00  0.00    -0.207 C  
BRANCH   6   7
HETATM    7  C   UNL     1      -9.833   6.611  73.836  1.00  0.00    -0.292 C  
BRANCH   7   8
HETATM    8  C   UNL     1     -10.876   7.589  73.313  1.00  0.00    -0.409 C  
BRANCH   8   9
HETATM    9  C   UNL     1     -10.634   7.911  71.842  1.00  0.00    -0.285 C  
BRANCH   9  10
HETATM   10  C   UNL     1     -11.067   9.339  71.537  1.00  0.00    -0.443 C  
BRANCH  10  11
HETATM   11  C   UNL     1     -12.535   9.396  71.142  1.00  0.00    -0.370 C  
BRANCH  11  12
HETATM   12  C   UNL     1     -13.275  10.405  72.004  1.00  0.00    -0.392 C  
BRANCH  12  13
HETATM   13  O   UNL     1     -13.023  11.703  71.481  1.00  0.00    -0.424 OA 
BRANCH  13  14
HETATM   14  C   UNL     1     -13.656  12.698  72.279  1.00  0.00    -0.409 C  
BRANCH  14  15
HETATM   15  C   UNL     1     -13.037  14.051  71.975  1.00  0.00    -0.401 C  
BRANCH  15  16
HETATM   16  O   UNL     1     -12.568  14.034  70.631  1.00  0.00    -0.329 OA 
BRANCH  16  17
HETATM   17  C   UNL     1     -12.535  15.346  70.079  1.00  0.00    -0.283 C  
BRANCH  17  18
HETATM   18  C   UNL     1     -11.360  16.095  70.686  1.00  0.00    -0.370 C  
BRANCH  18  19
HETATM   19  O   UNL     1     -10.272  16.063  69.771  1.00  0.00    -0.267 OA 
BRANCH  19  20
HETATM   20  C   UNL     1     -10.657  16.541  68.481  1.00  0.00    -0.318 C  
BRANCH  20  21
HETATM   21  C   UNL     1     -10.405  18.043  68.424  1.00  0.00    -0.368 C  
BRANCH  21  22
HETATM   22  O   UNL     1     -10.897  18.543  67.178  1.00  0.00    -0.391 OA 
BRANCH  22  23
HETATM   23  C   UNL     1     -10.363  19.829  66.884  1.00  0.00    -0.476 C  
BRANCH  23  24
HETATM   24  C   UNL     1      -9.045  19.658  66.144  1.00  0.00    -0.332 C  
BRANCH  24  25
HETATM   25  O   UNL     1      -8.007  20.254  66.916  1.00  0.00    -0.305 OA 
BRANCH  25  26
HETATM   26  C   UNL     1      -7.033  19.292  67.302  1.00  0.00    -0.199 C  
BRANCH  26  27
HETATM   27  C   UNL     1      -7.171  18.069  66.407  1.00  0.00    -0.254 C  
BRANCH  27  28
HETATM   28  O   UNL     1      -7.112  16.895  67.210  1.00  0.00    -0.142 OA 
BRANCH  28  29
HETATM   29  C   UNL     1      -7.797  15.813  66.587  1.00  0.00    -0.157 C  
BRANCH  29  30
HETATM   30  C   UNL     1      -7.675  14.580  67.468  1.00  0.00    -0.188 C  
BRANCH  30  31
HETATM   31  O   UNL     1      -8.595  13.593  67.014  1.00  0.00    -0.209 OA 
BRANCH  31  32
HETATM   32  C   UNL     1      -8.205  12.288  67.434  1.00  0.00    -0.178 C  
BRANCH  32  33
HETATM   33  C   UNL     1      -9.452  11.478  67.756  1.00  0.00    -0.168 C  
BRANCH  33  34
HETATM   34  O   UNL     1     -10.472  12.355  68.226  1.00  0.00    -0.212 OA 
BRANCH  34  35
HETATM   35  C   UNL     1     -11.730  12.061  67.623  1.00  0.00    -0.294 C  
BRANCH  35  36
HETATM   36  C   UNL     1     -12.273  13.326  66.974  1.00  0.00    -0.253 C  
BRANCH  36  37
HETATM   37  O   UNL     1     -12.781  13.020  65.675  1.00  0.00    -0.506 OA 
BRANCH  37  38
HETATM   38  C   UNL     1     -11.945  13.580  64.654  1.00  0.00    -0.400 C  
BRANCH  38  39
HETATM   39  C   UNL     1     -11.200  12.441  63.967  1.00  0.00    -0.396 C  
HETATM   40  O   UNL     1     -12.065  11.783  63.043  1.00  0.00    -0.857 OA 
HETATM   41  H   UNL     1     -11.600  11.074  62.615  1.00  0.00     0.000 HD 
ENDBRANCH  38  39
ENDBRANCH  37  38
ENDBRANCH  36  37
ENDBRANCH  35  36
ENDBRANCH  34  35
ENDBRANCH  33  34
ENDBRANCH  32  33
ENDBRANCH  31  32
ENDBRANCH  30  31
ENDBRANCH  29  30
ENDBRANCH  28  29
ENDBRANCH  27  28
ENDBRANCH  26  27
ENDBRANCH  25  26
ENDBRANCH  24  25
ENDBRANCH  23  24
ENDBRANCH  22  23
ENDBRANCH  21  22
ENDBRANCH  20  21
ENDBRANCH  19  20
ENDBRANCH  18  19
ENDBRANCH  17  18
ENDBRANCH  16  17
ENDBRANCH  15  16
ENDBRANCH  14  15
ENDBRANCH  13  14
ENDBRANCH  12  13
ENDBRANCH  11  12
ENDBRANCH  10  11
ENDBRANCH   9  10
ENDBRANCH   8   9
ENDBRANCH   7   8
ENDBRANCH   6   7
ENDBRANCH   5   6
ENDBRANCH   4   5
ENDBRANCH   3   4
ENDBRANCH   2   3
TORSDOF 37
ENDMDL
MODEL       30
REMARK 921   NORMALIZED FREE ENERGY PREDICTED BY IDOCK:   -3.78 KCAL/MOL
REMARK 922        TOTAL FREE ENERGY PREDICTED BY IDOCK:  -15.59 KCAL/MOL
REMARK 923 INTER-LIGAND FREE ENERGY PREDICTED BY IDOCK:  -12.38 KCAL/MOL
REMARK 924 INTRA-LIGAND FREE ENERGY PREDICTED BY IDOCK:   -3.21 KCAL/MOL
REMARK 927      BINDING AFFINITY PREDICTED BY RF-SCORE:    0.00 PKD
ROOT
HETATM    1  C   UNL     1     -13.423  15.866  73.070  1.00  0.00    -0.653 C  
HETATM    2  C   UNL     1     -12.683  15.724  71.751  1.00  0.00    -0.519 C  
ENDROOT
BRANCH   2   3
HETATM    3  C   UNL     1     -12.677  14.273  71.279  1.00  0.00    -0.427 C  
BRANCH   3   4
HETATM    4  C   UNL     1     -13.587  13.405  72.147  1.00  0.00    -0.660 C  
BRANCH   4   5
HETATM    5  C   UNL     1     -13.384  11.925  71.831  1.00  0.00    -0.405 C  
BRANCH   5   6
HETATM    6  C   UNL     1     -12.267  11.733  70.813  1.00  0.00    -0.424 C  
BRANCH   6   7
HETATM    7  C   UNL     1     -12.368  10.361  70.153  1.00  0.00    -0.281 C  
BRANCH   7   8
HETATM    8  C   UNL     1     -12.459   9.265  71.207  1.00  0.00    -0.389 C  
BRANCH   8   9
HETATM    9  C   UNL     1     -11.080   8.931  71.767  1.00  0.00    -0.433 C  
BRANCH   9  10
HETATM   10  C   UNL     1     -11.174   7.755  72.730  1.00  0.00    -0.456 C  
BRANCH  10  11
HETATM   11  C   UNL     1      -9.899   7.608  73.546  1.00  0.00    -0.357 C  
BRANCH  11  12
HETATM   12  C   UNL     1      -8.913   6.703  72.826  1.00  0.00    -0.122 C  
BRANCH  12  13
HETATM   13  O   UNL     1      -9.603   5.524  72.431  1.00  0.00    -0.150 OA 
BRANCH  13  14
HETATM   14  C   UNL     1      -9.250   5.157  71.101  1.00  0.00    -0.145 C  
BRANCH  14  15
HETATM   15  C   UNL     1      -8.371   6.239  70.501  1.00  0.00    -0.129 C  
BRANCH  15  16
HETATM   16  O   UNL     1      -8.853   6.531  69.194  1.00  0.00    -0.128 OA 
BRANCH  16  17
HETATM   17  C   UNL     1     -10.144   5.970  68.982  1.00  0.00    -0.176 C  
BRANCH  17  18
HETATM   18  C   UNL     1     -10.793   6.683  67.807  1.00  0.00    -0.294 C  
BRANCH  18  19
HETATM   19  O   UNL     1      -9.827   7.522  67.187  1.00  0.00    -0.168 OA 
BRANCH  19  20
HETATM   20  C   UNL     1     -10.376   8.799  66.857  1.00  0.00    -0.274 C  
BRANCH  20  21
HETATM   21  C   UNL     1      -9.241   9.814  66.791  1.00  0.00    -0.148 C  
BRANCH  21  22
HETATM   22  O   UNL     1      -9.634  10.886  65.929  1.00  0.00    -0.198 OA 
BRANCH  22  23
HETATM   23  C   UNL     1      -9.555  10.510  64.559  1.00  0.00    -0.302 C  
BRANCH  23  24
HETATM   24  C   UNL     1      -9.894  11.716  63.696  1.00  0.00    -0.345 C  
BRANCH  24  25
HETATM   25  O   UNL     1     -11.306  11.765  63.512  1.00  0.00    -0.418 OA 
BRANCH  25  26
HETATM   26  C   UNL     1     -11.828  13.040  63.865  1.00  0.00    -0.477 C  
BRANCH  26  27
HETATM   27  C   UNL     1     -12.407  12.961  65.271  1.00  0.00    -0.490 C  
BRANCH  27  28
HETATM   28  O   UNL     1     -12.071  14.149  65.980  1.00  0.00    -0.400 OA 
BRANCH  28  29
HETATM   29  C   UNL     1     -10.784  14.041  66.581  1.00  0.00    -0.281 C  
BRANCH  29  30
HETATM   30  C   UNL     1     -10.828  14.681  67.959  1.00  0.00    -0.257 C  
BRANCH  30  31
HETATM   31  O   UNL     1     -11.517  15.924  67.871  1.00  0.00    -0.299 OA 
BRANCH  31  32
HETATM   32  C   UNL     1     -10.604  17.015  67.773  1.00  0.00    -0.350 C  
BRANCH  32  33
HETATM   33  C   UNL     1      -9.410  16.743  68.676  1.00  0.00    -0.252 C  
BRANCH  33  34
HETATM   34  O   UNL     1      -8.309  17.540  68.249  1.00  0.00    -0.247 OA 
BRANCH  34  35
HETATM   35  C   UNL     1      -7.073  17.026  68.738  1.00  0.00    -0.219 C  
BRANCH  35  36
HETATM   36  C   UNL     1      -6.178  16.683  67.555  1.00  0.00    -0.160 C  
BRANCH  36  37
HETATM   37  O   UNL     1      -6.576  15.429  66.999  1.00  0.00    -0.268 OA 
BRANCH  37  38
HETATM   38  C   UNL     1      -6.174  14.344  67.845  1.00  0.00    -0.156 C  
BRANCH  38  39
HETATM   39  C   UNL     1      -7.353  13.388  67.989  1.00  0.00    -0.129 C  
HETATM   40  O   UNL     1      -7.662  12.803  66.725  1.00  0.00    -0.390 OA 
HETATM   41  H   UNL     1      -8.395  12.207  66.815  1.00  0.00     0.000 HD 
ENDBRANCH  38  39
ENDBRANCH  37  38
ENDBRANCH  36  37
ENDBRANCH  35  36
ENDBRANCH  34  35
ENDBRANCH  33  34
ENDBRANCH  32  33
ENDBRANCH  31  32
ENDBRANCH  30  31
ENDBRANCH  29  30
ENDBRANCH  28  29
ENDBRANCH  27  28
ENDBRANCH  26  27
ENDBRANCH  25  26
ENDBRANCH  24  25
ENDBRANCH  23  24
ENDBRANCH  22  23
ENDBRANCH  21  22
ENDBRANCH  20  21
ENDBRANCH  19  20
ENDBRANCH  18  19
ENDBRANCH  17  18
ENDBRANCH  16  17
ENDBRANCH  15  16
ENDBRANCH  14  15
ENDBRANCH  13  14
ENDBRANCH  12  13
ENDBRANCH  11  12
ENDBRANCH  10  11
ENDBRANCH   9  10
ENDBRANCH   8   9
ENDBRANCH   7   8
ENDBRANCH   6   7
ENDBRANCH   5   6
ENDBRANCH   4   5
ENDBRANCH   3   4
ENDBRANCH   2   3
TORSDOF 37
ENDMDL
MODEL       31
REMARK 921   NORMALIZED FREE ENERGY PREDICTED BY IDOCK:   -3.78 KCAL/MOL
REMARK 922        TOTAL FREE ENERGY PREDICTED BY IDOCK:  -15.59 KCAL/MOL
REMARK 923 INTER-LIGAND FREE ENERGY PREDICTED BY IDOCK:  -12.81 KCAL/MOL
REMARK 924 INTRA-LIGAND FREE ENERGY PREDICTED BY IDOCK:   -2.78 KCAL/MOL
REMARK 927      BINDING AFFINITY PREDICTED BY RF-SCORE:    0.00 PKD
ROOT
HETATM    1  C   UNL     1     -10.883   3.335  73.772  1.00  0.00    -0.310 C  
HETATM    2  C   UNL     1     -11.069   4.787  73.366  1.00  0.00    -0.422 C  
ENDROOT
BRANCH   2   3
HETATM    3  C   UNL     1      -9.754   5.396  72.888  1.00  0.00    -0.165 C  
BRANCH   3   4
HETATM    4  C   UNL     1      -9.990   6.426  71.786  1.00  0.00    -0.195 C  
BRANCH   4   5
HETATM    5  C   UNL     1     -11.322   6.174  71.085  1.00  0.00    -0.340 C  
BRANCH   5   6
HETATM    6  C   UNL     1     -12.027   7.487  70.766  1.00  0.00    -0.224 C  
BRANCH   6   7
HETATM    7  C   UNL     1     -13.404   7.534  71.420  1.00  0.00    -0.370 C  
BRANCH   7   8
HETATM    8  C   UNL     1     -13.671   8.912  72.012  1.00  0.00    -0.509 C  
BRANCH   8   9
HETATM    9  C   UNL     1     -12.521   9.867  71.709  1.00  0.00    -0.487 C  
BRANCH   9  10
HETATM   10  C   UNL     1     -13.020  11.306  71.706  1.00  0.00    -0.519 C  
BRANCH  10  11
HETATM   11  C   UNL     1     -12.407  12.100  70.563  1.00  0.00    -0.358 C  
BRANCH  11  12
HETATM   12  C   UNL     1     -11.573  11.191  69.676  1.00  0.00    -0.326 C  
BRANCH  12  13
HETATM   13  O   UNL     1     -12.112  11.240  68.361  1.00  0.00    -0.598 OA 
BRANCH  13  14
HETATM   14  C   UNL     1     -11.285  10.521  67.452  1.00  0.00    -0.173 C  
BRANCH  14  15
HETATM   15  C   UNL     1     -10.053  10.020  68.185  1.00  0.00    -0.159 C  
BRANCH  15  16
HETATM   16  O   UNL     1      -9.586   8.851  67.522  1.00  0.00    -0.138 OA 
BRANCH  16  17
HETATM   17  C   UNL     1      -9.751   8.954  66.112  1.00  0.00    -0.268 C  
BRANCH  17  18
HETATM   18  C   UNL     1      -8.412   9.324  65.496  1.00  0.00    -0.140 C  
BRANCH  18  19
HETATM   19  O   UNL     1      -8.462   9.069  64.098  1.00  0.00    -0.181 OA 
BRANCH  19  20
HETATM   20  C   UNL     1      -8.151  10.239  63.340  1.00  0.00    -0.154 C  
BRANCH  20  21
HETATM   21  C   UNL     1      -9.354  10.591  62.473  1.00  0.00    -0.290 C  
BRANCH  21  22
HETATM   22  O   UNL     1     -10.038  11.699  63.065  1.00  0.00    -0.370 OA 
BRANCH  22  23
HETATM   23  C   UNL     1     -11.267  11.297  63.659  1.00  0.00    -0.133 C  
BRANCH  23  24
HETATM   24  C   UNL     1     -12.329  12.340  63.348  1.00  0.00    -0.517 C  
BRANCH  24  25
HETATM   25  O   UNL     1     -13.204  12.449  64.468  1.00  0.00    -0.834 OA 
BRANCH  25  26
HETATM   26  C   UNL     1     -12.745  13.432  65.388  1.00  0.00    -0.426 C  
BRANCH  26  27
HETATM   27  C   UNL     1     -12.162  14.600  64.606  1.00  0.00    -0.434 C  
BRANCH  27  28
HETATM   28  O   UNL     1     -10.854  14.881  65.095  1.00  0.00    -0.358 OA 
BRANCH  28  29
HETATM   29  C   UNL     1     -10.716  14.477  66.453  1.00  0.00    -0.309 C  
BRANCH  29  30
HETATM   30  C   UNL     1      -9.493  13.583  66.580  1.00  0.00    -0.256 C  
BRANCH  30  31
HETATM   31  O   UNL     1      -8.758  13.966  67.738  1.00  0.00    -0.166 OA 
BRANCH  31  32
HETATM   32  C   UNL     1      -8.251  15.292  67.615  1.00  0.00    -0.161 C  
BRANCH  32  33
HETATM   33  C   UNL     1      -7.089  15.469  68.582  1.00  0.00    -0.118 C  
BRANCH  33  34
HETATM   34  O   UNL     1      -7.117  16.792  69.111  1.00  0.00    -0.217 OA 
BRANCH  34  35
HETATM   35  C   UNL     1      -8.295  17.487  68.712  1.00  0.00    -0.219 C  
BRANCH  35  36
HETATM   36  C   UNL     1      -7.898  18.677  67.849  1.00  0.00    -0.257 C  
BRANCH  36  37
HETATM   37  O   UNL     1      -8.878  19.709  67.972  1.00  0.00    -0.310 OA 
BRANCH  37  38
HETATM   38  C   UNL     1      -9.494  19.982  66.706  1.00  0.00    -0.406 C  
BRANCH  38  39
HETATM   39  C   UNL     1     -10.747  19.122  66.587  1.00  0.00    -0.377 C  
HETATM   40  O   UNL     1     -10.523  18.064  65.656  1.00  0.00    -0.619 OA 
HETATM   41  H   UNL     1     -11.304  17.528  65.582  1.00  0.00     0.000 HD 
ENDBRANCH  38  39
ENDBRANCH  37  38
ENDBRANCH  36  37
ENDBRANCH  35  36
ENDBRANCH  34  35
ENDBRANCH  33  34
ENDBRANCH  32  33
ENDBRANCH  31  32
ENDBRANCH  30  31
ENDBRANCH  29  30
ENDBRANCH  28  29
ENDBRANCH  27  28
ENDBRANCH  26  27
ENDBRANCH  25  26
ENDBRANCH  24  25
ENDBRANCH  23  24
ENDBRANCH  22  23
ENDBRANCH  21  22
ENDBRANCH  20  21
ENDBRANCH  19  20
ENDBRANCH  18  19
ENDBRANCH  17  18
ENDBRANCH  16  17
ENDBRANCH  15  16
ENDBRANCH  14  15
ENDBRANCH  13  14
ENDBRANCH  12  13
ENDBRANCH  11  12
ENDBRANCH  10  11
ENDBRANCH   9  10
ENDBRANCH   8   9
ENDBRANCH   7   8
ENDBRANCH   6   7
ENDBRANCH   5   6
ENDBRANCH   4   5
ENDBRANCH   3   4
ENDBRANCH   2   3
TORSDOF 37
ENDMDL
MODEL       32
REMARK 921   NORMALIZED FREE ENERGY PREDICTED BY IDOCK:   -3.76 KCAL/MOL
REMARK 922        TOTAL FREE ENERGY PREDICTED BY IDOCK:  -15.53 KCAL/MOL
REMARK 923 INTER-LIGAND FREE ENERGY PREDICTED BY IDOCK:  -11.93 KCAL/MOL
REMARK 924 INTRA-LIGAND FREE ENERGY PREDICTED BY IDOCK:   -3.60 KCAL/MOL
REMARK 927      BINDING AFFINITY PREDICTED BY RF-SCORE:    0.00 PKD
ROOT
HETATM    1  C   UNL     1     -12.432  11.968  63.311  1.00  0.00    -0.544 C  
HETATM    2  C   UNL     1     -10.945  12.187  63.531  1.00  0.00    -0.521 C  
ENDROOT
BRANCH   2   3
HETATM    3  C   UNL     1     -10.691  13.460  64.334  1.00  0.00    -0.423 C  
BRANCH   3   4
HETATM    4  C   UNL     1     -11.991  14.219  64.594  1.00  0.00    -0.468 C  
BRANCH   4   5
HETATM    5  C   UNL     1     -12.377  14.141  66.069  1.00  0.00    -0.470 C  
BRANCH   5   6
HETATM    6  C   UNL     1     -11.183  14.459  66.962  1.00  0.00    -0.336 C  
BRANCH   6   7
HETATM    7  C   UNL     1     -11.646  14.869  68.356  1.00  0.00    -0.348 C  
BRANCH   7   8
HETATM    8  C   UNL     1     -10.912  16.120  68.819  1.00  0.00    -0.330 C  
BRANCH   8   9
HETATM    9  C   UNL     1     -10.674  17.076  67.654  1.00  0.00    -0.295 C  
BRANCH   9  10
HETATM   10  C   UNL     1     -10.313  18.461  68.175  1.00  0.00    -0.393 C  
BRANCH  10  11
HETATM   11  C   UNL     1     -10.403  19.505  67.072  1.00  0.00    -0.568 C  
BRANCH  11  12
HETATM   12  C   UNL     1      -9.016  19.995  66.694  1.00  0.00    -0.355 C  
BRANCH  12  13
HETATM   13  O   UNL     1      -8.433  19.038  65.817  1.00  0.00    -0.428 OA 
BRANCH  13  14
HETATM   14  C   UNL     1      -7.024  18.975  66.009  1.00  0.00    -0.259 C  
BRANCH  14  15
HETATM   15  C   UNL     1      -6.653  17.602  66.542  1.00  0.00    -0.227 C  
BRANCH  15  16
HETATM   16  O   UNL     1      -6.714  17.646  67.963  1.00  0.00    -0.180 OA 
BRANCH  16  17
HETATM   17  C   UNL     1      -6.761  16.336  68.519  1.00  0.00    -0.135 C  
BRANCH  17  18
HETATM   18  C   UNL     1      -7.334  15.390  67.477  1.00  0.00    -0.195 C  
BRANCH  18  19
HETATM   19  O   UNL     1      -7.754  14.194  68.122  1.00  0.00    -0.117 OA 
BRANCH  19  20
HETATM   20  C   UNL     1      -7.021  13.060  67.653  1.00  0.00    -0.154 C  
BRANCH  20  21
HETATM   21  C   UNL     1      -7.741  11.796  68.106  1.00  0.00    -0.124 C  
BRANCH  21  22
HETATM   22  O   UNL     1      -9.133  11.926  67.800  1.00  0.00    -0.168 OA 
BRANCH  22  23
HETATM   23  C   UNL     1      -9.940  11.210  68.727  1.00  0.00    -0.198 C  
BRANCH  23  24
HETATM   24  C   UNL     1     -11.217  10.766  68.030  1.00  0.00    -0.307 C  
BRANCH  24  25
HETATM   25  O   UNL     1     -12.313  10.953  68.920  1.00  0.00    -0.486 OA 
BRANCH  25  26
HETATM   26  C   UNL     1     -11.930  11.715  70.058  1.00  0.00    -0.351 C  
BRANCH  26  27
HETATM   27  C   UNL     1     -12.791  11.297  71.241  1.00  0.00    -0.389 C  
BRANCH  27  28
HETATM   28  O   UNL     1     -13.348  10.013  70.981  1.00  0.00    -0.385 OA 
BRANCH  28  29
HETATM   29  C   UNL     1     -12.964   9.074  71.980  1.00  0.00    -0.407 C  
BRANCH  29  30
HETATM   30  C   UNL     1     -11.731   8.324  71.504  1.00  0.00    -0.292 C  
BRANCH  30  31
HETATM   31  O   UNL     1     -10.722   8.409  72.505  1.00  0.00    -0.338 OA 
BRANCH  31  32
HETATM   32  C   UNL     1     -10.786   7.301  73.400  1.00  0.00    -0.369 C  
BRANCH  32  33
HETATM   33  C   UNL     1      -9.798   6.238  72.943  1.00  0.00    -0.167 C  
BRANCH  33  34
HETATM   34  O   UNL     1     -10.476   5.291  72.122  1.00  0.00    -0.209 OA 
BRANCH  34  35
HETATM   35  C   UNL     1      -9.662   4.873  71.028  1.00  0.00    -0.185 C  
BRANCH  35  36
HETATM   36  C   UNL     1      -8.502   5.848  70.877  1.00  0.00    -0.127 C  
BRANCH  36  37
HETATM   37  O   UNL     1      -8.547   6.452  69.583  1.00  0.00    -0.131 OA 
BRANCH  37  38
HETATM   38  C   UNL     1      -8.571   7.882  69.688  1.00  0.00    -0.133 C  
BRANCH  38  39
HETATM   39  C   UNL     1      -7.557   8.301  70.747  1.00  0.00    -0.073 C  
HETATM   40  O   UNL     1      -8.170   9.189  71.680  1.00  0.00    -0.343 OA 
HETATM   41  H   UNL     1      -7.539   9.450  72.340  1.00  0.00     0.000 HD 
ENDBRANCH  38  39
ENDBRANCH  37  38
ENDBRANCH  36  37
ENDBRANCH  35  36
ENDBRANCH  34  35
ENDBRANCH  33  34
ENDBRANCH  32  33
ENDBRANCH  31  32
ENDBRANCH  30  31
ENDBRANCH  29  30
ENDBRANCH  28  29
ENDBRANCH  27  28
ENDBRANCH  26  27
ENDBRANCH  25  26
ENDBRANCH  24  25
ENDBRANCH  23  24
ENDBRANCH  22  23
ENDBRANCH  21  22
ENDBRANCH  20  21
ENDBRANCH  19  20
ENDBRANCH  18  19
ENDBRANCH  17  18
ENDBRANCH  16  17
ENDBRANCH  15  16
ENDBRANCH  14  15
ENDBRANCH  13  14
ENDBRANCH  12  13
ENDBRANCH  11  12
ENDBRANCH  10  11
ENDBRANCH   9  10
ENDBRANCH   8   9
ENDBRANCH   7   8
ENDBRANCH   6   7
ENDBRANCH   5   6
ENDBRANCH   4   5
ENDBRANCH   3   4
ENDBRANCH   2   3
TORSDOF 37
ENDMDL
MODEL       33
REMARK 921   NORMALIZED FREE ENERGY PREDICTED BY IDOCK:   -3.75 KCAL/MOL
REMARK 922        TOTAL FREE ENERGY PREDICTED BY IDOCK:  -15.48 KCAL/MOL
REMARK 923 INTER-LIGAND FREE ENERGY PREDICTED BY IDOCK:  -12.25 KCAL/MOL
REMARK 924 INTRA-LIGAND FREE ENERGY PREDICTED BY IDOCK:   -3.23 KCAL/MOL
REMARK 927      BINDING AFFINITY PREDICTED BY RF-SCORE:    0.00 PKD
ROOT
HETATM    1  C   UNL     1     -12.407  15.618  74.448  1.00  0.00    -0.802 C  
HETATM    2  C   UNL     1     -13.166  15.780  73.142  1.00  0.00    -0.694 C  
ENDROOT
BRANCH   2   3
HETATM    3  C   UNL     1     -12.208  15.963  71.969  1.00  0.00    -0.570 C  
BRANCH   3   4
HETATM    4  C   UNL     1     -12.637  15.123  70.768  1.00  0.00    -0.452 C  
BRANCH   4   5
HETATM    5  C   UNL     1     -13.090  13.735  71.214  1.00  0.00    -0.370 C  
BRANCH   5   6
HETATM    6  C   UNL     1     -12.317  12.647  70.478  1.00  0.00    -0.350 C  
BRANCH   6   7
HETATM    7  C   UNL     1     -11.661  13.208  69.220  1.00  0.00    -0.370 C  
BRANCH   7   8
HETATM    8  C   UNL     1     -11.768  12.215  68.070  1.00  0.00    -0.409 C  
BRANCH   8   9
HETATM    9  C   UNL     1     -10.890  10.993  68.320  1.00  0.00    -0.261 C  
BRANCH   9  10
HETATM   10  C   UNL     1     -10.440  10.389  66.997  1.00  0.00    -0.309 C  
BRANCH  10  11
HETATM   11  C   UNL     1      -9.840  11.447  66.083  1.00  0.00    -0.255 C  
BRANCH  11  12
HETATM   12  C   UNL     1      -9.841  10.964  64.643  1.00  0.00    -0.294 C  
BRANCH  12  13
HETATM   13  O   UNL     1     -10.347  12.012  63.825  1.00  0.00    -0.352 OA 
BRANCH  13  14
HETATM   14  C   UNL     1     -11.709  11.773  63.487  1.00  0.00    -0.383 C  
BRANCH  14  15
HETATM   15  C   UNL     1     -12.589  12.774  64.214  1.00  0.00    -0.324 C  
BRANCH  15  16
HETATM   16  O   UNL     1     -12.551  14.003  63.498  1.00  0.00    -0.842 OA 
BRANCH  16  17
HETATM   17  C   UNL     1     -12.109  15.072  64.328  1.00  0.00    -0.306 C  
BRANCH  17  18
HETATM   18  C   UNL     1     -11.827  14.519  65.716  1.00  0.00    -0.327 C  
BRANCH  18  19
HETATM   19  O   UNL     1     -10.652  15.137  66.227  1.00  0.00    -0.294 OA 
BRANCH  19  20
HETATM   20  C   UNL     1     -10.778  16.560  66.254  1.00  0.00    -0.146 C  
BRANCH  20  21
HETATM   21  C   UNL     1     -10.897  17.010  67.705  1.00  0.00    -0.269 C  
BRANCH  21  22
HETATM   22  O   UNL     1     -10.679  18.422  67.767  1.00  0.00    -0.414 OA 
BRANCH  22  23
HETATM   23  C   UNL     1     -10.265  18.942  66.509  1.00  0.00    -0.414 C  
BRANCH  23  24
HETATM   24  C   UNL     1      -9.006  19.772  66.708  1.00  0.00    -0.359 C  
BRANCH  24  25
HETATM   25  O   UNL     1      -8.652  19.743  68.088  1.00  0.00    -0.317 OA 
BRANCH  25  26
HETATM   26  C   UNL     1      -7.264  19.481  68.259  1.00  0.00    -0.303 C  
BRANCH  26  27
HETATM   27  C   UNL     1      -7.100  18.137  68.952  1.00  0.00    -0.274 C  
BRANCH  27  28
HETATM   28  O   UNL     1      -7.424  17.097  68.034  1.00  0.00    -0.184 OA 
BRANCH  28  29
HETATM   29  C   UNL     1      -7.570  15.849  68.703  1.00  0.00    -0.161 C  
BRANCH  29  30
HETATM   30  C   UNL     1      -7.135  14.733  67.766  1.00  0.00    -0.174 C  
BRANCH  30  31
HETATM   31  O   UNL     1      -6.663  13.636  68.541  1.00  0.00    -0.080 OA 
BRANCH  31  32
HETATM   32  C   UNL     1      -6.695  12.423  67.793  1.00  0.00    -0.115 C  
BRANCH  32  33
HETATM   33  C   UNL     1      -7.229  11.308  68.681  1.00  0.00    -0.098 C  
BRANCH  33  34
HETATM   34  O   UNL     1      -6.880  10.048  68.113  1.00  0.00    -0.063 OA 
BRANCH  34  35
HETATM   35  C   UNL     1      -7.398   8.968  68.885  1.00  0.00    -0.074 C  
BRANCH  35  36
HETATM   36  C   UNL     1      -7.552   7.749  67.986  1.00  0.00    -0.120 C  
BRANCH  36  37
HETATM   37  O   UNL     1      -7.604   8.162  66.620  1.00  0.00    -0.090 OA 
BRANCH  37  38
HETATM   38  C   UNL     1      -8.544   7.370  65.882  1.00  0.00    -0.153 C  
BRANCH  38  39
HETATM   39  C   UNL     1      -7.904   6.983  64.553  1.00  0.00    -0.118 C  
HETATM   40  O   UNL     1      -8.611   7.596  63.476  1.00  0.00    -0.363 OA 
HETATM   41  H   UNL     1      -8.212   7.355  62.649  1.00  0.00     0.000 HD 
ENDBRANCH  38  39
ENDBRANCH  37  38
ENDBRANCH  36  37
ENDBRANCH  35  36
ENDBRANCH  34  35
ENDBRANCH  33  34
ENDBRANCH  32  33
ENDBRANCH  31  32
ENDBRANCH  30  31
ENDBRANCH  29  30
ENDBRANCH  28  29
ENDBRANCH  27  28
ENDBRANCH  26  27
ENDBRANCH  25  26
ENDBRANCH  24  25
ENDBRANCH  23  24
ENDBRANCH  22  23
ENDBRANCH  21  22
ENDBRANCH  20  21
ENDBRANCH  19  20
ENDBRANCH  18  19
ENDBRANCH  17  18
ENDBRANCH  16  17
ENDBRANCH  15  16
ENDBRANCH  14  15
ENDBRANCH  13  14
ENDBRANCH  12  13
ENDBRANCH  11  12
ENDBRANCH  10  11
ENDBRANCH   9  10
ENDBRANCH   8   9
ENDBRANCH   7   8
ENDBRANCH   6   7
ENDBRANCH   5   6
ENDBRANCH   4   5
ENDBRANCH   3   4
ENDBRANCH   2   3
TORSDOF 37
ENDMDL
MODEL       34
REMARK 921   NORMALIZED FREE ENERGY PREDICTED BY IDOCK:   -3.75 KCAL/MOL
REMARK 922        TOTAL FREE ENERGY PREDICTED BY IDOCK:  -15.48 KCAL/MOL
REMARK 923 INTER-LIGAND FREE ENERGY PREDICTED BY IDOCK:  -11.83 KCAL/MOL
REMARK 924 INTRA-LIGAND FREE ENERGY PREDICTED BY IDOCK:   -3.64 KCAL/MOL
REMARK 927      BINDING AFFINITY PREDICTED BY RF-SCORE:    0.00 PKD
ROOT
HETATM    1  C   UNL     1      -9.843   3.949  65.415  1.00  0.00    -0.167 C  
HETATM    2  C   UNL     1      -9.176   3.994  66.779  1.00  0.00    -0.178 C  
ENDROOT
BRANCH   2   3
HETATM    3  C   UNL     1      -7.705   4.384  66.659  1.00  0.00    -0.094 C  
BRANCH   3   4
HETATM    4  C   UNL     1      -7.449   5.766  67.255  1.00  0.00    -0.081 C  
BRANCH   4   5
HETATM    5  C   UNL     1      -7.188   6.791  66.153  1.00  0.00    -0.067 C  
BRANCH   5   6
HETATM    6  C   UNL     1      -7.776   8.148  66.520  1.00  0.00    -0.093 C  
BRANCH   6   7
HETATM    7  C   UNL     1      -9.281   8.167  66.277  1.00  0.00    -0.245 C  
BRANCH   7   8
HETATM    8  C   UNL     1      -9.697   9.460  65.587  1.00  0.00    -0.336 C  
BRANCH   8   9
HETATM    9  C   UNL     1      -8.925   9.657  64.287  1.00  0.00    -0.269 C  
BRANCH   9  10
HETATM   10  C   UNL     1      -9.627  10.684  63.409  1.00  0.00    -0.373 C  
BRANCH  10  11
HETATM   11  C   UNL     1     -10.820  11.299  64.125  1.00  0.00    -0.407 C  
BRANCH  11  12
HETATM   12  C   UNL     1     -11.845  11.792  63.118  1.00  0.00    -0.091 C  
BRANCH  12  13
HETATM   13  O   UNL     1     -12.803  12.580  63.812  1.00  0.00    -0.721 OA 
BRANCH  13  14
HETATM   14  C   UNL     1     -12.485  12.654  65.198  1.00  0.00    -0.463 C  
BRANCH  14  15
HETATM   15  C   UNL     1     -12.870  14.024  65.727  1.00  0.00    -0.377 C  
BRANCH  15  16
HETATM   16  O   UNL     1     -11.821  14.485  66.571  1.00  0.00    -0.383 OA 
BRANCH  16  17
HETATM   17  C   UNL     1     -10.879  15.268  65.846  1.00  0.00    -0.342 C  
BRANCH  17  18
HETATM   18  C   UNL     1      -9.481  14.770  66.178  1.00  0.00    -0.292 C  
BRANCH  18  19
HETATM   19  O   UNL     1      -9.569  13.825  67.236  1.00  0.00    -0.224 OA 
BRANCH  19  20
HETATM   20  C   UNL     1      -8.828  12.639  66.943  1.00  0.00    -0.201 C  
BRANCH  20  21
HETATM   21  C   UNL     1      -7.960  12.297  68.148  1.00  0.00    -0.155 C  
BRANCH  21  22
HETATM   22  O   UNL     1      -8.355  11.016  68.649  1.00  0.00    -0.140 OA 
BRANCH  22  23
HETATM   23  C   UNL     1      -7.480  10.565  69.676  1.00  0.00    -0.141 C  
BRANCH  23  24
HETATM   24  C   UNL     1      -7.967   9.217  70.183  1.00  0.00    -0.121 C  
BRANCH  24  25
HETATM   25  O   UNL     1      -8.285   9.335  71.567  1.00  0.00    -0.327 OA 
BRANCH  25  26
HETATM   26  C   UNL     1      -9.578   8.813  71.846  1.00  0.00    -0.302 C  
BRANCH  26  27
HETATM   27  C   UNL     1     -10.088   8.081  70.612  1.00  0.00    -0.194 C  
BRANCH  27  28
HETATM   28  O   UNL     1     -11.486   8.315  70.477  1.00  0.00    -0.257 OA 
BRANCH  28  29
HETATM   29  C   UNL     1     -12.011   8.969  71.629  1.00  0.00    -0.356 C  
BRANCH  29  30
HETATM   30  C   UNL     1     -13.011  10.023  71.184  1.00  0.00    -0.387 C  
BRANCH  30  31
HETATM   31  O   UNL     1     -13.084  11.041  72.178  1.00  0.00    -0.460 OA 
BRANCH  31  32
HETATM   32  C   UNL     1     -13.073  12.340  71.591  1.00  0.00    -0.306 C  
BRANCH  32  33
HETATM   33  C   UNL     1     -14.031  13.238  72.359  1.00  0.00    -0.456 C  
BRANCH  33  34
HETATM   34  O   UNL     1     -13.795  14.595  71.995  1.00  0.00    -0.379 OA 
BRANCH  34  35
HETATM   35  C   UNL     1     -13.224  15.332  73.073  1.00  0.00    -0.510 C  
BRANCH  35  36
HETATM   36  C   UNL     1     -12.065  16.164  72.543  1.00  0.00    -0.550 C  
BRANCH  36  37
HETATM   37  O   UNL     1     -11.382  15.442  71.518  1.00  0.00    -0.377 OA 
BRANCH  37  38
HETATM   38  C   UNL     1     -10.946  16.323  70.475  1.00  0.00    -0.219 C  
BRANCH  38  39
HETATM   39  C   UNL     1     -11.809  16.072  69.243  1.00  0.00    -0.257 C  
HETATM   40  O   UNL     1     -12.373  14.763  69.304  1.00  0.00    -0.534 OA 
HETATM   41  H   UNL     1     -12.910  14.606  68.537  1.00  0.00     0.000 HD 
ENDBRANCH  38  39
ENDBRANCH  37  38
ENDBRANCH  36  37
ENDBRANCH  35  36
ENDBRANCH  34  35
ENDBRANCH  33  34
ENDBRANCH  32  33
ENDBRANCH  31  32
ENDBRANCH  30  31
ENDBRANCH  29  30
ENDBRANCH  28  29
ENDBRANCH  27  28
ENDBRANCH  26  27
ENDBRANCH  25  26
ENDBRANCH  24  25
ENDBRANCH  23  24
ENDBRANCH  22  23
ENDBRANCH  21  22
ENDBRANCH  20  21
ENDBRANCH  19  20
ENDBRANCH  18  19
ENDBRANCH  17  18
ENDBRANCH  16  17
ENDBRANCH  15  16
ENDBRANCH  14  15
ENDBRANCH  13  14
ENDBRANCH  12  13
ENDBRANCH  11  12
ENDBRANCH  10  11
ENDBRANCH   9  10
ENDBRANCH   8   9
ENDBRANCH   7   8
ENDBRANCH   6   7
ENDBRANCH   5   6
ENDBRANCH   4   5
ENDBRANCH   3   4
ENDBRANCH   2   3
TORSDOF 37
ENDMDL
MODEL       35
REMARK 921   NORMALIZED FREE ENERGY PREDICTED BY IDOCK:   -3.74 KCAL/MOL
REMARK 922        TOTAL FREE ENERGY PREDICTED BY IDOCK:  -15.46 KCAL/MOL
REMARK 923 INTER-LIGAND FREE ENERGY PREDICTED BY IDOCK:  -12.33 KCAL/MOL
REMARK 924 INTRA-LIGAND FREE ENERGY PREDICTED BY IDOCK:   -3.13 KCAL/MOL
REMARK 927      BINDING AFFINITY PREDICTED BY RF-SCORE:    0.00 PKD
ROOT
HETATM    1  C   UNL     1     -11.999  13.086  63.554  1.00  0.00    -0.615 C  
HETATM    2  C   UNL     1     -12.608  12.756  64.906  1.00  0.00    -0.541 C  
ENDROOT
BRANCH   2   3
HETATM    3  C   UNL     1     -11.927  13.545  66.021  1.00  0.00    -0.449 C  
BRANCH   3   4
HETATM    4  C   UNL     1     -11.889  12.745  67.322  1.00  0.00    -0.414 C  
BRANCH   4   5
HETATM    5  C   UNL     1     -11.397  13.614  68.477  1.00  0.00    -0.325 C  
BRANCH   5   6
HETATM    6  C   UNL     1     -11.700  15.085  68.219  1.00  0.00    -0.338 C  
BRANCH   6   7
HETATM    7  C   UNL     1     -12.270  15.746  69.470  1.00  0.00    -0.178 C  
BRANCH   7   8
HETATM    8  C   UNL     1     -11.254  15.712  70.605  1.00  0.00    -0.382 C  
BRANCH   8   9
HETATM    9  C   UNL     1     -11.951  15.593  71.957  1.00  0.00    -0.544 C  
BRANCH   9  10
HETATM   10  C   UNL     1     -13.396  15.150  71.767  1.00  0.00    -0.506 C  
BRANCH  10  11
HETATM   11  C   UNL     1     -13.664  13.827  72.469  1.00  0.00    -0.667 C  
BRANCH  11  12
HETATM   12  C   UNL     1     -13.092  12.675  71.660  1.00  0.00    -0.323 C  
BRANCH  12  13
HETATM   13  O   UNL     1     -13.511  11.458  72.266  1.00  0.00    -0.351 OA 
BRANCH  13  14
HETATM   14  C   UNL     1     -13.080  10.340  71.498  1.00  0.00    -0.433 C  
BRANCH  14  15
HETATM   15  C   UNL     1     -13.329   9.066  72.287  1.00  0.00    -0.467 C  
BRANCH  15  16
HETATM   16  O   UNL     1     -13.422   7.984  71.367  1.00  0.00    -0.297 OA 
BRANCH  16  17
HETATM   17  C   UNL     1     -12.624   6.881  71.784  1.00  0.00    -0.344 C  
BRANCH  17  18
HETATM   18  C   UNL     1     -11.309   6.923  71.023  1.00  0.00    -0.299 C  
BRANCH  18  19
HETATM   19  O   UNL     1     -11.404   6.064  69.893  1.00  0.00    -0.400 OA 
BRANCH  19  20
HETATM   20  C   UNL     1     -10.986   6.724  68.696  1.00  0.00    -0.199 C  
BRANCH  20  21
HETATM   21  C   UNL     1      -9.985   7.812  69.065  1.00  0.00    -0.182 C  
BRANCH  21  22
HETATM   22  O   UNL     1     -10.397   9.039  68.456  1.00  0.00    -0.196 OA 
BRANCH  22  23
HETATM   23  C   UNL     1     -10.119  10.155  69.293  1.00  0.00    -0.222 C  
BRANCH  23  24
HETATM   24  C   UNL     1      -8.920  10.905  68.734  1.00  0.00    -0.164 C  
BRANCH  24  25
HETATM   25  O   UNL     1      -7.730  10.316  69.251  1.00  0.00    -0.104 OA 
BRANCH  25  26
HETATM   26  C   UNL     1      -6.572  10.854  68.624  1.00  0.00    -0.057 C  
BRANCH  26  27
HETATM   27  C   UNL     1      -5.557  11.218  69.698  1.00  0.00    -0.061 C  
BRANCH  27  28
HETATM   28  O   UNL     1      -6.165  12.107  70.630  1.00  0.00    -0.233 OA 
BRANCH  28  29
HETATM   29  C   UNL     1      -6.139  13.448  70.152  1.00  0.00    -0.112 C  
BRANCH  29  30
HETATM   30  C   UNL     1      -5.738  14.370  71.292  1.00  0.00    -0.171 C  
BRANCH  30  31
HETATM   31  O   UNL     1      -5.508  15.676  70.772  1.00  0.00    -0.146 OA 
BRANCH  31  32
HETATM   32  C   UNL     1      -6.430  15.988  69.731  1.00  0.00    -0.164 C  
BRANCH  32  33
HETATM   33  C   UNL     1      -6.092  17.360  69.166  1.00  0.00    -0.216 C  
BRANCH  33  34
HETATM   34  O   UNL     1      -6.762  17.533  67.920  1.00  0.00    -0.172 OA 
BRANCH  34  35
HETATM   35  C   UNL     1      -6.485  18.810  67.353  1.00  0.00    -0.193 C  
BRANCH  35  36
HETATM   36  C   UNL     1      -7.063  18.860  65.945  1.00  0.00    -0.260 C  
BRANCH  36  37
HETATM   37  O   UNL     1      -8.373  18.291  65.942  1.00  0.00    -0.506 OA 
BRANCH  37  38
HETATM   38  C   UNL     1      -9.338  19.228  66.438  1.00  0.00    -0.360 C  
BRANCH  38  39
HETATM   39  C   UNL     1     -10.295  18.484  67.364  1.00  0.00    -0.400 C  
HETATM   40  O   UNL     1      -9.755  18.437  68.684  1.00  0.00    -0.336 OA 
HETATM   41  H   UNL     1     -10.351  17.974  69.260  1.00  0.00     0.000 HD 
ENDBRANCH  38  39
ENDBRANCH  37  38
ENDBRANCH  36  37
ENDBRANCH  35  36
ENDBRANCH  34  35
ENDBRANCH  33  34
ENDBRANCH  32  33
ENDBRANCH  31  32
ENDBRANCH  30  31
ENDBRANCH  29  30
ENDBRANCH  28  29
ENDBRANCH  27  28
ENDBRANCH  26  27
ENDBRANCH  25  26
ENDBRANCH  24  25
ENDBRANCH  23  24
ENDBRANCH  22  23
ENDBRANCH  21  22
ENDBRANCH  20  21
ENDBRANCH  19  20
ENDBRANCH  18  19
ENDBRANCH  17  18
ENDBRANCH  16  17
ENDBRANCH  15  16
ENDBRANCH  14  15
ENDBRANCH  13  14
ENDBRANCH  12  13
ENDBRANCH  11  12
ENDBRANCH  10  11
ENDBRANCH   9  10
ENDBRANCH   8   9
ENDBRANCH   7   8
ENDBRANCH   6   7
ENDBRANCH   5   6
ENDBRANCH   4   5
ENDBRANCH   3   4
ENDBRANCH   2   3
TORSDOF 37
ENDMDL
MODEL       36
REMARK 921   NORMALIZED FREE ENERGY PREDICTED BY IDOCK:   -3.72 KCAL/MOL
REMARK 922        TOTAL FREE ENERGY PREDICTED BY IDOCK:  -15.40 KCAL/MOL
REMARK 923 INTER-LIGAND FREE ENERGY PREDICTED BY IDOCK:  -12.21 KCAL/MOL
REMARK 924 INTRA-LIGAND FREE ENERGY PREDICTED BY IDOCK:   -3.20 KCAL/MOL
REMARK 927      BINDING AFFINITY PREDICTED BY RF-SCORE:    0.00 PKD
ROOT
HETATM    1  C   UNL     1      -6.775   5.477  65.677  1.00  0.00    -0.045 C  
HETATM    2  C   UNL     1      -7.366   5.708  67.057  1.00  0.00    -0.080 C  
ENDROOT
BRANCH   2   3
HETATM    3  C   UNL     1      -8.847   6.068  66.966  1.00  0.00    -0.113 C  
BRANCH   3   4
HETATM    4  C   UNL     1      -9.668   5.291  67.992  1.00  0.00    -0.179 C  
BRANCH   4   5
HETATM    5  C   UNL     1     -10.920   6.071  68.385  1.00  0.00    -0.340 C  
BRANCH   5   6
HETATM    6  C   UNL     1     -11.103   6.081  69.898  1.00  0.00    -0.469 C  
BRANCH   6   7
HETATM    7  C   UNL     1      -9.926   5.401  70.589  1.00  0.00    -0.280 C  
BRANCH   7   8
HETATM    8  C   UNL     1     -10.286   5.028  72.021  1.00  0.00    -0.276 C  
BRANCH   8   9
HETATM    9  C   UNL     1      -9.300   5.642  73.009  1.00  0.00    -0.142 C  
BRANCH   9  10
HETATM   10  C   UNL     1      -9.951   6.802  73.751  1.00  0.00    -0.318 C  
BRANCH  10  11
HETATM   11  C   UNL     1      -9.447   8.141  73.232  1.00  0.00    -0.290 C  
BRANCH  11  12
HETATM   12  C   UNL     1      -7.988   8.032  72.821  1.00  0.00    -0.148 C  
BRANCH  12  13
HETATM   13  O   UNL     1      -7.755   8.962  71.770  1.00  0.00    -0.289 OA 
BRANCH  13  14
HETATM   14  C   UNL     1      -8.866   9.004  70.880  1.00  0.00    -0.240 C  
BRANCH  14  15
HETATM   15  C   UNL     1      -8.393   8.678  69.475  1.00  0.00    -0.117 C  
BRANCH  15  16
HETATM   16  O   UNL     1      -9.080   9.532  68.566  1.00  0.00    -0.130 OA 
BRANCH  16  17
HETATM   17  C   UNL     1      -8.168  10.263  67.754  1.00  0.00    -0.110 C  
BRANCH  17  18
HETATM   18  C   UNL     1      -8.967  11.140  66.803  1.00  0.00    -0.165 C  
BRANCH  18  19
HETATM   19  O   UNL     1      -8.866  10.606  65.489  1.00  0.00    -0.177 OA 
BRANCH  19  20
HETATM   20  C   UNL     1     -10.154  10.392  64.909  1.00  0.00    -0.312 C  
BRANCH  20  21
HETATM   21  C   UNL     1     -10.121  10.870  63.462  1.00  0.00    -0.347 C  
BRANCH  21  22
HETATM   22  O   UNL     1     -10.394  12.274  63.437  1.00  0.00    -0.432 OA 
BRANCH  22  23
HETATM   23  C   UNL     1     -11.787  12.537  63.560  1.00  0.00    -0.534 C  
BRANCH  23  24
HETATM   24  C   UNL     1     -11.996  13.606  64.622  1.00  0.00    -0.407 C  
BRANCH  24  25
HETATM   25  O   UNL     1     -10.856  14.461  64.641  1.00  0.00    -0.392 OA 
BRANCH  25  26
HETATM   26  C   UNL     1     -10.472  14.780  65.972  1.00  0.00    -0.303 C  
BRANCH  26  27
HETATM   27  C   UNL     1     -10.603  16.283  66.173  1.00  0.00    -0.267 C  
BRANCH  27  28
HETATM   28  O   UNL     1     -10.635  16.565  67.569  1.00  0.00    -0.316 OA 
BRANCH  28  29
HETATM   29  C   UNL     1     -11.399  15.590  68.272  1.00  0.00    -0.357 C  
BRANCH  29  30
HETATM   30  C   UNL     1     -10.954  15.569  69.725  1.00  0.00    -0.294 C  
BRANCH  30  31
HETATM   31  O   UNL     1     -12.048  15.956  70.551  1.00  0.00    -0.375 OA 
BRANCH  31  32
HETATM   32  C   UNL     1     -11.663  16.026  71.921  1.00  0.00    -0.504 C  
BRANCH  32  33
HETATM   33  C   UNL     1     -12.843  15.612  72.789  1.00  0.00    -0.452 C  
BRANCH  33  34
HETATM   34  O   UNL     1     -13.843  15.017  71.966  1.00  0.00    -0.382 OA 
BRANCH  34  35
HETATM   35  C   UNL     1     -14.073  13.658  72.328  1.00  0.00    -0.505 C  
BRANCH  35  36
HETATM   36  C   UNL     1     -13.260  12.757  71.409  1.00  0.00    -0.152 C  
BRANCH  36  37
HETATM   37  O   UNL     1     -13.291  11.416  71.898  1.00  0.00    -0.435 OA 
BRANCH  37  38
HETATM   38  C   UNL     1     -13.012  10.482  70.847  1.00  0.00    -0.367 C  
BRANCH  38  39
HETATM   39  C   UNL     1     -11.942  11.084  69.943  1.00  0.00    -0.351 C  
HETATM   40  O   UNL     1     -12.166  10.685  68.591  1.00  0.00    -0.814 OA 
HETATM   41  H   UNL     1     -11.500  11.060  68.029  1.00  0.00     0.000 HD 
ENDBRANCH  38  39
ENDBRANCH  37  38
ENDBRANCH  36  37
ENDBRANCH  35  36
ENDBRANCH  34  35
ENDBRANCH  33  34
ENDBRANCH  32  33
ENDBRANCH  31  32
ENDBRANCH  30  31
ENDBRANCH  29  30
ENDBRANCH  28  29
ENDBRANCH  27  28
ENDBRANCH  26  27
ENDBRANCH  25  26
ENDBRANCH  24  25
ENDBRANCH  23  24
ENDBRANCH  22  23
ENDBRANCH  21  22
ENDBRANCH  20  21
ENDBRANCH  19  20
ENDBRANCH  18  19
ENDBRANCH  17  18
ENDBRANCH  16  17
ENDBRANCH  15  16
ENDBRANCH  14  15
ENDBRANCH  13  14
ENDBRANCH  12  13
ENDBRANCH  11  12
ENDBRANCH  10  11
ENDBRANCH   9  10
ENDBRANCH   8   9
ENDBRANCH   7   8
ENDBRANCH   6   7
ENDBRANCH   5   6
ENDBRANCH   4   5
ENDBRANCH   3   4
ENDBRANCH   2   3
TORSDOF 37
ENDMDL
MODEL       37
REMARK 921   NORMALIZED FREE ENERGY PREDICTED BY IDOCK:   -3.72 KCAL/MOL
REMARK 922        TOTAL FREE ENERGY PREDICTED BY IDOCK:  -15.40 KCAL/MOL
REMARK 923 INTER-LIGAND FREE ENERGY PREDICTED BY IDOCK:  -11.98 KCAL/MOL
REMARK 924 INTRA-LIGAND FREE ENERGY PREDICTED BY IDOCK:   -3.42 KCAL/MOL
REMARK 927      BINDING AFFINITY PREDICTED BY RF-SCORE:    0.00 PKD
ROOT
HETATM    1  C   UNL     1      -7.684   4.374  66.628  1.00  0.00    -0.094 C  
HETATM    2  C   UNL     1      -8.886   4.895  65.859  1.00  0.00    -0.130 C  
ENDROOT
BRANCH   2   3
HETATM    3  C   UNL     1     -10.155   4.809  66.701  1.00  0.00    -0.276 C  
BRANCH   3   4
HETATM    4  C   UNL     1     -10.904   6.140  66.712  1.00  0.00    -0.360 C  
BRANCH   4   5
HETATM    5  C   UNL     1     -10.000   7.265  67.211  1.00  0.00    -0.251 C  
BRANCH   5   6
HETATM    6  C   UNL     1     -10.042   7.365  68.731  1.00  0.00    -0.184 C  
BRANCH   6   7
HETATM    7  C   UNL     1      -8.690   7.001  69.334  1.00  0.00    -0.133 C  
BRANCH   7   8
HETATM    8  C   UNL     1      -8.801   5.740  70.181  1.00  0.00    -0.144 C  
BRANCH   8   9
HETATM    9  C   UNL     1     -10.256   5.305  70.323  1.00  0.00    -0.345 C  
BRANCH   9  10
HETATM   10  C   UNL     1     -10.646   5.245  71.794  1.00  0.00    -0.268 C  
BRANCH  10  11
HETATM   11  C   UNL     1     -11.188   6.583  72.275  1.00  0.00    -0.308 C  
BRANCH  11  12
HETATM   12  C   UNL     1     -12.596   6.803  71.750  1.00  0.00    -0.325 C  
BRANCH  12  13
HETATM   13  O   UNL     1     -12.627   8.059  71.082  1.00  0.00    -0.268 OA 
BRANCH  13  14
HETATM   14  C   UNL     1     -13.724   8.843  71.538  1.00  0.00    -0.345 C  
BRANCH  14  15
HETATM   15  C   UNL     1     -13.221  10.215  71.951  1.00  0.00    -0.452 C  
BRANCH  15  16
HETATM   16  O   UNL     1     -12.031  10.491  71.221  1.00  0.00    -0.345 OA 
BRANCH  16  17
HETATM   17  C   UNL     1     -12.175  11.658  70.420  1.00  0.00    -0.347 C  
BRANCH  17  18
HETATM   18  C   UNL     1     -11.916  11.282  68.970  1.00  0.00    -0.325 C  
BRANCH  18  19
HETATM   19  O   UNL     1     -10.524  11.405  68.704  1.00  0.00    -0.188 OA 
BRANCH  19  20
HETATM   20  C   UNL     1     -10.191  10.903  67.408  1.00  0.00    -0.201 C  
BRANCH  20  21
HETATM   21  C   UNL     1      -9.070  11.757  66.829  1.00  0.00    -0.194 C  
BRANCH  21  22
HETATM   22  O   UNL     1      -9.199  11.779  65.405  1.00  0.00    -0.148 OA 
BRANCH  22  23
HETATM   23  C   UNL     1     -10.020  10.714  64.939  1.00  0.00    -0.318 C  
BRANCH  23  24
HETATM   24  C   UNL     1     -10.379  10.969  63.483  1.00  0.00    -0.340 C  
BRANCH  24  25
HETATM   25  O   UNL     1     -10.932  12.277  63.370  1.00  0.00    -0.441 OA 
BRANCH  25  26
HETATM   26  C   UNL     1     -12.319  12.281  63.684  1.00  0.00    -0.562 C  
BRANCH  26  27
HETATM   27  C   UNL     1     -12.611  13.462  64.598  1.00  0.00    -0.265 C  
BRANCH  27  28
HETATM   28  O   UNL     1     -12.432  13.059  65.952  1.00  0.00    -0.469 OA 
BRANCH  28  29
HETATM   29  C   UNL     1     -11.979  14.144  66.754  1.00  0.00    -0.447 C  
BRANCH  29  30
HETATM   30  C   UNL     1     -11.124  15.067  65.900  1.00  0.00    -0.334 C  
BRANCH  30  31
HETATM   31  O   UNL     1     -10.205  15.757  66.740  1.00  0.00    -0.268 OA 
BRANCH  31  32
HETATM   32  C   UNL     1     -10.871  16.373  67.840  1.00  0.00    -0.328 C  
BRANCH  32  33
HETATM   33  C   UNL     1      -9.834  16.807  68.866  1.00  0.00    -0.264 C  
BRANCH  33  34
HETATM   34  O   UNL     1      -9.571  18.198  68.706  1.00  0.00    -0.317 OA 
BRANCH  34  35
HETATM   35  C   UNL     1      -8.387  18.420  67.944  1.00  0.00    -0.261 C  
BRANCH  35  36
HETATM   36  C   UNL     1      -8.047  19.903  67.982  1.00  0.00    -0.272 C  
BRANCH  36  37
HETATM   37  O   UNL     1      -6.694  20.076  68.405  1.00  0.00    -0.282 OA 
BRANCH  37  38
HETATM   38  C   UNL     1      -6.456  19.401  69.646  1.00  0.00    -0.294 C  
BRANCH  38  39
HETATM   39  C   UNL     1      -5.843  20.398  70.624  1.00  0.00    -0.276 C  
HETATM   40  O   UNL     1      -6.620  20.446  71.820  1.00  0.00    -0.613 OA 
HETATM   41  H   UNL     1      -6.238  21.066  72.429  1.00  0.00     0.000 HD 
ENDBRANCH  38  39
ENDBRANCH  37  38
ENDBRANCH  36  37
ENDBRANCH  35  36
ENDBRANCH  34  35
ENDBRANCH  33  34
ENDBRANCH  32  33
ENDBRANCH  31  32
ENDBRANCH  30  31
ENDBRANCH  29  30
ENDBRANCH  28  29
ENDBRANCH  27  28
ENDBRANCH  26  27
ENDBRANCH  25  26
ENDBRANCH  24  25
ENDBRANCH  23  24
ENDBRANCH  22  23
ENDBRANCH  21  22
ENDBRANCH  20  21
ENDBRANCH  19  20
ENDBRANCH  18  19
ENDBRANCH  17  18
ENDBRANCH  16  17
ENDBRANCH  15  16
ENDBRANCH  14  15
ENDBRANCH  13  14
ENDBRANCH  12  13
ENDBRANCH  11  12
ENDBRANCH  10  11
ENDBRANCH   9  10
ENDBRANCH   8   9
ENDBRANCH   7   8
ENDBRANCH   6   7
ENDBRANCH   5   6
ENDBRANCH   4   5
ENDBRANCH   3   4
ENDBRANCH   2   3
TORSDOF 37
ENDMDL
MODEL       38
REMARK 921   NORMALIZED FREE ENERGY PREDICTED BY IDOCK:   -3.72 KCAL/MOL
REMARK 922        TOTAL FREE ENERGY PREDICTED BY IDOCK:  -15.38 KCAL/MOL
REMARK 923 INTER-LIGAND FREE ENERGY PREDICTED BY IDOCK:  -12.33 KCAL/MOL
REMARK 924 INTRA-LIGAND FREE ENERGY PREDICTED BY IDOCK:   -3.05 KCAL/MOL
REMARK 927      BINDING AFFINITY PREDICTED BY RF-SCORE:    0.00 PKD
ROOT
HETATM    1  C   UNL     1      -6.919  19.527  68.927  1.00  0.00    -0.386 C  
HETATM    2  C   UNL     1      -7.243  20.508  67.813  1.00  0.00    -0.321 C  
ENDROOT
BRANCH   2   3
HETATM    3  C   UNL     1      -8.298  19.937  66.869  1.00  0.00    -0.366 C  
BRANCH   3   4
HETATM    4  C   UNL     1      -9.708  20.313  67.322  1.00  0.00    -0.590 C  
BRANCH   4   5
HETATM    5  C   UNL     1     -10.670  19.146  67.121  1.00  0.00    -0.567 C  
BRANCH   5   6
HETATM    6  C   UNL     1     -10.407  18.042  68.139  1.00  0.00    -0.398 C  
BRANCH   6   7
HETATM    7  C   UNL     1      -9.938  16.768  67.443  1.00  0.00    -0.267 C  
BRANCH   7   8
HETATM    8  C   UNL     1     -10.290  16.804  65.962  1.00  0.00    -0.346 C  
BRANCH   8   9
HETATM    9  C   UNL     1     -10.661  15.414  65.455  1.00  0.00    -0.397 C  
BRANCH   9  10
HETATM   10  C   UNL     1     -10.842  14.458  66.627  1.00  0.00    -0.304 C  
BRANCH  10  11
HETATM   11  C   UNL     1     -12.260  13.910  66.678  1.00  0.00    -0.465 C  
BRANCH  11  12
HETATM   12  C   UNL     1     -12.897  13.963  65.300  1.00  0.00    -0.398 C  
BRANCH  12  13
HETATM   13  O   UNL     1     -13.073  12.628  64.842  1.00  0.00    -0.850 OA 
BRANCH  13  14
HETATM   14  C   UNL     1     -12.634  12.498  63.494  1.00  0.00    -0.367 C  
BRANCH  14  15
HETATM   15  C   UNL     1     -11.127  12.308  63.475  1.00  0.00    -0.464 C  
BRANCH  15  16
HETATM   16  O   UNL     1     -10.818  11.126  64.205  1.00  0.00    -0.370 OA 
BRANCH  16  17
HETATM   17  C   UNL     1      -9.511  10.655  63.896  1.00  0.00    -0.282 C  
BRANCH  17  18
HETATM   18  C   UNL     1      -8.594  10.979  65.065  1.00  0.00     0.022 C  
BRANCH  18  19
HETATM   19  O   UNL     1      -7.566   9.998  65.129  1.00  0.00    -0.127 OA 
BRANCH  19  20
HETATM   20  C   UNL     1      -7.997   8.750  64.581  1.00  0.00    -0.135 C  
BRANCH  20  21
HETATM   21  C   UNL     1      -6.768   7.956  64.156  1.00  0.00    -0.061 C  
BRANCH  21  22
HETATM   22  O   UNL     1      -6.778   6.698  64.837  1.00  0.00    -0.047 OA 
BRANCH  22  23
HETATM   23  C   UNL     1      -8.068   6.393  65.352  1.00  0.00    -0.128 C  
BRANCH  23  24
HETATM   24  C   UNL     1      -7.912   5.553  66.611  1.00  0.00    -0.101 C  
BRANCH  24  25
HETATM   25  O   UNL     1      -9.175   5.469  67.264  1.00  0.00    -0.111 OA 
BRANCH  25  26
HETATM   26  C   UNL     1     -10.144   6.289  66.623  1.00  0.00    -0.155 C  
BRANCH  26  27
HETATM   27  C   UNL     1     -10.713   7.264  67.643  1.00  0.00    -0.224 C  
BRANCH  27  28
HETATM   28  O   UNL     1     -10.345   8.589  67.276  1.00  0.00    -0.253 OA 
BRANCH  28  29
HETATM   29  C   UNL     1      -9.941   9.343  68.414  1.00  0.00    -0.170 C  
BRANCH  29  30
HETATM   30  C   UNL     1     -10.975  10.426  68.682  1.00  0.00    -0.243 C  
BRANCH  30  31
HETATM   31  O   UNL     1     -10.909  10.800  70.054  1.00  0.00    -0.252 OA 
BRANCH  31  32
HETATM   32  C   UNL     1     -12.140  10.536  70.722  1.00  0.00    -0.370 C  
BRANCH  32  33
HETATM   33  C   UNL     1     -12.889  11.846  70.918  1.00  0.00    -0.130 C  
BRANCH  33  34
HETATM   34  O   UNL     1     -11.969  12.930  70.819  1.00  0.00    -0.258 OA 
BRANCH  34  35
HETATM   35  C   UNL     1     -12.611  14.116  70.358  1.00  0.00    -0.332 C  
BRANCH  35  36
HETATM   36  C   UNL     1     -11.627  15.275  70.442  1.00  0.00    -0.308 C  
BRANCH  36  37
HETATM   37  O   UNL     1     -11.961  16.111  71.550  1.00  0.00    -0.453 OA 
BRANCH  37  38
HETATM   38  C   UNL     1     -13.108  15.605  72.245  1.00  0.00    -0.456 C  
BRANCH  38  39
HETATM   39  C   UNL     1     -12.788  15.568  73.735  1.00  0.00    -0.540 C  
HETATM   40  O   UNL     1     -11.984  16.693  74.087  1.00  0.00    -0.356 OA 
HETATM   41  H   UNL     1     -11.784  16.669  75.015  1.00  0.00     0.000 HD 
ENDBRANCH  38  39
ENDBRANCH  37  38
ENDBRANCH  36  37
ENDBRANCH  35  36
ENDBRANCH  34  35
ENDBRANCH  33  34
ENDBRANCH  32  33
ENDBRANCH  31  32
ENDBRANCH  30  31
ENDBRANCH  29  30
ENDBRANCH  28  29
ENDBRANCH  27  28
ENDBRANCH  26  27
ENDBRANCH  25  26
ENDBRANCH  24  25
ENDBRANCH  23  24
ENDBRANCH  22  23
ENDBRANCH  21  22
ENDBRANCH  20  21
ENDBRANCH  19  20
ENDBRANCH  18  19
ENDBRANCH  17  18
ENDBRANCH  16  17
ENDBRANCH  15  16
ENDBRANCH  14  15
ENDBRANCH  13  14
ENDBRANCH  12  13
ENDBRANCH  11  12
ENDBRANCH  10  11
ENDBRANCH   9  10
ENDBRANCH   8   9
ENDBRANCH   7   8
ENDBRANCH   6   7
ENDBRANCH   5   6
ENDBRANCH   4   5
ENDBRANCH   3   4
ENDBRANCH   2   3
TORSDOF 37
ENDMDL
MODEL       39
REMARK 921   NORMALIZED FREE ENERGY PREDICTED BY IDOCK:   -3.71 KCAL/MOL
REMARK 922        TOTAL FREE ENERGY PREDICTED BY IDOCK:  -15.36 KCAL/MOL
REMARK 923 INTER-LIGAND FREE ENERGY PREDICTED BY IDOCK:  -11.20 KCAL/MOL
REMARK 924 INTRA-LIGAND FREE ENERGY PREDICTED BY IDOCK:   -4.16 KCAL/MOL
REMARK 927      BINDING AFFINITY PREDICTED BY RF-SCORE:    0.00 PKD
ROOT
HETATM    1  C   UNL     1      -7.584   4.685  65.513  1.00  0.00    -0.082 C  
HETATM    2  C   UNL     1      -8.902   5.439  65.452  1.00  0.00    -0.144 C  
ENDROOT
BRANCH   2   3
HETATM    3  C   UNL     1      -9.873   4.934  66.515  1.00  0.00    -0.225 C  
BRANCH   3   4
HETATM    4  C   UNL     1     -10.928   5.987  66.846  1.00  0.00    -0.350 C  
BRANCH   4   5
HETATM    5  C   UNL     1     -10.280   7.350  67.075  1.00  0.00    -0.357 C  
BRANCH   5   6
HETATM    6  C   UNL     1     -10.156   7.651  68.564  1.00  0.00    -0.205 C  
BRANCH   6   7
HETATM    7  C   UNL     1      -8.727   7.420  69.045  1.00  0.00    -0.133 C  
BRANCH   7   8
HETATM    8  C   UNL     1      -8.702   6.422  70.194  1.00  0.00    -0.139 C  
BRANCH   8   9
HETATM    9  C   UNL     1     -10.070   5.775  70.386  1.00  0.00    -0.271 C  
BRANCH   9  10
HETATM   10  C   UNL     1     -10.400   5.671  71.869  1.00  0.00    -0.266 C  
BRANCH  10  11
HETATM   11  C   UNL     1     -11.149   6.902  72.354  1.00  0.00    -0.296 C  
BRANCH  11  12
HETATM   12  C   UNL     1     -12.517   6.981  71.699  1.00  0.00    -0.374 C  
BRANCH  12  13
HETATM   13  O   UNL     1     -12.666   8.280  71.139  1.00  0.00    -0.237 OA 
BRANCH  13  14
HETATM   14  C   UNL     1     -13.658   9.020  71.842  1.00  0.00    -0.431 C  
BRANCH  14  15
HETATM   15  C   UNL     1     -13.174  10.446  72.035  1.00  0.00    -0.392 C  
BRANCH  15  16
HETATM   16  O   UNL     1     -12.026  10.641  71.217  1.00  0.00    -0.331 OA 
BRANCH  16  17
HETATM   17  C   UNL     1     -12.264  11.628  70.218  1.00  0.00    -0.318 C  
BRANCH  17  18
HETATM   18  C   UNL     1     -11.527  11.220  68.953  1.00  0.00    -0.297 C  
BRANCH  18  19
HETATM   19  O   UNL     1     -10.536  12.197  68.662  1.00  0.00    -0.228 OA 
BRANCH  19  20
HETATM   20  C   UNL     1      -9.255  11.598  68.453  1.00  0.00    -0.182 C  
BRANCH  20  21
HETATM   21  C   UNL     1      -8.363  12.600  67.730  1.00  0.00    -0.172 C  
BRANCH  21  22
HETATM   22  O   UNL     1      -7.368  11.880  66.995  1.00  0.00    -0.143 OA 
BRANCH  22  23
HETATM   23  C   UNL     1      -7.570  10.475  67.083  1.00  0.00    -0.097 C  
BRANCH  23  24
HETATM   24  C   UNL     1      -7.301   9.852  65.721  1.00  0.00    -0.111 C  
BRANCH  24  25
HETATM   25  O   UNL     1      -7.875  10.684  64.716  1.00  0.00    -0.071 OA 
BRANCH  25  26
HETATM   26  C   UNL     1      -8.742   9.943  63.867  1.00  0.00    -0.214 C  
BRANCH  26  27
HETATM   27  C   UNL     1      -9.333  10.885  62.828  1.00  0.00    -0.342 C  
BRANCH  27  28
HETATM   28  O   UNL     1     -10.704  11.115  63.135  1.00  0.00    -0.252 OA 
BRANCH  28  29
HETATM   29  C   UNL     1     -10.912  12.449  63.589  1.00  0.00    -0.470 C  
BRANCH  29  30
HETATM   30  C   UNL     1     -11.979  12.440  64.672  1.00  0.00    -0.394 C  
BRANCH  30  31
HETATM   31  O   UNL     1     -11.984  13.705  65.326  1.00  0.00    -0.342 OA 
BRANCH  31  32
HETATM   32  C   UNL     1     -10.850  14.484  64.956  1.00  0.00    -0.412 C  
BRANCH  32  33
HETATM   33  C   UNL     1     -11.265  15.945  64.853  1.00  0.00    -0.337 C  
BRANCH  33  34
HETATM   34  O   UNL     1     -10.148  16.773  65.164  1.00  0.00    -0.534 OA 
BRANCH  34  35
HETATM   35  C   UNL     1      -9.344  16.199  66.191  1.00  0.00    -0.336 C  
BRANCH  35  36
HETATM   36  C   UNL     1      -9.225  17.193  67.338  1.00  0.00    -0.232 C  
BRANCH  36  37
HETATM   37  O   UNL     1     -10.367  17.087  68.189  1.00  0.00    -0.310 OA 
BRANCH  37  38
HETATM   38  C   UNL     1     -10.361  15.840  68.897  1.00  0.00    -0.224 C  
BRANCH  38  39
HETATM   39  C   UNL     1     -11.801  15.487  69.256  1.00  0.00    -0.353 C  
HETATM   40  O   UNL     1     -12.338  14.592  68.283  1.00  0.00    -0.594 OA 
HETATM   41  H   UNL     1     -13.234  14.372  68.506  1.00  0.00     0.000 HD 
ENDBRANCH  38  39
ENDBRANCH  37  38
ENDBRANCH  36  37
ENDBRANCH  35  36
ENDBRANCH  34  35
ENDBRANCH  33  34
ENDBRANCH  32  33
ENDBRANCH  31  32
ENDBRANCH  30  31
ENDBRANCH  29  30
ENDBRANCH  28  29
ENDBRANCH  27  28
ENDBRANCH  26  27
ENDBRANCH  25  26
ENDBRANCH  24  25
ENDBRANCH  23  24
ENDBRANCH  22  23
ENDBRANCH  21  22
ENDBRANCH  20  21
ENDBRANCH  19  20
ENDBRANCH  18  19
ENDBRANCH  17  18
ENDBRANCH  16  17
ENDBRANCH  15  16
ENDBRANCH  14  15
ENDBRANCH  13  14
ENDBRANCH  12  13
ENDBRANCH  11  12
ENDBRANCH  10  11
ENDBRANCH   9  10
ENDBRANCH   8   9
ENDBRANCH   7   8
ENDBRANCH   6   7
ENDBRANCH   5   6
ENDBRANCH   4   5
ENDBRANCH   3   4
ENDBRANCH   2   3
TORSDOF 37
ENDMDL
MODEL       40
REMARK 921   NORMALIZED FREE ENERGY PREDICTED BY IDOCK:   -3.71 KCAL/MOL
REMARK 922        TOTAL FREE ENERGY PREDICTED BY IDOCK:  -15.35 KCAL/MOL
REMARK 923 INTER-LIGAND FREE ENERGY PREDICTED BY IDOCK:  -12.32 KCAL/MOL
REMARK 924 INTRA-LIGAND FREE ENERGY PREDICTED BY IDOCK:   -3.03 KCAL/MOL
REMARK 927      BINDING AFFINITY PREDICTED BY RF-SCORE:    0.00 PKD
ROOT
HETATM    1  C   UNL     1      -7.062  18.895  68.727  1.00  0.00    -0.342 C  
HETATM    2  C   UNL     1      -6.999  20.106  67.812  1.00  0.00    -0.313 C  
ENDROOT
BRANCH   2   3
HETATM    3  C   UNL     1      -8.026  19.999  66.688  1.00  0.00    -0.346 C  
BRANCH   3   4
HETATM    4  C   UNL     1      -9.416  20.408  67.170  1.00  0.00    -0.567 C  
BRANCH   4   5
HETATM    5  C   UNL     1     -10.436  19.310  66.875  1.00  0.00    -0.547 C  
BRANCH   5   6
HETATM    6  C   UNL     1     -10.400  18.231  67.950  1.00  0.00    -0.417 C  
BRANCH   6   7
HETATM    7  C   UNL     1      -9.999  16.887  67.353  1.00  0.00    -0.269 C  
BRANCH   7   8
HETATM    8  C   UNL     1     -10.249  16.871  65.850  1.00  0.00    -0.330 C  
BRANCH   8   9
HETATM    9  C   UNL     1     -10.590  15.464  65.369  1.00  0.00    -0.430 C  
BRANCH   9  10
HETATM   10  C   UNL     1     -10.701  14.515  66.554  1.00  0.00    -0.312 C  
BRANCH  10  11
HETATM   11  C   UNL     1     -12.101  13.931  66.665  1.00  0.00    -0.485 C  
BRANCH  11  12
HETATM   12  C   UNL     1     -12.778  13.920  65.305  1.00  0.00    -0.449 C  
BRANCH  12  13
HETATM   13  O   UNL     1     -13.022  12.567  64.943  1.00  0.00    -0.821 OA 
BRANCH  13  14
HETATM   14  C   UNL     1     -12.536  12.301  63.632  1.00  0.00    -0.541 C  
BRANCH  14  15
HETATM   15  C   UNL     1     -11.044  12.028  63.698  1.00  0.00    -0.452 C  
BRANCH  15  16
HETATM   16  O   UNL     1     -10.828  10.947  64.598  1.00  0.00    -0.263 OA 
BRANCH  16  17
HETATM   17  C   UNL     1      -9.674  10.196  64.238  1.00  0.00    -0.258 C  
BRANCH  17  18
HETATM   18  C   UNL     1      -8.611  10.405  65.305  1.00  0.00    -0.176 C  
BRANCH  18  19
HETATM   19  O   UNL     1      -7.643   9.368  65.199  1.00  0.00    -0.103 OA 
BRANCH  19  20
HETATM   20  C   UNL     1      -8.244   8.126  64.828  1.00  0.00    -0.133 C  
BRANCH  20  21
HETATM   21  C   UNL     1      -7.191   7.264  64.141  1.00  0.00    -0.076 C  
BRANCH  21  22
HETATM   22  O   UNL     1      -7.178   5.976  64.763  1.00  0.00    -0.058 OA 
BRANCH  22  23
HETATM   23  C   UNL     1      -8.428   5.676  65.371  1.00  0.00    -0.147 C  
BRANCH  23  24
HETATM   24  C   UNL     1      -8.185   4.818  66.603  1.00  0.00    -0.107 C  
BRANCH  24  25
HETATM   25  O   UNL     1      -9.389   4.755  67.362  1.00  0.00    -0.124 OA 
BRANCH  25  26
HETATM   26  C   UNL     1     -10.431   5.496  66.739  1.00  0.00    -0.296 C  
BRANCH  26  27
HETATM   27  C   UNL     1     -10.974   6.511  67.735  1.00  0.00    -0.316 C  
BRANCH  27  28
HETATM   28  O   UNL     1     -10.813   7.820  67.199  1.00  0.00    -0.313 OA 
BRANCH  28  29
HETATM   29  C   UNL     1     -10.218   8.695  68.153  1.00  0.00    -0.205 C  
BRANCH  29  30
HETATM   30  C   UNL     1     -11.029   9.979  68.216  1.00  0.00    -0.227 C  
BRANCH  30  31
HETATM   31  O   UNL     1     -10.959  10.506  69.538  1.00  0.00    -0.228 OA 
BRANCH  31  32
HETATM   32  C   UNL     1     -11.973  11.483  69.760  1.00  0.00    -0.346 C  
BRANCH  32  33
HETATM   33  C   UNL     1     -12.661  11.189  71.085  1.00  0.00    -0.409 C  
BRANCH  33  34
HETATM   34  O   UNL     1     -13.392   9.971  70.975  1.00  0.00    -0.385 OA 
BRANCH  34  35
HETATM   35  C   UNL     1     -12.994   9.034  71.972  1.00  0.00    -0.407 C  
BRANCH  35  36
HETATM   36  C   UNL     1     -12.871   7.657  71.334  1.00  0.00    -0.319 C  
BRANCH  36  37
HETATM   37  O   UNL     1     -12.160   6.782  72.210  1.00  0.00    -0.262 OA 
BRANCH  37  38
HETATM   38  C   UNL     1     -11.253   5.949  71.476  1.00  0.00    -0.225 C  
BRANCH  38  39
HETATM   39  C   UNL     1      -9.952   6.719  71.276  1.00  0.00    -0.176 C  
HETATM   40  O   UNL     1      -8.840   5.886  71.605  1.00  0.00    -0.138 OA 
HETATM   41  H   UNL     1      -8.030   6.366  71.480  1.00  0.00     0.000 HD 
ENDBRANCH  38  39
ENDBRANCH  37  38
ENDBRANCH  36  37
ENDBRANCH  35  36
ENDBRANCH  34  35
ENDBRANCH  33  34
ENDBRANCH  32  33
ENDBRANCH  31  32
ENDBRANCH  30  31
ENDBRANCH  29  30
ENDBRANCH  28  29
ENDBRANCH  27  28
ENDBRANCH  26  27
ENDBRANCH  25  26
ENDBRANCH  24  25
ENDBRANCH  23  24
ENDBRANCH  22  23
ENDBRANCH  21  22
ENDBRANCH  20  21
ENDBRANCH  19  20
ENDBRANCH  18  19
ENDBRANCH  17  18
ENDBRANCH  16  17
ENDBRANCH  15  16
ENDBRANCH  14  15
ENDBRANCH  13  14
ENDBRANCH  12  13
ENDBRANCH  11  12
ENDBRANCH  10  11
ENDBRANCH   9  10
ENDBRANCH   8   9
ENDBRANCH   7   8
ENDBRANCH   6   7
ENDBRANCH   5   6
ENDBRANCH   4   5
ENDBRANCH   3   4
ENDBRANCH   2   3
TORSDOF 37
ENDMDL
MODEL       41
REMARK 921   NORMALIZED FREE ENERGY PREDICTED BY IDOCK:   -3.71 KCAL/MOL
REMARK 922        TOTAL FREE ENERGY PREDICTED BY IDOCK:  -15.34 KCAL/MOL
REMARK 923 INTER-LIGAND FREE ENERGY PREDICTED BY IDOCK:  -11.91 KCAL/MOL
REMARK 924 INTRA-LIGAND FREE ENERGY PREDICTED BY IDOCK:   -3.43 KCAL/MOL
REMARK 927      BINDING AFFINITY PREDICTED BY RF-SCORE:    0.00 PKD
ROOT
HETATM    1  C   UNL     1      -8.282   4.703  73.623  1.00  0.00    -0.106 C  
HETATM    2  C   UNL     1      -7.432   5.960  73.555  1.00  0.00    -0.093 C  
ENDROOT
BRANCH   2   3
HETATM    3  C   UNL     1      -7.928   6.899  72.459  1.00  0.00    -0.099 C  
BRANCH   3   4
HETATM    4  C   UNL     1      -8.619   8.125  73.052  1.00  0.00    -0.284 C  
BRANCH   4   5
HETATM    5  C   UNL     1      -9.920   8.425  72.311  1.00  0.00    -0.383 C  
BRANCH   5   6
HETATM    6  C   UNL     1     -11.088   7.670  72.933  1.00  0.00    -0.448 C  
BRANCH   6   7
HETATM    7  C   UNL     1     -12.035   7.156  71.853  1.00  0.00    -0.343 C  
BRANCH   7   8
HETATM    8  C   UNL     1     -11.320   6.172  70.937  1.00  0.00    -0.355 C  
BRANCH   8   9
HETATM    9  C   UNL     1     -11.556   6.522  69.471  1.00  0.00    -0.298 C  
BRANCH   9  10
HETATM   10  C   UNL     1     -10.643   5.692  68.578  1.00  0.00    -0.259 C  
BRANCH  10  11
HETATM   11  C   UNL     1     -10.893   5.988  67.107  1.00  0.00    -0.414 C  
BRANCH  11  12
HETATM   12  C   UNL     1      -9.956   5.168  66.236  1.00  0.00    -0.210 C  
BRANCH  12  13
HETATM   13  O   UNL     1      -8.830   4.800  67.023  1.00  0.00    -0.108 OA 
BRANCH  13  14
HETATM   14  C   UNL     1      -7.619   5.138  66.357  1.00  0.00    -0.088 C  
BRANCH  14  15
HETATM   15  C   UNL     1      -7.247   6.571  66.692  1.00  0.00    -0.073 C  
BRANCH  15  16
HETATM   16  O   UNL     1      -7.288   6.723  68.106  1.00  0.00    -0.091 OA 
BRANCH  16  17
HETATM   17  C   UNL     1      -7.746   8.019  68.475  1.00  0.00    -0.106 C  
BRANCH  17  18
HETATM   18  C   UNL     1      -8.380   8.671  67.257  1.00  0.00    -0.108 C  
BRANCH  18  19
HETATM   19  O   UNL     1      -9.192   9.757  67.686  1.00  0.00    -0.131 OA 
BRANCH  19  20
HETATM   20  C   UNL     1     -10.582   9.449  67.572  1.00  0.00    -0.267 C  
BRANCH  20  21
HETATM   21  C   UNL     1     -11.378  10.516  68.314  1.00  0.00    -0.264 C  
BRANCH  21  22
HETATM   22  O   UNL     1     -11.644  10.049  69.640  1.00  0.00    -0.196 OA 
BRANCH  22  23
HETATM   23  C   UNL     1     -11.816  11.130  70.548  1.00  0.00    -0.351 C  
BRANCH  23  24
HETATM   24  C   UNL     1     -12.892  10.761  71.558  1.00  0.00    -0.462 C  
BRANCH  24  25
HETATM   25  O   UNL     1     -13.387  11.955  72.158  1.00  0.00    -0.503 OA 
BRANCH  25  26
HETATM   26  C   UNL     1     -13.088  13.094  71.361  1.00  0.00    -0.266 C  
BRANCH  26  27
HETATM   27  C   UNL     1     -13.558  14.342  72.095  1.00  0.00    -0.435 C  
BRANCH  27  28
HETATM   28  O   UNL     1     -13.270  15.487  71.299  1.00  0.00    -0.480 OA 
BRANCH  28  29
HETATM   29  C   UNL     1     -11.982  16.012  71.601  1.00  0.00    -0.499 C  
BRANCH  29  30
HETATM   30  C   UNL     1     -11.090  15.865  70.379  1.00  0.00    -0.370 C  
BRANCH  30  31
HETATM   31  O   UNL     1     -11.905  15.817  69.213  1.00  0.00    -0.365 OA 
BRANCH  31  32
HETATM   32  C   UNL     1     -11.689  14.615  68.479  1.00  0.00    -0.316 C  
BRANCH  32  33
HETATM   33  C   UNL     1     -10.192  14.363  68.372  1.00  0.00    -0.243 C  
BRANCH  33  34
HETATM   34  O   UNL     1      -9.906  13.766  67.110  1.00  0.00    -0.232 OA 
BRANCH  34  35
HETATM   35  C   UNL     1      -9.557  14.747  66.137  1.00  0.00    -0.309 C  
BRANCH  35  36
HETATM   36  C   UNL     1     -10.486  14.607  64.939  1.00  0.00    -0.387 C  
BRANCH  36  37
HETATM   37  O   UNL     1     -10.939  13.256  64.837  1.00  0.00    -0.302 OA 
BRANCH  37  38
HETATM   38  C   UNL     1     -12.353  13.207  64.610  1.00  0.00    -0.405 C  
BRANCH  38  39
HETATM   39  C   UNL     1     -12.658  11.985  63.750  1.00  0.00    -0.454 C  
HETATM   40  O   UNL     1     -11.443  11.428  63.251  1.00  0.00    -0.812 OA 
HETATM   41  H   UNL     1     -11.633  10.667  62.715  1.00  0.00     0.000 HD 
ENDBRANCH  38  39
ENDBRANCH  37  38
ENDBRANCH  36  37
ENDBRANCH  35  36
ENDBRANCH  34  35
ENDBRANCH  33  34
ENDBRANCH  32  33
ENDBRANCH  31  32
ENDBRANCH  30  31
ENDBRANCH  29  30
ENDBRANCH  28  29
ENDBRANCH  27  28
ENDBRANCH  26  27
ENDBRANCH  25  26
ENDBRANCH  24  25
ENDBRANCH  23  24
ENDBRANCH  22  23
ENDBRANCH  21  22
ENDBRANCH  20  21
ENDBRANCH  19  20
ENDBRANCH  18  19
ENDBRANCH  17  18
ENDBRANCH  16  17
ENDBRANCH  15  16
ENDBRANCH  14  15
ENDBRANCH  13  14
ENDBRANCH  12  13
ENDBRANCH  11  12
ENDBRANCH  10  11
ENDBRANCH   9  10
ENDBRANCH   8   9
ENDBRANCH   7   8
ENDBRANCH   6   7
ENDBRANCH   5   6
ENDBRANCH   4   5
ENDBRANCH   3   4
ENDBRANCH   2   3
TORSDOF 37
ENDMDL
MODEL       42
REMARK 921   NORMALIZED FREE ENERGY PREDICTED BY IDOCK:   -3.71 KCAL/MOL
REMARK 922        TOTAL FREE ENERGY PREDICTED BY IDOCK:  -15.34 KCAL/MOL
REMARK 923 INTER-LIGAND FREE ENERGY PREDICTED BY IDOCK:  -12.45 KCAL/MOL
REMARK 924 INTRA-LIGAND FREE ENERGY PREDICTED BY IDOCK:   -2.90 KCAL/MOL
REMARK 927      BINDING AFFINITY PREDICTED BY RF-SCORE:    0.00 PKD
ROOT
HETATM    1  C   UNL     1      -6.915  20.029  68.485  1.00  0.00    -0.324 C  
HETATM    2  C   UNL     1      -7.337  20.635  67.157  1.00  0.00    -0.389 C  
ENDROOT
BRANCH   2   3
HETATM    3  C   UNL     1      -8.464  19.828  66.519  1.00  0.00    -0.380 C  
BRANCH   3   4
HETATM    4  C   UNL     1      -9.831  20.319  66.990  1.00  0.00    -0.607 C  
BRANCH   4   5
HETATM    5  C   UNL     1     -10.813  19.156  67.105  1.00  0.00    -0.507 C  
BRANCH   5   6
HETATM    6  C   UNL     1     -10.370  18.172  68.182  1.00  0.00    -0.393 C  
BRANCH   6   7
HETATM    7  C   UNL     1     -10.471  16.737  67.676  1.00  0.00    -0.328 C  
BRANCH   7   8
HETATM    8  C   UNL     1     -10.351  16.692  66.159  1.00  0.00    -0.340 C  
BRANCH   8   9
HETATM    9  C   UNL     1     -10.576  15.278  65.635  1.00  0.00    -0.377 C  
BRANCH   9  10
HETATM   10  C   UNL     1     -10.839  14.323  66.792  1.00  0.00    -0.298 C  
BRANCH  10  11
HETATM   11  C   UNL     1     -12.179  13.622  66.635  1.00  0.00    -0.437 C  
BRANCH  11  12
HETATM   12  C   UNL     1     -12.793  13.952  65.285  1.00  0.00    -0.398 C  
BRANCH  12  13
HETATM   13  O   UNL     1     -12.952  12.738  64.563  1.00  0.00    -0.730 OA 
BRANCH  13  14
HETATM   14  C   UNL     1     -12.214  12.776  63.346  1.00  0.00    -0.504 C  
BRANCH  14  15
HETATM   15  C   UNL     1     -10.888  12.062  63.543  1.00  0.00    -0.444 C  
BRANCH  15  16
HETATM   16  O   UNL     1     -11.098  10.971  64.431  1.00  0.00    -0.229 OA 
BRANCH  16  17
HETATM   17  C   UNL     1      -9.863  10.433  64.891  1.00  0.00    -0.334 C  
BRANCH  17  18
HETATM   18  C   UNL     1      -9.781  10.632  66.396  1.00  0.00    -0.196 C  
BRANCH  18  19
HETATM   19  O   UNL     1      -9.282   9.441  66.991  1.00  0.00    -0.138 OA 
BRANCH  19  20
HETATM   20  C   UNL     1     -10.175   8.343  66.794  1.00  0.00    -0.306 C  
BRANCH  20  21
HETATM   21  C   UNL     1      -9.353   7.066  66.668  1.00  0.00    -0.165 C  
BRANCH  21  22
HETATM   22  O   UNL     1      -9.947   6.056  67.489  1.00  0.00    -0.120 OA 
BRANCH  22  23
HETATM   23  C   UNL     1      -9.843   6.379  68.870  1.00  0.00    -0.137 C  
BRANCH  23  24
HETATM   24  C   UNL     1      -9.076   5.273  69.579  1.00  0.00    -0.112 C  
BRANCH  24  25
HETATM   25  O   UNL     1     -10.010   4.363  70.154  1.00  0.00    -0.221 OA 
BRANCH  25  26
HETATM   26  C   UNL     1      -9.374   3.477  71.066  1.00  0.00    -0.143 C  
BRANCH  26  27
HETATM   27  C   UNL     1      -8.013   4.048  71.436  1.00  0.00    -0.072 C  
BRANCH  27  28
HETATM   28  O   UNL     1      -7.780   3.836  72.824  1.00  0.00    -0.066 OA 
BRANCH  28  29
HETATM   29  C   UNL     1      -8.682   4.599  73.619  1.00  0.00    -0.106 C  
BRANCH  29  30
HETATM   30  C   UNL     1      -8.467   6.076  73.328  1.00  0.00    -0.117 C  
BRANCH  30  31
HETATM   31  O   UNL     1      -9.277   6.845  74.211  1.00  0.00    -0.194 OA 
BRANCH  31  32
HETATM   32  C   UNL     1     -10.198   7.661  73.491  1.00  0.00    -0.272 C  
BRANCH  32  33
HETATM   33  C   UNL     1     -11.069   6.770  72.617  1.00  0.00    -0.265 C  
BRANCH  33  34
HETATM   34  O   UNL     1     -11.658   7.557  71.585  1.00  0.00    -0.254 OA 
BRANCH  34  35
HETATM   35  C   UNL     1     -13.039   7.799  71.839  1.00  0.00    -0.271 C  
BRANCH  35  36
HETATM   36  C   UNL     1     -13.366   9.238  71.464  1.00  0.00    -0.369 C  
BRANCH  36  37
HETATM   37  O   UNL     1     -12.174  10.025  71.495  1.00  0.00    -0.373 OA 
BRANCH  37  38
HETATM   38  C   UNL     1     -12.382  11.292  70.857  1.00  0.00    -0.388 C  
BRANCH  38  39
HETATM   39  C   UNL     1     -11.624  11.293  69.535  1.00  0.00    -0.328 C  
HETATM   40  O   UNL     1     -12.389  10.620  68.536  1.00  0.00    -0.814 OA 
HETATM   41  H   UNL     1     -11.916  10.621  67.712  1.00  0.00     0.000 HD 
ENDBRANCH  38  39
ENDBRANCH  37  38
ENDBRANCH  36  37
ENDBRANCH  35  36
ENDBRANCH  34  35
ENDBRANCH  33  34
ENDBRANCH  32  33
ENDBRANCH  31  32
ENDBRANCH  30  31
ENDBRANCH  29  30
ENDBRANCH  28  29
ENDBRANCH  27  28
ENDBRANCH  26  27
ENDBRANCH  25  26
ENDBRANCH  24  25
ENDBRANCH  23  24
ENDBRANCH  22  23
ENDBRANCH  21  22
ENDBRANCH  20  21
ENDBRANCH  19  20
ENDBRANCH  18  19
ENDBRANCH  17  18
ENDBRANCH  16  17
ENDBRANCH  15  16
ENDBRANCH  14  15
ENDBRANCH  13  14
ENDBRANCH  12  13
ENDBRANCH  11  12
ENDBRANCH  10  11
ENDBRANCH   9  10
ENDBRANCH   8   9
ENDBRANCH   7   8
ENDBRANCH   6   7
ENDBRANCH   5   6
ENDBRANCH   4   5
ENDBRANCH   3   4
ENDBRANCH   2   3
TORSDOF 37
ENDMDL
MODEL       43
REMARK 921   NORMALIZED FREE ENERGY PREDICTED BY IDOCK:   -3.70 KCAL/MOL
REMARK 922        TOTAL FREE ENERGY PREDICTED BY IDOCK:  -15.31 KCAL/MOL
REMARK 923 INTER-LIGAND FREE ENERGY PREDICTED BY IDOCK:  -12.42 KCAL/MOL
REMARK 924 INTRA-LIGAND FREE ENERGY PREDICTED BY IDOCK:   -2.89 KCAL/MOL
REMARK 927      BINDING AFFINITY PREDICTED BY RF-SCORE:    0.00 PKD
ROOT
HETATM    1  C   UNL     1     -11.833  12.931  63.733  1.00  0.00    -0.571 C  
HETATM    2  C   UNL     1     -12.469  12.751  65.101  1.00  0.00    -0.565 C  
ENDROOT
BRANCH   2   3
HETATM    3  C   UNL     1     -11.687  13.504  66.173  1.00  0.00    -0.397 C  
BRANCH   3   4
HETATM    4  C   UNL     1     -11.874  12.864  67.547  1.00  0.00    -0.407 C  
BRANCH   4   5
HETATM    5  C   UNL     1     -11.244  13.727  68.637  1.00  0.00    -0.308 C  
BRANCH   5   6
HETATM    6  C   UNL     1     -11.448  15.209  68.344  1.00  0.00    -0.347 C  
BRANCH   6   7
HETATM    7  C   UNL     1     -12.033  15.923  69.558  1.00  0.00    -0.274 C  
BRANCH   7   8
HETATM    8  C   UNL     1     -11.175  15.675  70.792  1.00  0.00    -0.396 C  
BRANCH   8   9
HETATM    9  C   UNL     1     -12.044  15.412  72.017  1.00  0.00    -0.477 C  
BRANCH   9  10
HETATM   10  C   UNL     1     -13.400  14.863  71.592  1.00  0.00    -0.461 C  
BRANCH  10  11
HETATM   11  C   UNL     1     -13.678  13.516  72.242  1.00  0.00    -0.700 C  
BRANCH  11  12
HETATM   12  C   UNL     1     -13.001  12.403  71.461  1.00  0.00    -0.285 C  
BRANCH  12  13
HETATM   13  O   UNL     1     -13.310  11.167  72.095  1.00  0.00    -0.452 OA 
BRANCH  13  14
HETATM   14  C   UNL     1     -12.688  10.083  71.414  1.00  0.00    -0.415 C  
BRANCH  14  15
HETATM   15  C   UNL     1     -13.155   8.774  72.024  1.00  0.00    -0.392 C  
BRANCH  15  16
HETATM   16  O   UNL     1     -12.850   7.724  71.113  1.00  0.00    -0.262 OA 
BRANCH  16  17
HETATM   17  C   UNL     1     -12.039   6.728  71.726  1.00  0.00    -0.350 C  
BRANCH  17  18
HETATM   18  C   UNL     1     -10.718   6.653  70.976  1.00  0.00    -0.236 C  
BRANCH  18  19
HETATM   19  O   UNL     1     -10.787   5.596  70.028  1.00  0.00    -0.325 OA 
BRANCH  19  20
HETATM   20  C   UNL     1     -10.842   6.095  68.690  1.00  0.00    -0.332 C  
BRANCH  20  21
HETATM   21  C   UNL     1     -10.188   7.471  68.657  1.00  0.00    -0.197 C  
BRANCH  21  22
HETATM   22  O   UNL     1     -10.428   8.062  67.376  1.00  0.00    -0.258 OA 
BRANCH  22  23
HETATM   23  C   UNL     1     -10.616   9.468  67.477  1.00  0.00    -0.275 C  
BRANCH  23  24
HETATM   24  C   UNL     1      -9.616  10.166  66.568  1.00  0.00    -0.187 C  
BRANCH  24  25
HETATM   25  O   UNL     1      -8.442  10.462  67.319  1.00  0.00    -0.122 OA 
BRANCH  25  26
HETATM   26  C   UNL     1      -7.419  10.998  66.489  1.00  0.00    -0.145 C  
BRANCH  26  27
HETATM   27  C   UNL     1      -6.707  12.110  67.245  1.00  0.00    -0.144 C  
BRANCH  27  28
HETATM   28  O   UNL     1      -7.674  12.907  67.921  1.00  0.00    -0.115 OA 
BRANCH  28  29
HETATM   29  C   UNL     1      -8.066  14.022  67.127  1.00  0.00    -0.099 C  
BRANCH  29  30
HETATM   30  C   UNL     1      -7.085  15.160  67.356  1.00  0.00    -0.187 C  
BRANCH  30  31
HETATM   31  O   UNL     1      -7.453  16.262  66.532  1.00  0.00    -0.231 OA 
BRANCH  31  32
HETATM   32  C   UNL     1      -8.847  16.245  66.237  1.00  0.00    -0.331 C  
BRANCH  32  33
HETATM   33  C   UNL     1      -9.312  17.668  65.962  1.00  0.00    -0.044 C  
BRANCH  33  34
HETATM   34  O   UNL     1     -10.578  17.876  66.582  1.00  0.00    -0.324 OA 
BRANCH  34  35
HETATM   35  C   UNL     1     -10.577  19.053  67.386  1.00  0.00    -0.474 C  
BRANCH  35  36
HETATM   36  C   UNL     1      -9.667  18.830  68.586  1.00  0.00    -0.390 C  
BRANCH  36  37
HETATM   37  O   UNL     1      -8.362  19.335  68.302  1.00  0.00    -0.312 OA 
BRANCH  37  38
HETATM   38  C   UNL     1      -7.363  18.606  69.026  1.00  0.00    -0.234 C  
BRANCH  38  39
HETATM   39  C   UNL     1      -6.008  18.882  68.383  1.00  0.00    -0.215 C  
HETATM   40  O   UNL     1      -6.112  19.986  67.485  1.00  0.00    -0.186 OA 
HETATM   41  H   UNL     1      -5.269  20.157  67.085  1.00  0.00     0.000 HD 
ENDBRANCH  38  39
ENDBRANCH  37  38
ENDBRANCH  36  37
ENDBRANCH  35  36
ENDBRANCH  34  35
ENDBRANCH  33  34
ENDBRANCH  32  33
ENDBRANCH  31  32
ENDBRANCH  30  31
ENDBRANCH  29  30
ENDBRANCH  28  29
ENDBRANCH  27  28
ENDBRANCH  26  27
ENDBRANCH  25  26
ENDBRANCH  24  25
ENDBRANCH  23  24
ENDBRANCH  22  23
ENDBRANCH  21  22
ENDBRANCH  20  21
ENDBRANCH  19  20
ENDBRANCH  18  19
ENDBRANCH  17  18
ENDBRANCH  16  17
ENDBRANCH  15  16
ENDBRANCH  14  15
ENDBRANCH  13  14
ENDBRANCH  12  13
ENDBRANCH  11  12
ENDBRANCH  10  11
ENDBRANCH   9  10
ENDBRANCH   8   9
ENDBRANCH   7   8
ENDBRANCH   6   7
ENDBRANCH   5   6
ENDBRANCH   4   5
ENDBRANCH   3   4
ENDBRANCH   2   3
TORSDOF 37
ENDMDL
MODEL       44
REMARK 921   NORMALIZED FREE ENERGY PREDICTED BY IDOCK:   -3.69 KCAL/MOL
REMARK 922        TOTAL FREE ENERGY PREDICTED BY IDOCK:  -15.29 KCAL/MOL
REMARK 923 INTER-LIGAND FREE ENERGY PREDICTED BY IDOCK:  -11.82 KCAL/MOL
REMARK 924 INTRA-LIGAND FREE ENERGY PREDICTED BY IDOCK:   -3.47 KCAL/MOL
REMARK 927      BINDING AFFINITY PREDICTED BY RF-SCORE:    0.00 PKD
ROOT
HETATM    1  C   UNL     1      -9.108   8.666  71.113  1.00  0.00    -0.263 C  
HETATM    2  C   UNL     1      -8.603   8.288  72.495  1.00  0.00    -0.273 C  
ENDROOT
BRANCH   2   3
HETATM    3  C   UNL     1      -9.721   7.683  73.341  1.00  0.00    -0.363 C  
BRANCH   3   4
HETATM    4  C   UNL     1     -11.073   7.813  72.644  1.00  0.00    -0.433 C  
BRANCH   4   5
HETATM    5  C   UNL     1     -11.647   6.436  72.317  1.00  0.00    -0.341 C  
BRANCH   5   6
HETATM    6  C   UNL     1     -11.030   5.363  73.207  1.00  0.00    -0.358 C  
BRANCH   6   7
HETATM    7  C   UNL     1     -10.390   4.265  72.364  1.00  0.00    -0.230 C  
BRANCH   7   8
HETATM    8  C   UNL     1     -10.196   4.735  70.928  1.00  0.00    -0.247 C  
BRANCH   8   9
HETATM    9  C   UNL     1      -8.910   4.166  70.337  1.00  0.00    -0.137 C  
BRANCH   9  10
HETATM   10  C   UNL     1      -7.720   4.536  71.213  1.00  0.00    -0.077 C  
BRANCH  10  11
HETATM   11  C   UNL     1      -6.921   5.678  70.602  1.00  0.00    -0.057 C  
BRANCH  11  12
HETATM   12  C   UNL     1      -6.925   5.575  69.086  1.00  0.00    -0.063 C  
BRANCH  12  13
HETATM   13  O   UNL     1      -7.267   6.850  68.557  1.00  0.00    -0.080 OA 
BRANCH  13  14
HETATM   14  C   UNL     1      -7.278   6.817  67.134  1.00  0.00    -0.085 C  
BRANCH  14  15
HETATM   15  C   UNL     1      -7.913   5.519  66.669  1.00  0.00    -0.101 C  
BRANCH  15  16
HETATM   16  O   UNL     1      -9.155   5.829  66.047  1.00  0.00    -0.156 OA 
BRANCH  16  17
HETATM   17  C   UNL     1     -10.243   5.216  66.731  1.00  0.00    -0.253 C  
BRANCH  17  18
HETATM   18  C   UNL     1     -10.968   6.282  67.536  1.00  0.00    -0.350 C  
BRANCH  18  19
HETATM   19  O   UNL     1     -10.872   7.523  66.849  1.00  0.00    -0.345 OA 
BRANCH  19  20
HETATM   20  C   UNL     1     -10.452   8.574  67.721  1.00  0.00    -0.223 C  
BRANCH  20  21
HETATM   21  C   UNL     1     -10.064   9.781  66.875  1.00  0.00    -0.226 C  
BRANCH  21  22
HETATM   22  O   UNL     1      -9.304   9.327  65.751  1.00  0.00    -0.208 OA 
BRANCH  22  23
HETATM   23  C   UNL     1      -9.316  10.279  64.694  1.00  0.00    -0.266 C  
BRANCH  23  24
HETATM   24  C   UNL     1     -10.607  11.081  64.767  1.00  0.00    -0.280 C  
BRANCH  24  25
HETATM   25  O   UNL     1     -10.775  11.789  63.542  1.00  0.00    -0.382 OA 
BRANCH  25  26
HETATM   26  C   UNL     1     -12.140  12.125  63.323  1.00  0.00    -0.409 C  
BRANCH  26  27
HETATM   27  C   UNL     1     -12.732  12.644  64.625  1.00  0.00    -0.377 C  
BRANCH  27  28
HETATM   28  O   UNL     1     -12.750  14.067  64.593  1.00  0.00    -0.648 OA 
BRANCH  28  29
HETATM   29  C   UNL     1     -11.738  14.612  65.433  1.00  0.00    -0.330 C  
BRANCH  29  30
HETATM   30  C   UNL     1     -11.268  15.933  64.845  1.00  0.00    -0.337 C  
BRANCH  30  31
HETATM   31  O   UNL     1     -10.057  16.321  65.487  1.00  0.00    -0.477 OA 
BRANCH  31  32
HETATM   32  C   UNL     1      -9.906  15.668  66.745  1.00  0.00    -0.244 C  
BRANCH  32  33
HETATM   33  C   UNL     1     -10.250  16.649  67.856  1.00  0.00    -0.284 C  
BRANCH  33  34
HETATM   34  O   UNL     1     -11.452  16.231  68.495  1.00  0.00    -0.371 OA 
BRANCH  34  35
HETATM   35  C   UNL     1     -11.269  15.004  69.198  1.00  0.00    -0.281 C  
BRANCH  35  36
HETATM   36  C   UNL     1     -11.029  15.310  70.670  1.00  0.00    -0.284 C  
BRANCH  36  37
HETATM   37  O   UNL     1     -11.889  14.503  71.475  1.00  0.00    -0.333 OA 
BRANCH  37  38
HETATM   38  C   UNL     1     -12.948  15.289  72.037  1.00  0.00    -0.370 C  
BRANCH  38  39
HETATM   39  C   UNL     1     -14.205  14.428  72.096  1.00  0.00    -0.538 C  
HETATM   40  O   UNL     1     -13.923  13.204  72.773  1.00  0.00    -0.743 OA 
HETATM   41  H   UNL     1     -14.706  12.668  72.810  1.00  0.00     0.000 HD 
ENDBRANCH  38  39
ENDBRANCH  37  38
ENDBRANCH  36  37
ENDBRANCH  35  36
ENDBRANCH  34  35
ENDBRANCH  33  34
ENDBRANCH  32  33
ENDBRANCH  31  32
ENDBRANCH  30  31
ENDBRANCH  29  30
ENDBRANCH  28  29
ENDBRANCH  27  28
ENDBRANCH  26  27
ENDBRANCH  25  26
ENDBRANCH  24  25
ENDBRANCH  23  24
ENDBRANCH  22  23
ENDBRANCH  21  22
ENDBRANCH  20  21
ENDBRANCH  19  20
ENDBRANCH  18  19
ENDBRANCH  17  18
ENDBRANCH  16  17
ENDBRANCH  15  16
ENDBRANCH  14  15
ENDBRANCH  13  14
ENDBRANCH  12  13
ENDBRANCH  11  12
ENDBRANCH  10  11
ENDBRANCH   9  10
ENDBRANCH   8   9
ENDBRANCH   7   8
ENDBRANCH   6   7
ENDBRANCH   5   6
ENDBRANCH   4   5
ENDBRANCH   3   4
ENDBRANCH   2   3
TORSDOF 37
ENDMDL
MODEL       45
REMARK 921   NORMALIZED FREE ENERGY PREDICTED BY IDOCK:   -3.68 KCAL/MOL
REMARK 922        TOTAL FREE ENERGY PREDICTED BY IDOCK:  -15.25 KCAL/MOL
REMARK 923 INTER-LIGAND FREE ENERGY PREDICTED BY IDOCK:  -12.36 KCAL/MOL
REMARK 924 INTRA-LIGAND FREE ENERGY PREDICTED BY IDOCK:   -2.89 KCAL/MOL
REMARK 927      BINDING AFFINITY PREDICTED BY RF-SCORE:    0.00 PKD
ROOT
HETATM    1  C   UNL     1      -7.562  11.170  68.974  1.00  0.00    -0.119 C  
HETATM    2  C   UNL     1      -6.677  12.378  68.721  1.00  0.00    -0.092 C  
ENDROOT
BRANCH   2   3
HETATM    3  C   UNL     1      -7.138  13.146  67.486  1.00  0.00    -0.156 C  
BRANCH   3   4
HETATM    4  C   UNL     1      -8.368  13.999  67.792  1.00  0.00    -0.176 C  
BRANCH   4   5
HETATM    5  C   UNL     1      -7.986  15.471  67.925  1.00  0.00    -0.146 C  
BRANCH   5   6
HETATM    6  C   UNL     1      -9.171  16.300  68.405  1.00  0.00    -0.203 C  
BRANCH   6   7
HETATM    7  C   UNL     1     -10.031  15.500  69.378  1.00  0.00    -0.277 C  
BRANCH   7   8
HETATM    8  C   UNL     1     -11.294  16.272  69.738  1.00  0.00    -0.265 C  
BRANCH   8   9
HETATM    9  C   UNL     1     -11.636  16.100  71.214  1.00  0.00    -0.470 C  
BRANCH   9  10
HETATM   10  C   UNL     1     -13.001  15.443  71.365  1.00  0.00    -0.532 C  
BRANCH  10  11
HETATM   11  C   UNL     1     -12.916  13.939  71.151  1.00  0.00    -0.388 C  
BRANCH  11  12
HETATM   12  C   UNL     1     -13.648  13.205  72.262  1.00  0.00    -0.581 C  
BRANCH  12  13
HETATM   13  O   UNL     1     -13.410  11.812  72.103  1.00  0.00    -0.497 OA 
BRANCH  13  14
HETATM   14  C   UNL     1     -12.673  11.561  70.911  1.00  0.00    -0.278 C  
BRANCH  14  15
HETATM   15  C   UNL     1     -12.124  10.146  70.951  1.00  0.00    -0.356 C  
BRANCH  15  16
HETATM   16  O   UNL     1     -13.200   9.258  71.231  1.00  0.00    -0.326 OA 
BRANCH  16  17
HETATM   17  C   UNL     1     -12.729   8.027  71.768  1.00  0.00    -0.329 C  
BRANCH  17  18
HETATM   18  C   UNL     1     -11.470   8.302  72.573  1.00  0.00    -0.384 C  
BRANCH  18  19
HETATM   19  O   UNL     1     -11.047   7.095  73.193  1.00  0.00    -0.307 OA 
BRANCH  19  20
HETATM   20  C   UNL     1     -11.564   5.948  72.516  1.00  0.00    -0.277 C  
BRANCH  20  21
HETATM   21  C   UNL     1     -10.428   4.955  72.304  1.00  0.00    -0.204 C  
BRANCH  21  22
HETATM   22  O   UNL     1      -9.300   5.657  71.774  1.00  0.00    -0.145 OA 
BRANCH  22  23
HETATM   23  C   UNL     1      -8.698   4.944  70.700  1.00  0.00    -0.116 C  
BRANCH  23  24
HETATM   24  C   UNL     1      -9.789   4.268  69.884  1.00  0.00    -0.197 C  
BRANCH  24  25
HETATM   25  O   UNL     1     -10.415   5.245  69.058  1.00  0.00    -0.205 OA 
BRANCH  25  26
HETATM   26  C   UNL     1      -9.697   5.431  67.844  1.00  0.00    -0.136 C  
BRANCH  26  27
HETATM   27  C   UNL     1     -10.669   5.884  66.764  1.00  0.00    -0.299 C  
BRANCH  27  28
HETATM   28  O   UNL     1     -10.902   7.282  66.904  1.00  0.00    -0.355 OA 
BRANCH  28  29
HETATM   29  C   UNL     1      -9.710   8.026  66.672  1.00  0.00    -0.243 C  
BRANCH  29  30
HETATM   30  C   UNL     1     -10.082   9.395  66.124  1.00  0.00    -0.254 C  
BRANCH  30  31
HETATM   31  O   UNL     1      -8.894  10.076  65.734  1.00  0.00    -0.141 OA 
BRANCH  31  32
HETATM   32  C   UNL     1      -9.189  11.197  64.904  1.00  0.00    -0.155 C  
BRANCH  32  33
HETATM   33  C   UNL     1     -10.465  10.912  64.124  1.00  0.00    -0.327 C  
BRANCH  33  34
HETATM   34  O   UNL     1     -10.843  12.081  63.402  1.00  0.00    -0.407 OA 
BRANCH  34  35
HETATM   35  C   UNL     1     -12.228  12.373  63.573  1.00  0.00    -0.563 C  
BRANCH  35  36
HETATM   36  C   UNL     1     -12.490  12.675  65.042  1.00  0.00    -0.487 C  
BRANCH  36  37
HETATM   37  O   UNL     1     -12.976  14.011  65.179  1.00  0.00    -0.744 OA 
BRANCH  37  38
HETATM   38  C   UNL     1     -12.152  14.932  64.452  1.00  0.00    -0.401 C  
BRANCH  38  39
HETATM   39  C   UNL     1     -10.889  15.189  65.265  1.00  0.00    -0.400 C  
HETATM   40  O   UNL     1      -9.752  14.673  64.574  1.00  0.00    -0.421 OA 
HETATM   41  H   UNL     1      -8.966  14.834  65.081  1.00  0.00     0.000 HD 
ENDBRANCH  38  39
ENDBRANCH  37  38
ENDBRANCH  36  37
ENDBRANCH  35  36
ENDBRANCH  34  35
ENDBRANCH  33  34
ENDBRANCH  32  33
ENDBRANCH  31  32
ENDBRANCH  30  31
ENDBRANCH  29  30
ENDBRANCH  28  29
ENDBRANCH  27  28
ENDBRANCH  26  27
ENDBRANCH  25  26
ENDBRANCH  24  25
ENDBRANCH  23  24
ENDBRANCH  22  23
ENDBRANCH  21  22
ENDBRANCH  20  21
ENDBRANCH  19  20
ENDBRANCH  18  19
ENDBRANCH  17  18
ENDBRANCH  16  17
ENDBRANCH  15  16
ENDBRANCH  14  15
ENDBRANCH  13  14
ENDBRANCH  12  13
ENDBRANCH  11  12
ENDBRANCH  10  11
ENDBRANCH   9  10
ENDBRANCH   8   9
ENDBRANCH   7   8
ENDBRANCH   6   7
ENDBRANCH   5   6
ENDBRANCH   4   5
ENDBRANCH   3   4
ENDBRANCH   2   3
TORSDOF 37
ENDMDL
MODEL       46
REMARK 921   NORMALIZED FREE ENERGY PREDICTED BY IDOCK:   -3.67 KCAL/MOL
REMARK 922        TOTAL FREE ENERGY PREDICTED BY IDOCK:  -15.24 KCAL/MOL
REMARK 923 INTER-LIGAND FREE ENERGY PREDICTED BY IDOCK:  -11.68 KCAL/MOL
REMARK 924 INTRA-LIGAND FREE ENERGY PREDICTED BY IDOCK:   -3.56 KCAL/MOL
REMARK 927      BINDING AFFINITY PREDICTED BY RF-SCORE:    0.00 PKD
ROOT
HETATM    1  C   UNL     1     -12.366  16.073  73.659  1.00  0.00    -0.678 C  
HETATM    2  C   UNL     1     -13.369  15.211  72.913  1.00  0.00    -0.603 C  
ENDROOT
BRANCH   2   3
HETATM    3  C   UNL     1     -13.387  15.552  71.426  1.00  0.00    -0.592 C  
BRANCH   3   4
HETATM    4  C   UNL     1     -12.895  14.378  70.583  1.00  0.00    -0.390 C  
BRANCH   4   5
HETATM    5  C   UNL     1     -12.013  14.867  69.436  1.00  0.00    -0.336 C  
BRANCH   5   6
HETATM    6  C   UNL     1     -11.158  16.050  69.873  1.00  0.00    -0.352 C  
BRANCH   6   7
HETATM    7  C   UNL     1      -9.678  15.760  69.644  1.00  0.00    -0.248 C  
BRANCH   7   8
HETATM    8  C   UNL     1      -9.499  14.699  68.567  1.00  0.00    -0.216 C  
BRANCH   8   9
HETATM    9  C   UNL     1      -8.101  14.093  68.624  1.00  0.00    -0.126 C  
BRANCH   9  10
HETATM   10  C   UNL     1      -7.074  15.089  68.101  1.00  0.00    -0.126 C  
BRANCH  10  11
HETATM   11  C   UNL     1      -7.440  15.576  66.707  1.00  0.00     0.019 C  
BRANCH  11  12
HETATM   12  C   UNL     1      -7.143  17.059  66.570  1.00  0.00    -0.271 C  
BRANCH  12  13
HETATM   13  O   UNL     1      -8.157  17.641  65.761  1.00  0.00    -0.550 OA 
BRANCH  13  14
HETATM   14  C   UNL     1      -9.179  18.214  66.569  1.00  0.00    -0.281 C  
BRANCH  14  15
HETATM   15  C   UNL     1     -10.495  17.512  66.285  1.00  0.00    -0.283 C  
BRANCH  15  16
HETATM   16  O   UNL     1     -10.370  16.818  65.049  1.00  0.00    -0.631 OA 
BRANCH  16  17
HETATM   17  C   UNL     1     -10.918  15.507  65.134  1.00  0.00    -0.409 C  
BRANCH  17  18
HETATM   18  C   UNL     1     -12.268  15.503  64.435  1.00  0.00    -0.079 C  
BRANCH  18  19
HETATM   19  O   UNL     1     -12.575  14.173  64.035  1.00  0.00    -0.691 OA 
BRANCH  19  20
HETATM   20  C   UNL     1     -11.421  13.332  64.081  1.00  0.00    -0.396 C  
BRANCH  20  21
HETATM   21  C   UNL     1     -11.869  11.909  64.392  1.00  0.00    -0.251 C  
BRANCH  21  22
HETATM   22  O   UNL     1     -11.035  11.382  65.428  1.00  0.00    -0.262 OA 
BRANCH  22  23
HETATM   23  C   UNL     1     -11.145  12.144  66.625  1.00  0.00    -0.306 C  
BRANCH  23  24
HETATM   24  C   UNL     1     -11.002  11.212  67.818  1.00  0.00    -0.262 C  
BRANCH  24  25
HETATM   25  O   UNL     1     -12.274  11.073  68.445  1.00  0.00    -0.586 OA 
BRANCH  25  26
HETATM   26  C   UNL     1     -12.141  10.884  69.848  1.00  0.00    -0.354 C  
BRANCH  26  27
HETATM   27  C   UNL     1     -13.366  10.141  70.362  1.00  0.00     0.187 C  
BRANCH  27  28
HETATM   28  O   UNL     1     -13.163   9.798  71.728  1.00  0.00    -0.381 OA 
BRANCH  28  29
HETATM   29  C   UNL     1     -11.831   9.345  71.951  1.00  0.00    -0.332 C  
BRANCH  29  30
HETATM   30  C   UNL     1     -11.878   7.934  72.515  1.00  0.00    -0.335 C  
BRANCH  30  31
HETATM   31  O   UNL     1     -10.601   7.608  73.055  1.00  0.00    -0.314 OA 
BRANCH  31  32
HETATM   32  C   UNL     1      -9.571   8.388  72.453  1.00  0.00    -0.303 C  
BRANCH  32  33
HETATM   33  C   UNL     1      -8.302   7.552  72.369  1.00  0.00    -0.108 C  
BRANCH  33  34
HETATM   34  O   UNL     1      -7.275   8.320  71.747  1.00  0.00    -0.073 OA 
BRANCH  34  35
HETATM   35  C   UNL     1      -7.817   9.281  70.845  1.00  0.00    -0.113 C  
BRANCH  35  36
HETATM   36  C   UNL     1      -7.291   8.996  69.445  1.00  0.00    -0.075 C  
BRANCH  36  37
HETATM   37  O   UNL     1      -8.330   9.205  68.488  1.00  0.00    -0.120 OA 
BRANCH  37  38
HETATM   38  C   UNL     1      -8.899   7.957  68.071  1.00  0.00    -0.124 C  
BRANCH  38  39
HETATM   39  C   UNL     1      -8.670   7.803  66.572  1.00  0.00    -0.148 C  
HETATM   40  O   UNL     1      -9.111   8.977  65.890  1.00  0.00    -0.182 OA 
HETATM   41  H   UNL     1      -8.969   8.881  64.956  1.00  0.00     0.000 HD 
ENDBRANCH  38  39
ENDBRANCH  37  38
ENDBRANCH  36  37
ENDBRANCH  35  36
ENDBRANCH  34  35
ENDBRANCH  33  34
ENDBRANCH  32  33
ENDBRANCH  31  32
ENDBRANCH  30  31
ENDBRANCH  29  30
ENDBRANCH  28  29
ENDBRANCH  27  28
ENDBRANCH  26  27
ENDBRANCH  25  26
ENDBRANCH  24  25
ENDBRANCH  23  24
ENDBRANCH  22  23
ENDBRANCH  21  22
ENDBRANCH  20  21
ENDBRANCH  19  20
ENDBRANCH  18  19
ENDBRANCH  17  18
ENDBRANCH  16  17
ENDBRANCH  15  16
ENDBRANCH  14  15
ENDBRANCH  13  14
ENDBRANCH  12  13
ENDBRANCH  11  12
ENDBRANCH  10  11
ENDBRANCH   9  10
ENDBRANCH   8   9
ENDBRANCH   7   8
ENDBRANCH   6   7
ENDBRANCH   5   6
ENDBRANCH   4   5
ENDBRANCH   3   4
ENDBRANCH   2   3
TORSDOF 37
ENDMDL
MODEL       47
REMARK 921   NORMALIZED FREE ENERGY PREDICTED BY IDOCK:   -3.67 KCAL/MOL
REMARK 922        TOTAL FREE ENERGY PREDICTED BY IDOCK:  -15.22 KCAL/MOL
REMARK 923 INTER-LIGAND FREE ENERGY PREDICTED BY IDOCK:  -11.56 KCAL/MOL
REMARK 924 INTRA-LIGAND FREE ENERGY PREDICTED BY IDOCK:   -3.65 KCAL/MOL
REMARK 927      BINDING AFFINITY PREDICTED BY RF-SCORE:    0.00 PKD
ROOT
HETATM    1  C   UNL     1      -9.055  20.343  67.092  1.00  0.00    -0.489 C  
HETATM    2  C   UNL     1      -8.903  18.935  66.542  1.00  0.00    -0.324 C  
ENDROOT
BRANCH   2   3
HETATM    3  C   UNL     1     -10.219  18.168  66.627  1.00  0.00    -0.388 C  
BRANCH   3   4
HETATM    4  C   UNL     1     -10.478  17.669  68.047  1.00  0.00    -0.395 C  
BRANCH   4   5
HETATM    5  C   UNL     1      -9.294  16.851  68.557  1.00  0.00    -0.259 C  
BRANCH   5   6
HETATM    6  C   UNL     1      -9.758  15.762  69.517  1.00  0.00    -0.276 C  
BRANCH   6   7
HETATM    7  C   UNL     1     -11.156  16.067  70.044  1.00  0.00    -0.362 C  
BRANCH   7   8
HETATM    8  C   UNL     1     -12.096  14.897  69.782  1.00  0.00    -0.357 C  
BRANCH   8   9
HETATM    9  C   UNL     1     -11.333  13.696  69.233  1.00  0.00    -0.323 C  
BRANCH   9  10
HETATM   10  C   UNL     1     -12.025  13.157  67.988  1.00  0.00    -0.345 C  
BRANCH  10  11
HETATM   11  C   UNL     1     -11.967  14.162  66.847  1.00  0.00    -0.479 C  
BRANCH  11  12
HETATM   12  C   UNL     1     -10.581  14.175  66.225  1.00  0.00    -0.284 C  
BRANCH  12  13
HETATM   13  O   UNL     1     -10.730  14.291  64.815  1.00  0.00    -0.407 OA 
BRANCH  13  14
HETATM   14  C   UNL     1     -12.049  13.930  64.418  1.00  0.00    -0.443 C  
BRANCH  14  15
HETATM   15  C   UNL     1     -11.977  12.782  63.427  1.00  0.00    -0.535 C  
BRANCH  15  16
HETATM   16  O   UNL     1     -10.607  12.447  63.234  1.00  0.00    -0.410 OA 
BRANCH  16  17
HETATM   17  C   UNL     1     -10.372  11.066  63.491  1.00  0.00    -0.340 C  
BRANCH  17  18
HETATM   18  C   UNL     1      -9.694  10.937  64.846  1.00  0.00    -0.266 C  
BRANCH  18  19
HETATM   19  O   UNL     1     -10.257   9.831  65.539  1.00  0.00    -0.256 OA 
BRANCH  19  20
HETATM   20  C   UNL     1     -10.382  10.096  66.937  1.00  0.00    -0.236 C  
BRANCH  20  21
HETATM   21  C   UNL     1      -9.080  10.714  67.433  1.00  0.00    -0.139 C  
BRANCH  21  22
HETATM   22  O   UNL     1      -9.188  10.941  68.841  1.00  0.00    -0.184 OA 
BRANCH  22  23
HETATM   23  C   UNL     1      -8.552   9.908  69.586  1.00  0.00    -0.194 C  
BRANCH  23  24
HETATM   24  C   UNL     1      -9.498   9.435  70.679  1.00  0.00    -0.262 C  
BRANCH  24  25
HETATM   25  O   UNL     1     -10.715  10.168  70.581  1.00  0.00    -0.297 OA 
BRANCH  25  26
HETATM   26  C   UNL     1     -11.752   9.552  71.335  1.00  0.00    -0.393 C  
BRANCH  26  27
HETATM   27  C   UNL     1     -11.491   8.054  71.393  1.00  0.00    -0.258 C  
BRANCH  27  28
HETATM   28  O   UNL     1     -11.774   7.582  72.707  1.00  0.00    -0.279 OA 
BRANCH  28  29
HETATM   29  C   UNL     1     -10.583   7.469  73.479  1.00  0.00    -0.292 C  
BRANCH  29  30
HETATM   30  C   UNL     1     -10.452   6.038  73.975  1.00  0.00    -0.258 C  
BRANCH  30  31
HETATM   31  O   UNL     1      -9.533   5.340  73.140  1.00  0.00    -0.142 OA 
BRANCH  31  32
HETATM   32  C   UNL     1     -10.213   4.485  72.224  1.00  0.00    -0.192 C  
BRANCH  32  33
HETATM   33  C   UNL     1      -9.534   4.577  70.865  1.00  0.00    -0.166 C  
BRANCH  33  34
HETATM   34  O   UNL     1     -10.480   5.027  69.899  1.00  0.00    -0.280 OA 
BRANCH  34  35
HETATM   35  C   UNL     1      -9.853   5.308  68.649  1.00  0.00    -0.155 C  
BRANCH  35  36
HETATM   36  C   UNL     1     -10.672   6.359  67.912  1.00  0.00    -0.299 C  
BRANCH  36  37
HETATM   37  O   UNL     1     -10.562   6.153  66.503  1.00  0.00    -0.215 OA 
BRANCH  37  38
HETATM   38  C   UNL     1      -9.232   5.755  66.147  1.00  0.00    -0.156 C  
BRANCH  38  39
HETATM   39  C   UNL     1      -8.498   6.973  65.598  1.00  0.00    -0.138 C  
HETATM   40  O   UNL     1      -7.574   7.462  66.570  1.00  0.00    -0.089 OA 
HETATM   41  H   UNL     1      -7.117   8.221  66.228  1.00  0.00     0.000 HD 
ENDBRANCH  38  39
ENDBRANCH  37  38
ENDBRANCH  36  37
ENDBRANCH  35  36
ENDBRANCH  34  35
ENDBRANCH  33  34
ENDBRANCH  32  33
ENDBRANCH  31  32
ENDBRANCH  30  31
ENDBRANCH  29  30
ENDBRANCH  28  29
ENDBRANCH  27  28
ENDBRANCH  26  27
ENDBRANCH  25  26
ENDBRANCH  24  25
ENDBRANCH  23  24
ENDBRANCH  22  23
ENDBRANCH  21  22
ENDBRANCH  20  21
ENDBRANCH  19  20
ENDBRANCH  18  19
ENDBRANCH  17  18
ENDBRANCH  16  17
ENDBRANCH  15  16
ENDBRANCH  14  15
ENDBRANCH  13  14
ENDBRANCH  12  13
ENDBRANCH  11  12
ENDBRANCH  10  11
ENDBRANCH   9  10
ENDBRANCH   8   9
ENDBRANCH   7   8
ENDBRANCH   6   7
ENDBRANCH   5   6
ENDBRANCH   4   5
ENDBRANCH   3   4
ENDBRANCH   2   3
TORSDOF 37
ENDMDL
MODEL       48
REMARK 921   NORMALIZED FREE ENERGY PREDICTED BY IDOCK:   -3.66 KCAL/MOL
REMARK 922        TOTAL FREE ENERGY PREDICTED BY IDOCK:  -15.21 KCAL/MOL
REMARK 923 INTER-LIGAND FREE ENERGY PREDICTED BY IDOCK:  -12.23 KCAL/MOL
REMARK 924 INTRA-LIGAND FREE ENERGY PREDICTED BY IDOCK:   -2.98 KCAL/MOL
REMARK 927      BINDING AFFINITY PREDICTED BY RF-SCORE:    0.00 PKD
ROOT
HETATM    1  C   UNL     1     -10.127   5.721  66.758  1.00  0.00    -0.235 C  
HETATM    2  C   UNL     1      -9.083   4.966  67.563  1.00  0.00    -0.127 C  
ENDROOT
BRANCH   2   3
HETATM    3  C   UNL     1      -9.736   3.924  68.468  1.00  0.00    -0.114 C  
BRANCH   3   4
HETATM    4  C   UNL     1      -9.137   3.957  69.872  1.00  0.00    -0.190 C  
BRANCH   4   5
HETATM    5  C   UNL     1     -10.071   4.676  70.842  1.00  0.00    -0.257 C  
BRANCH   5   6
HETATM    6  C   UNL     1      -9.338   5.792  71.577  1.00  0.00    -0.163 C  
BRANCH   6   7
HETATM    7  C   UNL     1      -9.156   7.006  70.672  1.00  0.00    -0.158 C  
BRANCH   7   8
HETATM    8  C   UNL     1      -9.479   8.290  71.426  1.00  0.00    -0.227 C  
BRANCH   8   9
HETATM    9  C   UNL     1     -10.434   8.018  72.583  1.00  0.00    -0.408 C  
BRANCH   9  10
HETATM   10  C   UNL     1     -11.870   8.290  72.155  1.00  0.00    -0.431 C  
BRANCH  10  11
HETATM   11  C   UNL     1     -11.994   9.641  71.467  1.00  0.00    -0.485 C  
BRANCH  11  12
HETATM   12  C   UNL     1     -13.252  10.356  71.929  1.00  0.00    -0.429 C  
BRANCH  12  13
HETATM   13  O   UNL     1     -12.949  11.738  72.072  1.00  0.00    -0.408 OA 
BRANCH  13  14
HETATM   14  C   UNL     1     -12.417  12.264  70.861  1.00  0.00    -0.276 C  
BRANCH  14  15
HETATM   15  C   UNL     1     -12.332  13.776  70.967  1.00  0.00    -0.372 C  
BRANCH  15  16
HETATM   16  O   UNL     1     -11.818  14.280  69.739  1.00  0.00    -0.284 OA 
BRANCH  16  17
HETATM   17  C   UNL     1     -11.233  15.566  69.911  1.00  0.00    -0.316 C  
BRANCH  17  18
HETATM   18  C   UNL     1     -10.008  15.662  69.016  1.00  0.00    -0.233 C  
BRANCH  18  19
HETATM   19  O   UNL     1      -8.841  15.495  69.812  1.00  0.00    -0.233 OA 
BRANCH  19  20
HETATM   20  C   UNL     1      -7.699  16.097  69.200  1.00  0.00    -0.230 C  
BRANCH  20  21
HETATM   21  C   UNL     1      -7.723  15.782  67.709  1.00  0.00    -0.143 C  
BRANCH  21  22
HETATM   22  O   UNL     1      -7.214  16.912  66.994  1.00  0.00    -0.160 OA 
BRANCH  22  23
HETATM   23  C   UNL     1      -7.278  18.097  67.777  1.00  0.00    -0.213 C  
BRANCH  23  24
HETATM   24  C   UNL     1      -7.836  19.225  66.922  1.00  0.00    -0.257 C  
BRANCH  24  25
HETATM   25  O   UNL     1      -8.670  18.664  65.912  1.00  0.00    -0.481 OA 
BRANCH  25  26
HETATM   26  C   UNL     1     -10.037  18.682  66.304  1.00  0.00    -0.400 C  
BRANCH  26  27
HETATM   27  C   UNL     1     -10.644  17.314  66.027  1.00  0.00    -0.217 C  
BRANCH  27  28
HETATM   28  O   UNL     1     -11.117  17.278  64.685  1.00  0.00    -1.052 OA 
BRANCH  28  29
HETATM   29  C   UNL     1     -11.588  15.978  64.342  1.00  0.00    -0.212 C  
BRANCH  29  30
HETATM   30  C   UNL     1     -11.222  15.011  65.456  1.00  0.00    -0.344 C  
BRANCH  30  31
HETATM   31  O   UNL     1     -12.378  14.262  65.818  1.00  0.00    -0.426 OA 
BRANCH  31  32
HETATM   32  C   UNL     1     -12.417  13.010  65.138  1.00  0.00    -0.496 C  
BRANCH  32  33
HETATM   33  C   UNL     1     -11.009  12.436  65.078  1.00  0.00    -0.298 C  
BRANCH  33  34
HETATM   34  O   UNL     1     -11.025  11.234  64.312  1.00  0.00    -0.354 OA 
BRANCH  34  35
HETATM   35  C   UNL     1      -9.711  10.851  63.916  1.00  0.00    -0.303 C  
BRANCH  35  36
HETATM   36  C   UNL     1      -8.920  10.450  65.154  1.00  0.00    -0.191 C  
BRANCH  36  37
HETATM   37  O   UNL     1      -9.713   9.592  65.975  1.00  0.00    -0.223 OA 
BRANCH  37  38
HETATM   38  C   UNL     1      -9.197   9.543  67.311  1.00  0.00    -0.134 C  
BRANCH  38  39
HETATM   39  C   UNL     1     -10.147  10.315  68.220  1.00  0.00    -0.154 C  
HETATM   40  O   UNL     1     -11.483  10.209  67.730  1.00  0.00    -0.596 OA 
HETATM   41  H   UNL     1     -12.074  10.690  68.296  1.00  0.00     0.000 HD 
ENDBRANCH  38  39
ENDBRANCH  37  38
ENDBRANCH  36  37
ENDBRANCH  35  36
ENDBRANCH  34  35
ENDBRANCH  33  34
ENDBRANCH  32  33
ENDBRANCH  31  32
ENDBRANCH  30  31
ENDBRANCH  29  30
ENDBRANCH  28  29
ENDBRANCH  27  28
ENDBRANCH  26  27
ENDBRANCH  25  26
ENDBRANCH  24  25
ENDBRANCH  23  24
ENDBRANCH  22  23
ENDBRANCH  21  22
ENDBRANCH  20  21
ENDBRANCH  19  20
ENDBRANCH  18  19
ENDBRANCH  17  18
ENDBRANCH  16  17
ENDBRANCH  15  16
ENDBRANCH  14  15
ENDBRANCH  13  14
ENDBRANCH  12  13
ENDBRANCH  11  12
ENDBRANCH  10  11
ENDBRANCH   9  10
ENDBRANCH   8   9
ENDBRANCH   7   8
ENDBRANCH   6   7
ENDBRANCH   5   6
ENDBRANCH   4   5
ENDBRANCH   3   4
ENDBRANCH   2   3
TORSDOF 37
ENDMDL
MODEL       49
REMARK 921   NORMALIZED FREE ENERGY PREDICTED BY IDOCK:   -3.65 KCAL/MOL
REMARK 922        TOTAL FREE ENERGY PREDICTED BY IDOCK:  -15.16 KCAL/MOL
REMARK 923 INTER-LIGAND FREE ENERGY PREDICTED BY IDOCK:  -11.92 KCAL/MOL
REMARK 924 INTRA-LIGAND FREE ENERGY PREDICTED BY IDOCK:   -3.24 KCAL/MOL
REMARK 927      BINDING AFFINITY PREDICTED BY RF-SCORE:    0.00 PKD
ROOT
HETATM    1  C   UNL     1      -9.687  10.776  63.070  1.00  0.00    -0.374 C  
HETATM    2  C   UNL     1     -10.688  11.364  64.049  1.00  0.00    -0.450 C  
ENDROOT
BRANCH   2   3
HETATM    3  C   UNL     1     -11.930  11.874  63.324  1.00  0.00    -0.441 C  
BRANCH   3   4
HETATM    4  C   UNL     1     -12.230  13.325  63.693  1.00  0.00    -0.522 C  
BRANCH   4   5
HETATM    5  C   UNL     1     -11.088  13.923  64.511  1.00  0.00    -0.374 C  
BRANCH   5   6
HETATM    6  C   UNL     1     -11.287  15.420  64.711  1.00  0.00    -0.381 C  
BRANCH   6   7
HETATM    7  C   UNL     1     -10.301  15.963  65.740  1.00  0.00    -0.396 C  
BRANCH   7   8
HETATM    8  C   UNL     1      -9.404  14.849  66.264  1.00  0.00    -0.329 C  
BRANCH   8   9
HETATM    9  C   UNL     1      -8.681  15.282  67.535  1.00  0.00    -0.189 C  
BRANCH   9  10
HETATM   10  C   UNL     1      -7.231  14.817  67.501  1.00  0.00    -0.222 C  
BRANCH  10  11
HETATM   11  C   UNL     1      -7.058  13.496  68.236  1.00  0.00    -0.110 C  
BRANCH  11  12
HETATM   12  C   UNL     1      -6.372  12.479  67.341  1.00  0.00    -0.157 C  
BRANCH  12  13
HETATM   13  O   UNL     1      -6.788  11.181  67.746  1.00  0.00    -0.070 OA 
BRANCH  13  14
HETATM   14  C   UNL     1      -7.227  11.194  69.100  1.00  0.00    -0.123 C  
BRANCH  14  15
HETATM   15  C   UNL     1      -6.857   9.876  69.758  1.00  0.00    -0.084 C  
BRANCH  15  16
HETATM   16  O   UNL     1      -7.775   9.636  70.819  1.00  0.00    -0.283 OA 
BRANCH  16  17
HETATM   17  C   UNL     1      -7.282   8.646  71.715  1.00  0.00    -0.080 C  
BRANCH  17  18
HETATM   18  C   UNL     1      -7.923   7.314  71.362  1.00  0.00    -0.097 C  
BRANCH  18  19
HETATM   19  O   UNL     1      -8.675   6.855  72.478  1.00  0.00    -0.125 OA 
BRANCH  19  20
HETATM   20  C   UNL     1      -9.433   7.912  73.070  1.00  0.00    -0.271 C  
BRANCH  20  21
HETATM   21  C   UNL     1     -10.911   7.545  73.006  1.00  0.00    -0.392 C  
BRANCH  21  22
HETATM   22  O   UNL     1     -11.071   6.444  72.107  1.00  0.00    -0.238 OA 
BRANCH  22  23
HETATM   23  C   UNL     1     -11.703   6.847  70.897  1.00  0.00    -0.361 C  
BRANCH  23  24
HETATM   24  C   UNL     1     -10.964   6.225  69.723  1.00  0.00    -0.378 C  
BRANCH  24  25
HETATM   25  O   UNL     1     -11.019   7.124  68.619  1.00  0.00    -0.144 OA 
BRANCH  25  26
HETATM   26  C   UNL     1     -10.409   8.369  68.936  1.00  0.00    -0.215 C  
BRANCH  26  27
HETATM   27  C   UNL     1      -9.854   8.982  67.659  1.00  0.00    -0.173 C  
BRANCH  27  28
HETATM   28  O   UNL     1     -10.773   9.953  67.170  1.00  0.00    -0.253 OA 
BRANCH  28  29
HETATM   29  C   UNL     1     -11.387  10.663  68.241  1.00  0.00    -0.289 C  
BRANCH  29  30
HETATM   30  C   UNL     1     -11.415  12.144  67.899  1.00  0.00    -0.328 C  
BRANCH  30  31
HETATM   31  O   UNL     1     -11.133  12.896  69.075  1.00  0.00    -0.251 OA 
BRANCH  31  32
HETATM   32  C   UNL     1     -11.904  14.094  69.121  1.00  0.00    -0.341 C  
BRANCH  32  33
HETATM   33  C   UNL     1     -11.662  14.788  70.453  1.00  0.00    -0.295 C  
BRANCH  33  34
HETATM   34  O   UNL     1     -12.817  15.545  70.804  1.00  0.00    -0.458 OA 
BRANCH  34  35
HETATM   35  C   UNL     1     -13.825  14.720  71.382  1.00  0.00    -0.435 C  
BRANCH  35  36
HETATM   36  C   UNL     1     -13.174  13.769  72.377  1.00  0.00    -0.481 C  
BRANCH  36  37
HETATM   37  O   UNL     1     -13.748  12.468  72.246  1.00  0.00    -0.482 OA 
BRANCH  37  38
HETATM   38  C   UNL     1     -12.842  11.574  71.586  1.00  0.00    -0.370 C  
BRANCH  38  39
HETATM   39  C   UNL     1     -13.302  10.145  71.852  1.00  0.00    -0.402 C  
HETATM   40  O   UNL     1     -13.804   9.564  70.649  1.00  0.00    -0.554 OA 
HETATM   41  H   UNL     1     -14.090   8.674  70.815  1.00  0.00     0.000 HD 
ENDBRANCH  38  39
ENDBRANCH  37  38
ENDBRANCH  36  37
ENDBRANCH  35  36
ENDBRANCH  34  35
ENDBRANCH  33  34
ENDBRANCH  32  33
ENDBRANCH  31  32
ENDBRANCH  30  31
ENDBRANCH  29  30
ENDBRANCH  28  29
ENDBRANCH  27  28
ENDBRANCH  26  27
ENDBRANCH  25  26
ENDBRANCH  24  25
ENDBRANCH  23  24
ENDBRANCH  22  23
ENDBRANCH  21  22
ENDBRANCH  20  21
ENDBRANCH  19  20
ENDBRANCH  18  19
ENDBRANCH  17  18
ENDBRANCH  16  17
ENDBRANCH  15  16
ENDBRANCH  14  15
ENDBRANCH  13  14
ENDBRANCH  12  13
ENDBRANCH  11  12
ENDBRANCH  10  11
ENDBRANCH   9  10
ENDBRANCH   8   9
ENDBRANCH   7   8
ENDBRANCH   6   7
ENDBRANCH   5   6
ENDBRANCH   4   5
ENDBRANCH   3   4
ENDBRANCH   2   3
TORSDOF 37
ENDMDL
MODEL       50
REMARK 921   NORMALIZED FREE ENERGY PREDICTED BY IDOCK:   -3.65 KCAL/MOL
REMARK 922        TOTAL FREE ENERGY PREDICTED BY IDOCK:  -15.15 KCAL/MOL
REMARK 923 INTER-LIGAND FREE ENERGY PREDICTED BY IDOCK:  -11.66 KCAL/MOL
REMARK 924 INTRA-LIGAND FREE ENERGY PREDICTED BY IDOCK:   -3.50 KCAL/MOL
REMARK 927      BINDING AFFINITY PREDICTED BY RF-SCORE:    0.00 PKD
ROOT
HETATM    1  C   UNL     1      -9.932  20.268  66.930  1.00  0.00    -0.592 C  
HETATM    2  C   UNL     1      -9.144  19.037  66.516  1.00  0.00    -0.348 C  
ENDROOT
BRANCH   2   3
HETATM    3  C   UNL     1     -10.007  17.781  66.597  1.00  0.00    -0.338 C  
BRANCH   3   4
HETATM    4  C   UNL     1     -10.398  17.471  68.041  1.00  0.00    -0.368 C  
BRANCH   4   5
HETATM    5  C   UNL     1      -9.231  16.834  68.792  1.00  0.00    -0.260 C  
BRANCH   5   6
HETATM    6  C   UNL     1      -9.660  15.536  69.466  1.00  0.00    -0.278 C  
BRANCH   6   7
HETATM    7  C   UNL     1     -11.058  15.673  70.060  1.00  0.00    -0.332 C  
BRANCH   7   8
HETATM    8  C   UNL     1     -11.877  14.414  69.801  1.00  0.00    -0.375 C  
BRANCH   8   9
HETATM    9  C   UNL     1     -11.128  13.456  68.881  1.00  0.00    -0.307 C  
BRANCH   9  10
HETATM   10  C   UNL     1     -11.995  13.092  67.683  1.00  0.00    -0.353 C  
BRANCH  10  11
HETATM   11  C   UNL     1     -11.924  14.163  66.605  1.00  0.00    -0.470 C  
BRANCH  11  12
HETATM   12  C   UNL     1     -10.544  14.184  65.971  1.00  0.00    -0.297 C  
BRANCH  12  13
HETATM   13  O   UNL     1     -10.706  14.193  64.558  1.00  0.00    -0.403 OA 
BRANCH  13  14
HETATM   14  C   UNL     1     -11.976  13.662  64.195  1.00  0.00    -0.443 C  
BRANCH  14  15
HETATM   15  C   UNL     1     -11.791  12.264  63.632  1.00  0.00    -0.522 C  
BRANCH  15  16
HETATM   16  O   UNL     1     -10.462  12.156  63.135  1.00  0.00    -0.386 OA 
BRANCH  16  17
HETATM   17  C   UNL     1      -9.949  10.840  63.312  1.00  0.00    -0.315 C  
BRANCH  17  18
HETATM   18  C   UNL     1      -9.301  10.756  64.685  1.00  0.00    -0.233 C  
BRANCH  18  19
HETATM   19  O   UNL     1      -9.902   9.693  65.413  1.00  0.00    -0.315 OA 
BRANCH  19  20
HETATM   20  C   UNL     1     -10.204  10.081  66.755  1.00  0.00    -0.232 C  
BRANCH  20  21
HETATM   21  C   UNL     1      -8.897  10.387  67.477  1.00  0.00    -0.134 C  
BRANCH  21  22
HETATM   22  O   UNL     1      -9.186  10.655  68.853  1.00  0.00    -0.172 OA 
BRANCH  22  23
HETATM   23  C   UNL     1      -9.591   9.477  69.540  1.00  0.00    -0.188 C  
BRANCH  23  24
HETATM   24  C   UNL     1      -8.575   9.166  70.628  1.00  0.00    -0.226 C  
BRANCH  24  25
HETATM   25  O   UNL     1      -9.266   8.667  71.770  1.00  0.00    -0.223 OA 
BRANCH  25  26
HETATM   26  C   UNL     1      -8.358   8.173  72.747  1.00  0.00    -0.181 C  
BRANCH  26  27
HETATM   27  C   UNL     1      -8.185   6.675  72.541  1.00  0.00    -0.105 C  
BRANCH  27  28
HETATM   28  O   UNL     1      -6.850   6.415  72.117  1.00  0.00    -0.069 OA 
BRANCH  28  29
HETATM   29  C   UNL     1      -6.833   5.621  70.935  1.00  0.00    -0.057 C  
BRANCH  29  30
HETATM   30  C   UNL     1      -8.085   4.759  70.902  1.00  0.00    -0.083 C  
BRANCH  30  31
HETATM   31  O   UNL     1      -8.513   4.616  69.551  1.00  0.00    -0.077 OA 
BRANCH  31  32
HETATM   32  C   UNL     1      -9.932   4.507  69.467  1.00  0.00    -0.165 C  
BRANCH  32  33
HETATM   33  C   UNL     1     -10.543   5.894  69.597  1.00  0.00    -0.313 C  
BRANCH  33  34
HETATM   34  O   UNL     1     -11.343   5.946  70.775  1.00  0.00    -0.267 OA 
BRANCH  34  35
HETATM   35  C   UNL     1     -12.304   6.996  70.706  1.00  0.00    -0.258 C  
BRANCH  35  36
HETATM   36  C   UNL     1     -12.757   7.344  72.117  1.00  0.00    -0.113 C  
BRANCH  36  37
HETATM   37  O   UNL     1     -12.467   8.715  72.392  1.00  0.00    -0.382 OA 
BRANCH  37  38
HETATM   38  C   UNL     1     -13.510   9.566  71.900  1.00  0.00    -0.424 C  
BRANCH  38  39
HETATM   39  C   UNL     1     -12.888  10.894  71.482  1.00  0.00    -0.454 C  
HETATM   40  O   UNL     1     -13.422  11.952  72.276  1.00  0.00    -0.602 OA 
HETATM   41  H   UNL     1     -13.034  12.779  72.015  1.00  0.00     0.000 HD 
ENDBRANCH  38  39
ENDBRANCH  37  38
ENDBRANCH  36  37
ENDBRANCH  35  36
ENDBRANCH  34  35
ENDBRANCH  33  34
ENDBRANCH  32  33
ENDBRANCH  31  32
ENDBRANCH  30  31
ENDBRANCH  29  30
ENDBRANCH  28  29
ENDBRANCH  27  28
ENDBRANCH  26  27
ENDBRANCH  25  26
ENDBRANCH  24  25
ENDBRANCH  23  24
ENDBRANCH  22  23
ENDBRANCH  21  22
ENDBRANCH  20  21
ENDBRANCH  19  20
ENDBRANCH  18  19
ENDBRANCH  17  18
ENDBRANCH  16  17
ENDBRANCH  15  16
ENDBRANCH  14  15
ENDBRANCH  13  14
ENDBRANCH  12  13
ENDBRANCH  11  12
ENDBRANCH  10  11
ENDBRANCH   9  10
ENDBRANCH   8   9
ENDBRANCH   7   8
ENDBRANCH   6   7
ENDBRANCH   5   6
ENDBRANCH   4   5
ENDBRANCH   3   4
ENDBRANCH   2   3
TORSDOF 37
ENDMDL
MODEL       51
REMARK 921   NORMALIZED FREE ENERGY PREDICTED BY IDOCK:   -3.64 KCAL/MOL
REMARK 922        TOTAL FREE ENERGY PREDICTED BY IDOCK:  -15.13 KCAL/MOL
REMARK 923 INTER-LIGAND FREE ENERGY PREDICTED BY IDOCK:  -12.37 KCAL/MOL
REMARK 924 INTRA-LIGAND FREE ENERGY PREDICTED BY IDOCK:   -2.76 KCAL/MOL
REMARK 927      BINDING AFFINITY PREDICTED BY RF-SCORE:    0.00 PKD
ROOT
HETATM    1  C   UNL     1     -13.715  13.484  72.234  1.00  0.00    -0.700 C  
HETATM    2  C   UNL     1     -12.663  13.300  71.154  1.00  0.00    -0.404 C  
ENDROOT
BRANCH   2   3
HETATM    3  C   UNL     1     -12.452  11.821  70.840  1.00  0.00    -0.416 C  
BRANCH   3   4
HETATM    4  C   UNL     1     -13.133  10.932  71.880  1.00  0.00    -0.537 C  
BRANCH   4   5
HETATM    5  C   UNL     1     -13.345   9.524  71.332  1.00  0.00    -0.435 C  
BRANCH   5   6
HETATM    6  C   UNL     1     -12.019   8.782  71.208  1.00  0.00    -0.353 C  
BRANCH   6   7
HETATM    7  C   UNL     1     -12.253   7.287  71.014  1.00  0.00    -0.350 C  
BRANCH   7   8
HETATM    8  C   UNL     1     -11.664   6.497  72.176  1.00  0.00    -0.353 C  
BRANCH   8   9
HETATM    9  C   UNL     1     -10.835   7.399  73.085  1.00  0.00    -0.435 C  
BRANCH   9  10
HETATM   10  C   UNL     1     -10.220   6.585  74.216  1.00  0.00    -0.373 C  
BRANCH  10  11
HETATM   11  C   UNL     1      -8.724   6.836  74.325  1.00  0.00    -0.184 C  
BRANCH  11  12
HETATM   12  C   UNL     1      -8.004   6.276  73.110  1.00  0.00    -0.106 C  
BRANCH  12  13
HETATM   13  O   UNL     1      -8.398   4.918  72.949  1.00  0.00    -0.104 OA 
BRANCH  13  14
HETATM   14  C   UNL     1      -8.537   4.595  71.569  1.00  0.00    -0.116 C  
BRANCH  14  15
HETATM   15  C   UNL     1      -8.236   5.827  70.735  1.00  0.00    -0.123 C  
BRANCH  15  16
HETATM   16  O   UNL     1      -8.499   5.516  69.371  1.00  0.00    -0.103 OA 
BRANCH  16  17
HETATM   17  C   UNL     1      -9.715   4.788  69.233  1.00  0.00    -0.196 C  
BRANCH  17  18
HETATM   18  C   UNL     1     -10.247   5.001  67.825  1.00  0.00    -0.096 C  
BRANCH  18  19
HETATM   19  O   UNL     1      -9.696   6.204  67.302  1.00  0.00    -0.120 OA 
BRANCH  19  20
HETATM   20  C   UNL     1     -10.700   7.204  67.119  1.00  0.00    -0.352 C  
BRANCH  20  21
HETATM   21  C   UNL     1     -10.310   8.438  67.923  1.00  0.00    -0.221 C  
BRANCH  21  22
HETATM   22  O   UNL     1     -10.365   9.580  67.064  1.00  0.00    -0.238 OA 
BRANCH  22  23
HETATM   23  C   UNL     1      -9.733   9.326  65.816  1.00  0.00    -0.269 C  
BRANCH  23  24
HETATM   24  C   UNL     1      -9.513  10.647  65.095  1.00  0.00    -0.227 C  
BRANCH  24  25
HETATM   25  O   UNL     1     -10.144  10.584  63.820  1.00  0.00    -0.315 OA 
BRANCH  25  26
HETATM   26  C   UNL     1     -10.488  11.881  63.349  1.00  0.00    -0.441 C  
BRANCH  26  27
HETATM   27  C   UNL     1     -11.936  12.169  63.719  1.00  0.00    -0.513 C  
BRANCH  27  28
HETATM   28  O   UNL     1     -12.042  13.515  64.171  1.00  0.00    -0.420 OA 
BRANCH  28  29
HETATM   29  C   UNL     1     -12.811  13.596  65.366  1.00  0.00    -0.389 C  
BRANCH  29  30
HETATM   30  C   UNL     1     -11.990  13.040  66.519  1.00  0.00    -0.391 C  
BRANCH  30  31
HETATM   31  O   UNL     1     -11.700  14.094  67.432  1.00  0.00    -0.349 OA 
BRANCH  31  32
HETATM   32  C   UNL     1     -10.421  13.919  68.035  1.00  0.00    -0.243 C  
BRANCH  32  33
HETATM   33  C   UNL     1      -9.422  13.503  66.965  1.00  0.00    -0.251 C  
BRANCH  33  34
HETATM   34  O   UNL     1      -8.388  14.480  66.883  1.00  0.00    -0.194 OA 
BRANCH  34  35
HETATM   35  C   UNL     1      -8.797  15.720  67.454  1.00  0.00    -0.186 C  
BRANCH  35  36
HETATM   36  C   UNL     1      -9.157  16.684  66.332  1.00  0.00    -0.292 C  
BRANCH  36  37
HETATM   37  O   UNL     1     -10.371  17.364  66.652  1.00  0.00    -0.317 OA 
BRANCH  37  38
HETATM   38  C   UNL     1     -10.419  18.650  66.022  1.00  0.00    -0.414 C  
BRANCH  38  39
HETATM   39  C   UNL     1     -10.757  19.691  67.083  1.00  0.00    -0.464 C  
HETATM   40  O   UNL     1      -9.943  19.490  68.238  1.00  0.00    -0.379 OA 
HETATM   41  H   UNL     1     -10.154  20.138  68.898  1.00  0.00     0.000 HD 
ENDBRANCH  38  39
ENDBRANCH  37  38
ENDBRANCH  36  37
ENDBRANCH  35  36
ENDBRANCH  34  35
ENDBRANCH  33  34
ENDBRANCH  32  33
ENDBRANCH  31  32
ENDBRANCH  30  31
ENDBRANCH  29  30
ENDBRANCH  28  29
ENDBRANCH  27  28
ENDBRANCH  26  27
ENDBRANCH  25  26
ENDBRANCH  24  25
ENDBRANCH  23  24
ENDBRANCH  22  23
ENDBRANCH  21  22
ENDBRANCH  20  21
ENDBRANCH  19  20
ENDBRANCH  18  19
ENDBRANCH  17  18
ENDBRANCH  16  17
ENDBRANCH  15  16
ENDBRANCH  14  15
ENDBRANCH  13  14
ENDBRANCH  12  13
ENDBRANCH  11  12
ENDBRANCH  10  11
ENDBRANCH   9  10
ENDBRANCH   8   9
ENDBRANCH   7   8
ENDBRANCH   6   7
ENDBRANCH   5   6
ENDBRANCH   4   5
ENDBRANCH   3   4
ENDBRANCH   2   3
TORSDOF 37
ENDMDL
MODEL       52
REMARK 921   NORMALIZED FREE ENERGY PREDICTED BY IDOCK:   -3.64 KCAL/MOL
REMARK 922        TOTAL FREE ENERGY PREDICTED BY IDOCK:  -15.13 KCAL/MOL
REMARK 923 INTER-LIGAND FREE ENERGY PREDICTED BY IDOCK:  -11.38 KCAL/MOL
REMARK 924 INTRA-LIGAND FREE ENERGY PREDICTED BY IDOCK:   -3.75 KCAL/MOL
REMARK 927      BINDING AFFINITY PREDICTED BY RF-SCORE:    0.00 PKD
ROOT
HETATM    1  C   UNL     1     -10.934  19.367  67.200  1.00  0.00    -0.454 C  
HETATM    2  C   UNL     1      -9.834  19.831  66.261  1.00  0.00    -0.557 C  
ENDROOT
BRANCH   2   3
HETATM    3  C   UNL     1      -8.551  20.139  67.029  1.00  0.00    -0.408 C  
BRANCH   3   4
HETATM    4  C   UNL     1      -7.492  19.066  66.787  1.00  0.00    -0.231 C  
BRANCH   4   5
HETATM    5  C   UNL     1      -7.349  18.162  68.009  1.00  0.00    -0.235 C  
BRANCH   5   6
HETATM    6  C   UNL     1      -7.757  16.731  67.678  1.00  0.00    -0.183 C  
BRANCH   6   7
HETATM    7  C   UNL     1      -9.065  16.369  68.373  1.00  0.00    -0.214 C  
BRANCH   7   8
HETATM    8  C   UNL     1     -10.027  15.706  67.396  1.00  0.00    -0.232 C  
BRANCH   8   9
HETATM    9  C   UNL     1      -9.643  16.021  65.954  1.00  0.00    -0.370 C  
BRANCH   9  10
HETATM   10  C   UNL     1     -10.847  15.846  65.038  1.00  0.00    -0.444 C  
BRANCH  10  11
HETATM   11  C   UNL     1     -11.121  14.375  64.762  1.00  0.00    -0.402 C  
BRANCH  11  12
HETATM   12  C   UNL     1     -12.609  14.087  64.859  1.00  0.00    -0.342 C  
BRANCH  12  13
HETATM   13  O   UNL     1     -12.777  12.850  65.540  1.00  0.00    -0.568 OA 
BRANCH  13  14
HETATM   14  C   UNL     1     -11.514  12.279  65.863  1.00  0.00    -0.376 C  
BRANCH  14  15
HETATM   15  C   UNL     1     -11.555  11.743  67.283  1.00  0.00    -0.269 C  
BRANCH  15  16
HETATM   16  O   UNL     1     -12.009  12.786  68.139  1.00  0.00    -0.333 OA 
BRANCH  16  17
HETATM   17  C   UNL     1     -11.778  12.470  69.507  1.00  0.00    -0.309 C  
BRANCH  17  18
HETATM   18  C   UNL     1     -11.682  10.959  69.643  1.00  0.00    -0.331 C  
BRANCH  18  19
HETATM   19  O   UNL     1     -11.688  10.620  71.025  1.00  0.00    -0.325 OA 
BRANCH  19  20
HETATM   20  C   UNL     1     -12.929  10.963  71.644  1.00  0.00    -0.464 C  
BRANCH  20  21
HETATM   21  C   UNL     1     -13.602   9.683  72.125  1.00  0.00    -0.389 C  
BRANCH  21  22
HETATM   22  O   UNL     1     -12.607   8.663  72.251  1.00  0.00    -0.365 OA 
BRANCH  22  23
HETATM   23  C   UNL     1     -13.035   7.441  71.661  1.00  0.00    -0.366 C  
BRANCH  23  24
HETATM   24  C   UNL     1     -11.813   6.605  71.316  1.00  0.00    -0.350 C  
BRANCH  24  25
HETATM   25  O   UNL     1     -11.881   6.241  69.940  1.00  0.00    -0.340 OA 
BRANCH  25  26
HETATM   26  C   UNL     1     -10.603   5.865  69.441  1.00  0.00    -0.309 C  
BRANCH  26  27
HETATM   27  C   UNL     1      -9.534   6.628  70.209  1.00  0.00    -0.162 C  
BRANCH  27  28
HETATM   28  O   UNL     1      -8.270   6.410  69.589  1.00  0.00    -0.121 OA 
BRANCH  28  29
HETATM   29  C   UNL     1      -7.553   7.631  69.442  1.00  0.00    -0.095 C  
BRANCH  29  30
HETATM   30  C   UNL     1      -8.508   8.793  69.663  1.00  0.00    -0.129 C  
BRANCH  30  31
HETATM   31  O   UNL     1      -7.751   9.987  69.837  1.00  0.00    -0.150 OA 
BRANCH  31  32
HETATM   32  C   UNL     1      -8.088  10.961  68.852  1.00  0.00    -0.144 C  
BRANCH  32  33
HETATM   33  C   UNL     1      -6.819  11.402  68.138  1.00  0.00    -0.064 C  
BRANCH  33  34
HETATM   34  O   UNL     1      -7.036  11.364  66.730  1.00  0.00    -0.138 OA 
BRANCH  34  35
HETATM   35  C   UNL     1      -6.675  10.099  66.182  1.00  0.00    -0.106 C  
BRANCH  35  36
HETATM   36  C   UNL     1      -7.198  10.013  64.754  1.00  0.00    -0.136 C  
BRANCH  36  37
HETATM   37  O   UNL     1      -8.062   8.883  64.626  1.00  0.00    -0.133 OA 
BRANCH  37  38
HETATM   38  C   UNL     1      -8.352   8.312  65.909  1.00  0.00    -0.129 C  
BRANCH  38  39
HETATM   39  C   UNL     1      -9.772   8.705  66.298  1.00  0.00    -0.251 C  
HETATM   40  O   UNL     1     -10.588   7.539  66.399  1.00  0.00    -0.449 OA 
HETATM   41  H   UNL     1     -11.473   7.784  66.642  1.00  0.00     0.000 HD 
ENDBRANCH  38  39
ENDBRANCH  37  38
ENDBRANCH  36  37
ENDBRANCH  35  36
ENDBRANCH  34  35
ENDBRANCH  33  34
ENDBRANCH  32  33
ENDBRANCH  31  32
ENDBRANCH  30  31
ENDBRANCH  29  30
ENDBRANCH  28  29
ENDBRANCH  27  28
ENDBRANCH  26  27
ENDBRANCH  25  26
ENDBRANCH  24  25
ENDBRANCH  23  24
ENDBRANCH  22  23
ENDBRANCH  21  22
ENDBRANCH  20  21
ENDBRANCH  19  20
ENDBRANCH  18  19
ENDBRANCH  17  18
ENDBRANCH  16  17
ENDBRANCH  15  16
ENDBRANCH  14  15
ENDBRANCH  13  14
ENDBRANCH  12  13
ENDBRANCH  11  12
ENDBRANCH  10  11
ENDBRANCH   9  10
ENDBRANCH   8   9
ENDBRANCH   7   8
ENDBRANCH   6   7
ENDBRANCH   5   6
ENDBRANCH   4   5
ENDBRANCH   3   4
ENDBRANCH   2   3
TORSDOF 37
ENDMDL
MODEL       53
REMARK 921   NORMALIZED FREE ENERGY PREDICTED BY IDOCK:   -3.64 KCAL/MOL
REMARK 922        TOTAL FREE ENERGY PREDICTED BY IDOCK:  -15.13 KCAL/MOL
REMARK 923 INTER-LIGAND FREE ENERGY PREDICTED BY IDOCK:  -11.43 KCAL/MOL
REMARK 924 INTRA-LIGAND FREE ENERGY PREDICTED BY IDOCK:   -3.70 KCAL/MOL
REMARK 927      BINDING AFFINITY PREDICTED BY RF-SCORE:    0.00 PKD
ROOT
HETATM    1  C   UNL     1     -10.349   3.567  72.836  1.00  0.00    -0.246 C  
HETATM    2  C   UNL     1     -10.494   4.919  73.513  1.00  0.00    -0.278 C  
ENDROOT
BRANCH   2   3
HETATM    3  C   UNL     1     -11.244   5.903  72.619  1.00  0.00    -0.335 C  
BRANCH   3   4
HETATM    4  C   UNL     1     -11.121   7.332  73.144  1.00  0.00    -0.336 C  
BRANCH   4   5
HETATM    5  C   UNL     1      -9.907   8.029  72.535  1.00  0.00    -0.330 C  
BRANCH   5   6
HETATM    6  C   UNL     1      -8.813   8.228  73.578  1.00  0.00    -0.255 C  
BRANCH   6   7
HETATM    7  C   UNL     1      -7.585   7.390  73.238  1.00  0.00    -0.109 C  
BRANCH   7   8
HETATM    8  C   UNL     1      -7.656   6.892  71.800  1.00  0.00    -0.093 C  
BRANCH   8   9
HETATM    9  C   UNL     1      -7.119   5.469  71.688  1.00  0.00    -0.076 C  
BRANCH   9  10
HETATM   10  C   UNL     1      -7.786   4.745  70.527  1.00  0.00    -0.062 C  
BRANCH  10  11
HETATM   11  C   UNL     1      -8.869   5.604  69.891  1.00  0.00    -0.135 C  
BRANCH  11  12
HETATM   12  C   UNL     1      -9.919   4.727  69.230  1.00  0.00    -0.184 C  
BRANCH  12  13
HETATM   13  O   UNL     1     -10.175   5.246  67.931  1.00  0.00    -0.172 OA 
BRANCH  13  14
HETATM   14  C   UNL     1     -11.075   6.348  67.999  1.00  0.00    -0.267 C  
BRANCH  14  15
HETATM   15  C   UNL     1     -10.660   7.396  66.981  1.00  0.00    -0.344 C  
BRANCH  15  16
HETATM   16  O   UNL     1      -9.740   8.284  67.606  1.00  0.00    -0.148 OA 
BRANCH  16  17
HETATM   17  C   UNL     1      -8.537   8.396  66.855  1.00  0.00    -0.125 C  
BRANCH  17  18
HETATM   18  C   UNL     1      -8.884   8.329  65.376  1.00  0.00    -0.073 C  
BRANCH  18  19
HETATM   19  O   UNL     1      -8.920   9.651  64.851  1.00  0.00    -0.190 OA 
BRANCH  19  20
HETATM   20  C   UNL     1      -8.625   9.668  63.453  1.00  0.00    -0.209 C  
BRANCH  20  21
HETATM   21  C   UNL     1      -9.565  10.653  62.770  1.00  0.00    -0.301 C  
BRANCH  21  22
HETATM   22  O   UNL     1     -10.634  10.965  63.669  1.00  0.00    -0.326 OA 
BRANCH  22  23
HETATM   23  C   UNL     1     -11.390  12.080  63.214  1.00  0.00    -0.310 C  
BRANCH  23  24
HETATM   24  C   UNL     1     -12.693  12.146  63.996  1.00  0.00    -0.344 C  
BRANCH  24  25
HETATM   25  O   UNL     1     -12.573  13.146  65.003  1.00  0.00    -0.530 OA 
BRANCH  25  26
HETATM   26  C   UNL     1     -12.253  14.411  64.438  1.00  0.00    -0.458 C  
BRANCH  26  27
HETATM   27  C   UNL     1     -11.117  15.032  65.238  1.00  0.00    -0.386 C  
BRANCH  27  28
HETATM   28  O   UNL     1     -11.219  14.614  66.595  1.00  0.00    -0.334 OA 
BRANCH  28  29
HETATM   29  C   UNL     1     -10.620  15.564  67.471  1.00  0.00    -0.297 C  
BRANCH  29  30
HETATM   30  C   UNL     1     -10.789  15.087  68.905  1.00  0.00    -0.243 C  
BRANCH  30  31
HETATM   31  O   UNL     1     -11.799  15.866  69.536  1.00  0.00    -0.345 OA 
BRANCH  31  32
HETATM   32  C   UNL     1     -11.660  15.843  70.955  1.00  0.00    -0.421 C  
BRANCH  32  33
HETATM   33  C   UNL     1     -13.029  15.620  71.582  1.00  0.00    -0.476 C  
BRANCH  33  34
HETATM   34  O   UNL     1     -12.907  14.692  72.657  1.00  0.00    -0.363 OA 
BRANCH  34  35
HETATM   35  C   UNL     1     -13.751  13.560  72.465  1.00  0.00    -0.559 C  
BRANCH  35  36
HETATM   36  C   UNL     1     -12.983  12.496  71.694  1.00  0.00    -0.302 C  
BRANCH  36  37
HETATM   37  O   UNL     1     -13.437  11.199  72.081  1.00  0.00    -0.380 OA 
BRANCH  37  38
HETATM   38  C   UNL     1     -12.873  10.187  71.237  1.00  0.00    -0.410 C  
BRANCH  38  39
HETATM   39  C   UNL     1     -12.487  10.831  69.910  1.00  0.00    -0.209 C  
HETATM   40  O   UNL     1     -11.659   9.942  69.161  1.00  0.00    -0.467 OA 
HETATM   41  H   UNL     1     -11.419  10.343  68.335  1.00  0.00     0.000 HD 
ENDBRANCH  38  39
ENDBRANCH  37  38
ENDBRANCH  36  37
ENDBRANCH  35  36
ENDBRANCH  34  35
ENDBRANCH  33  34
ENDBRANCH  32  33
ENDBRANCH  31  32
ENDBRANCH  30  31
ENDBRANCH  29  30
ENDBRANCH  28  29
ENDBRANCH  27  28
ENDBRANCH  26  27
ENDBRANCH  25  26
ENDBRANCH  24  25
ENDBRANCH  23  24
ENDBRANCH  22  23
ENDBRANCH  21  22
ENDBRANCH  20  21
ENDBRANCH  19  20
ENDBRANCH  18  19
ENDBRANCH  17  18
ENDBRANCH  16  17
ENDBRANCH  15  16
ENDBRANCH  14  15
ENDBRANCH  13  14
ENDBRANCH  12  13
ENDBRANCH  11  12
ENDBRANCH  10  11
ENDBRANCH   9  10
ENDBRANCH   8   9
ENDBRANCH   7   8
ENDBRANCH   6   7
ENDBRANCH   5   6
ENDBRANCH   4   5
ENDBRANCH   3   4
ENDBRANCH   2   3
TORSDOF 37
ENDMDL
MODEL       54
REMARK 921   NORMALIZED FREE ENERGY PREDICTED BY IDOCK:   -3.64 KCAL/MOL
REMARK 922        TOTAL FREE ENERGY PREDICTED BY IDOCK:  -15.12 KCAL/MOL
REMARK 923 INTER-LIGAND FREE ENERGY PREDICTED BY IDOCK:  -11.86 KCAL/MOL
REMARK 924 INTRA-LIGAND FREE ENERGY PREDICTED BY IDOCK:   -3.26 KCAL/MOL
REMARK 927      BINDING AFFINITY PREDICTED BY RF-SCORE:    0.00 PKD
ROOT
HETATM    1  C   UNL     1     -10.065   3.681  72.504  1.00  0.00    -0.237 C  
HETATM    2  C   UNL     1      -9.553   2.304  72.117  1.00  0.00    -0.188 C  
ENDROOT
BRANCH   2   3
HETATM    3  C   UNL     1      -9.350   2.198  70.609  1.00  0.00    -0.199 C  
BRANCH   3   4
HETATM    4  C   UNL     1      -9.451   3.566  69.939  1.00  0.00    -0.254 C  
BRANCH   4   5
HETATM    5  C   UNL     1      -8.514   3.651  68.737  1.00  0.00    -0.102 C  
BRANCH   5   6
HETATM    6  C   UNL     1      -9.108   2.931  67.531  1.00  0.00    -0.215 C  
BRANCH   6   7
HETATM    7  C   UNL     1      -9.781   3.923  66.588  1.00  0.00    -0.189 C  
BRANCH   7   8
HETATM    8  C   UNL     1      -9.073   5.270  66.631  1.00  0.00    -0.122 C  
BRANCH   8   9
HETATM    9  C   UNL     1     -10.073   6.416  66.506  1.00  0.00    -0.155 C  
BRANCH   9  10
HETATM   10  C   UNL     1     -11.125   6.317  67.602  1.00  0.00    -0.368 C  
BRANCH  10  11
HETATM   11  C   UNL     1     -10.574   6.786  68.940  1.00  0.00    -0.257 C  
BRANCH  11  12
HETATM   12  C   UNL     1     -11.538   6.438  70.061  1.00  0.00    -0.377 C  
BRANCH  12  13
HETATM   13  O   UNL     1     -10.971   6.883  71.287  1.00  0.00    -0.235 OA 
BRANCH  13  14
HETATM   14  C   UNL     1      -9.670   7.419  71.073  1.00  0.00    -0.164 C  
BRANCH  14  15
HETATM   15  C   UNL     1      -9.336   8.386  72.196  1.00  0.00    -0.269 C  
BRANCH  15  16
HETATM   16  O   UNL     1      -8.106   9.028  71.879  1.00  0.00    -0.359 OA 
BRANCH  16  17
HETATM   17  C   UNL     1      -7.908   9.101  70.471  1.00  0.00    -0.142 C  
BRANCH  17  18
HETATM   18  C   UNL     1      -6.736  10.030  70.197  1.00  0.00    -0.128 C  
BRANCH  18  19
HETATM   19  O   UNL     1      -7.048  10.844  69.073  1.00  0.00    -0.077 OA 
BRANCH  19  20
HETATM   20  C   UNL     1      -7.480  10.058  67.961  1.00  0.00    -0.088 C  
BRANCH  20  21
HETATM   21  C   UNL     1      -8.443  10.891  67.123  1.00  0.00    -0.128 C  
BRANCH  21  22
HETATM   22  O   UNL     1      -9.511  11.339  67.962  1.00  0.00    -0.162 OA 
BRANCH  22  23
HETATM   23  C   UNL     1     -10.671  10.529  67.808  1.00  0.00    -0.272 C  
BRANCH  23  24
HETATM   24  C   UNL     1     -11.287  10.282  69.176  1.00  0.00    -0.186 C  
BRANCH  24  25
HETATM   25  O   UNL     1     -12.438  11.110  69.316  1.00  0.00    -0.377 OA 
BRANCH  25  26
HETATM   26  C   UNL     1     -12.306  11.994  70.422  1.00  0.00    -0.233 C  
BRANCH  26  27
HETATM   27  C   UNL     1     -13.109  11.440  71.591  1.00  0.00    -0.393 C  
BRANCH  27  28
HETATM   28  O   UNL     1     -13.735  12.519  72.278  1.00  0.00    -0.482 OA 
BRANCH  28  29
HETATM   29  C   UNL     1     -12.951  13.704  72.196  1.00  0.00    -0.324 C  
BRANCH  29  30
HETATM   30  C   UNL     1     -13.879  14.907  72.146  1.00  0.00    -0.471 C  
BRANCH  30  31
HETATM   31  O   UNL     1     -13.377  15.839  71.194  1.00  0.00    -0.564 OA 
BRANCH  31  32
HETATM   32  C   UNL     1     -11.965  15.993  71.314  1.00  0.00    -0.424 C  
BRANCH  32  33
HETATM   33  C   UNL     1     -11.336  15.876  69.933  1.00  0.00    -0.348 C  
BRANCH  33  34
HETATM   34  O   UNL     1     -12.335  15.489  68.993  1.00  0.00    -0.190 OA 
BRANCH  34  35
HETATM   35  C   UNL     1     -11.840  14.516  68.078  1.00  0.00    -0.315 C  
BRANCH  35  36
HETATM   36  C   UNL     1     -10.365  14.789  67.817  1.00  0.00    -0.244 C  
BRANCH  36  37
HETATM   37  O   UNL     1     -10.036  14.416  66.478  1.00  0.00    -0.262 OA 
BRANCH  37  38
HETATM   38  C   UNL     1     -10.091  15.550  65.603  1.00  0.00    -0.376 C  
BRANCH  38  39
HETATM   39  C   UNL     1     -11.376  15.464  64.787  1.00  0.00    -0.376 C  
HETATM   40  O   UNL     1     -11.434  16.544  63.856  1.00  0.00    -1.608 OA 
HETATM   41  H   UNL     1     -12.235  16.490  63.348  1.00  0.00     0.000 HD 
ENDBRANCH  38  39
ENDBRANCH  37  38
ENDBRANCH  36  37
ENDBRANCH  35  36
ENDBRANCH  34  35
ENDBRANCH  33  34
ENDBRANCH  32  33
ENDBRANCH  31  32
ENDBRANCH  30  31
ENDBRANCH  29  30
ENDBRANCH  28  29
ENDBRANCH  27  28
ENDBRANCH  26  27
ENDBRANCH  25  26
ENDBRANCH  24  25
ENDBRANCH  23  24
ENDBRANCH  22  23
ENDBRANCH  21  22
ENDBRANCH  20  21
ENDBRANCH  19  20
ENDBRANCH  18  19
ENDBRANCH  17  18
ENDBRANCH  16  17
ENDBRANCH  15  16
ENDBRANCH  14  15
ENDBRANCH  13  14
ENDBRANCH  12  13
ENDBRANCH  11  12
ENDBRANCH  10  11
ENDBRANCH   9  10
ENDBRANCH   8   9
ENDBRANCH   7   8
ENDBRANCH   6   7
ENDBRANCH   5   6
ENDBRANCH   4   5
ENDBRANCH   3   4
ENDBRANCH   2   3
TORSDOF 37
ENDMDL
MODEL       55
REMARK 921   NORMALIZED FREE ENERGY PREDICTED BY IDOCK:   -3.63 KCAL/MOL
REMARK 922        TOTAL FREE ENERGY PREDICTED BY IDOCK:  -15.11 KCAL/MOL
REMARK 923 INTER-LIGAND FREE ENERGY PREDICTED BY IDOCK:  -12.19 KCAL/MOL
REMARK 924 INTRA-LIGAND FREE ENERGY PREDICTED BY IDOCK:   -2.93 KCAL/MOL
REMARK 927      BINDING AFFINITY PREDICTED BY RF-SCORE:    0.00 PKD
ROOT
HETATM    1  C   UNL     1      -5.429  17.020  70.044  1.00  0.00    -0.216 C  
HETATM    2  C   UNL     1      -6.406  17.480  68.976  1.00  0.00    -0.218 C  
ENDROOT
BRANCH   2   3
HETATM    3  C   UNL     1      -6.694  18.973  69.103  1.00  0.00    -0.337 C  
BRANCH   3   4
HETATM    4  C   UNL     1      -6.131  19.748  67.912  1.00  0.00    -0.240 C  
BRANCH   4   5
HETATM    5  C   UNL     1      -7.113  20.823  67.454  1.00  0.00    -0.412 C  
BRANCH   5   6
HETATM    6  C   UNL     1      -8.265  20.210  66.668  1.00  0.00    -0.328 C  
BRANCH   6   7
HETATM    7  C   UNL     1      -9.606  20.707  67.198  1.00  0.00    -0.534 C  
BRANCH   7   8
HETATM    8  C   UNL     1     -10.564  19.542  67.412  1.00  0.00    -0.607 C  
BRANCH   8   9
HETATM    9  C   UNL     1     -10.206  18.368  66.506  1.00  0.00    -0.423 C  
BRANCH   9  10
HETATM   10  C   UNL     1     -10.030  17.101  67.333  1.00  0.00    -0.280 C  
BRANCH  10  11
HETATM   11  C   UNL     1      -9.167  16.083  66.602  1.00  0.00    -0.276 C  
BRANCH  11  12
HETATM   12  C   UNL     1     -10.039  15.131  65.800  1.00  0.00    -0.346 C  
BRANCH  12  13
HETATM   13  O   UNL     1     -10.397  14.043  66.642  1.00  0.00    -0.271 OA 
BRANCH  13  14
HETATM   14  C   UNL     1     -11.810  13.877  66.676  1.00  0.00    -0.420 C  
BRANCH  14  15
HETATM   15  C   UNL     1     -12.190  12.653  65.862  1.00  0.00    -0.307 C  
BRANCH  15  16
HETATM   16  O   UNL     1     -12.687  13.093  64.603  1.00  0.00    -0.653 OA 
BRANCH  16  17
HETATM   17  C   UNL     1     -12.319  12.197  63.560  1.00  0.00    -0.574 C  
BRANCH  17  18
HETATM   18  C   UNL     1     -10.801  12.128  63.498  1.00  0.00    -0.458 C  
BRANCH  18  19
HETATM   19  O   UNL     1     -10.398  10.768  63.594  1.00  0.00    -0.327 OA 
BRANCH  19  20
HETATM   20  C   UNL     1      -8.984  10.627  63.442  1.00  0.00    -0.219 C  
BRANCH  20  21
HETATM   21  C   UNL     1      -8.614   9.167  63.670  1.00  0.00    -0.166 C  
BRANCH  21  22
HETATM   22  O   UNL     1      -7.454   9.114  64.507  1.00  0.00    -0.097 OA 
BRANCH  22  23
HETATM   23  C   UNL     1      -7.642   9.855  65.707  1.00  0.00    -0.113 C  
BRANCH  23  24
HETATM   24  C   UNL     1      -6.315  10.475  66.117  1.00  0.00    -0.119 C  
BRANCH  24  25
HETATM   25  O   UNL     1      -6.467  11.072  67.402  1.00  0.00    -0.061 OA 
BRANCH  25  26
HETATM   26  C   UNL     1      -6.769  10.097  68.391  1.00  0.00    -0.054 C  
BRANCH  26  27
HETATM   27  C   UNL     1      -7.139  10.809  69.685  1.00  0.00    -0.136 C  
BRANCH  27  28
HETATM   28  O   UNL     1      -7.980   9.960  70.459  1.00  0.00    -0.246 OA 
BRANCH  28  29
HETATM   29  C   UNL     1      -8.095   8.671  69.865  1.00  0.00    -0.111 C  
BRANCH  29  30
HETATM   30  C   UNL     1      -9.548   8.227  69.930  1.00  0.00    -0.171 C  
BRANCH  30  31
HETATM   31  O   UNL     1     -10.385   9.327  69.588  1.00  0.00    -0.199 OA 
BRANCH  31  32
HETATM   32  C   UNL     1     -11.330   9.598  70.619  1.00  0.00    -0.312 C  
BRANCH  32  33
HETATM   33  C   UNL     1     -12.342  10.614  70.108  1.00  0.00    -0.295 C  
BRANCH  33  34
HETATM   34  O   UNL     1     -12.318  11.764  70.950  1.00  0.00    -0.375 OA 
BRANCH  34  35
HETATM   35  C   UNL     1     -13.326  11.694  71.955  1.00  0.00    -0.298 C  
BRANCH  35  36
HETATM   36  C   UNL     1     -13.849  13.098  72.226  1.00  0.00    -0.490 C  
BRANCH  36  37
HETATM   37  O   UNL     1     -13.086  14.049  71.482  1.00  0.00    -0.331 OA 
BRANCH  37  38
HETATM   38  C   UNL     1     -12.951  15.277  72.209  1.00  0.00    -0.369 C  
BRANCH  38  39
HETATM   39  C   UNL     1     -11.892  16.129  71.517  1.00  0.00    -0.463 C  
HETATM   40  O   UNL     1     -11.830  15.795  70.131  1.00  0.00    -0.338 OA 
HETATM   41  H   UNL     1     -11.170  16.326  69.701  1.00  0.00     0.000 HD 
ENDBRANCH  38  39
ENDBRANCH  37  38
ENDBRANCH  36  37
ENDBRANCH  35  36
ENDBRANCH  34  35
ENDBRANCH  33  34
ENDBRANCH  32  33
ENDBRANCH  31  32
ENDBRANCH  30  31
ENDBRANCH  29  30
ENDBRANCH  28  29
ENDBRANCH  27  28
ENDBRANCH  26  27
ENDBRANCH  25  26
ENDBRANCH  24  25
ENDBRANCH  23  24
ENDBRANCH  22  23
ENDBRANCH  21  22
ENDBRANCH  20  21
ENDBRANCH  19  20
ENDBRANCH  18  19
ENDBRANCH  17  18
ENDBRANCH  16  17
ENDBRANCH  15  16
ENDBRANCH  14  15
ENDBRANCH  13  14
ENDBRANCH  12  13
ENDBRANCH  11  12
ENDBRANCH  10  11
ENDBRANCH   9  10
ENDBRANCH   8   9
ENDBRANCH   7   8
ENDBRANCH   6   7
ENDBRANCH   5   6
ENDBRANCH   4   5
ENDBRANCH   3   4
ENDBRANCH   2   3
TORSDOF 37
ENDMDL
MODEL       56
REMARK 921   NORMALIZED FREE ENERGY PREDICTED BY IDOCK:   -3.63 KCAL/MOL
REMARK 922        TOTAL FREE ENERGY PREDICTED BY IDOCK:  -15.11 KCAL/MOL
REMARK 923 INTER-LIGAND FREE ENERGY PREDICTED BY IDOCK:  -11.33 KCAL/MOL
REMARK 924 INTRA-LIGAND FREE ENERGY PREDICTED BY IDOCK:   -3.78 KCAL/MOL
REMARK 927      BINDING AFFINITY PREDICTED BY RF-SCORE:    0.00 PKD
ROOT
HETATM    1  C   UNL     1      -9.873   9.065  71.184  1.00  0.00    -0.371 C  
HETATM    2  C   UNL     1      -9.195   8.473  72.407  1.00  0.00    -0.328 C  
ENDROOT
BRANCH   2   3
HETATM    3  C   UNL     1     -10.190   7.697  73.265  1.00  0.00    -0.398 C  
BRANCH   3   4
HETATM    4  C   UNL     1     -11.527   7.530  72.547  1.00  0.00    -0.376 C  
BRANCH   4   5
HETATM    5  C   UNL     1     -11.825   6.054  72.293  1.00  0.00    -0.305 C  
BRANCH   5   6
HETATM    6  C   UNL     1     -10.909   5.163  73.123  1.00  0.00    -0.344 C  
BRANCH   6   7
HETATM    7  C   UNL     1     -10.133   4.202  72.228  1.00  0.00    -0.247 C  
BRANCH   7   8
HETATM    8  C   UNL     1     -10.304   4.578  70.762  1.00  0.00    -0.055 C  
BRANCH   8   9
HETATM    9  C   UNL     1      -8.982   4.461  70.011  1.00  0.00    -0.146 C  
BRANCH   9  10
HETATM   10  C   UNL     1      -7.940   5.380  70.634  1.00  0.00    -0.105 C  
BRANCH  10  11
HETATM   11  C   UNL     1      -7.245   6.223  69.575  1.00  0.00    -0.078 C  
BRANCH  11  12
HETATM   12  C   UNL     1      -7.279   5.516  68.231  1.00  0.00    -0.071 C  
BRANCH  12  13
HETATM   13  O   UNL     1      -7.156   6.499  67.210  1.00  0.00    -0.072 OA 
BRANCH  13  14
HETATM   14  C   UNL     1      -7.212   5.896  65.922  1.00  0.00    -0.075 C  
BRANCH  14  15
HETATM   15  C   UNL     1      -8.314   4.852  65.905  1.00  0.00    -0.114 C  
BRANCH  15  16
HETATM   16  O   UNL     1      -9.548   5.512  65.645  1.00  0.00    -0.084 OA 
BRANCH  16  17
HETATM   17  C   UNL     1     -10.549   5.124  66.580  1.00  0.00    -0.260 C  
BRANCH  17  18
HETATM   18  C   UNL     1     -11.048   6.368  67.297  1.00  0.00    -0.330 C  
BRANCH  18  19
HETATM   19  O   UNL     1     -10.600   7.518  66.589  1.00  0.00    -0.268 OA 
BRANCH  19  20
HETATM   20  C   UNL     1     -10.071   8.506  67.474  1.00  0.00    -0.221 C  
BRANCH  20  21
HETATM   21  C   UNL     1     -10.027   9.842  66.742  1.00  0.00    -0.218 C  
BRANCH  21  22
HETATM   22  O   UNL     1      -8.809   9.915  65.995  1.00  0.00    -0.140 OA 
BRANCH  22  23
HETATM   23  C   UNL     1      -9.050  10.270  64.638  1.00  0.00    -0.228 C  
BRANCH  23  24
HETATM   24  C   UNL     1     -10.496  10.718  64.494  1.00  0.00    -0.281 C  
BRANCH  24  25
HETATM   25  O   UNL     1     -10.626  11.464  63.287  1.00  0.00    -0.365 OA 
BRANCH  25  26
HETATM   26  C   UNL     1     -11.723  12.367  63.354  1.00  0.00    -0.472 C  
BRANCH  26  27
HETATM   27  C   UNL     1     -12.211  12.440  64.793  1.00  0.00    -0.423 C  
BRANCH  27  28
HETATM   28  O   UNL     1     -12.672  13.760  65.062  1.00  0.00    -0.630 OA 
BRANCH  28  29
HETATM   29  C   UNL     1     -12.401  14.134  66.409  1.00  0.00    -0.400 C  
BRANCH  29  30
HETATM   30  C   UNL     1     -11.824  12.936  67.147  1.00  0.00    -0.362 C  
BRANCH  30  31
HETATM   31  O   UNL     1     -11.104  13.396  68.286  1.00  0.00    -0.240 OA 
BRANCH  31  32
HETATM   32  C   UNL     1     -11.952  14.116  69.178  1.00  0.00    -0.349 C  
BRANCH  32  33
HETATM   33  C   UNL     1     -11.115  15.125  69.950  1.00  0.00    -0.284 C  
BRANCH  33  34
HETATM   34  O   UNL     1     -11.237  16.404  69.333  1.00  0.00    -0.316 OA 
BRANCH  34  35
HETATM   35  C   UNL     1      -9.984  16.863  68.834  1.00  0.00    -0.279 C  
BRANCH  35  36
HETATM   36  C   UNL     1     -10.225  18.051  67.913  1.00  0.00    -0.378 C  
BRANCH  36  37
HETATM   37  O   UNL     1      -9.560  17.837  66.667  1.00  0.00    -0.285 OA 
BRANCH  37  38
HETATM   38  C   UNL     1     -10.144  16.736  65.958  1.00  0.00    -0.332 C  
BRANCH  38  39
HETATM   39  C   UNL     1     -11.124  17.294  64.932  1.00  0.00     0.414 C  
HETATM   40  O   UNL     1     -11.303  16.356  63.872  1.00  0.00    -1.510 OA 
HETATM   41  H   UNL     1     -11.914  16.704  63.233  1.00  0.00     0.000 HD 
ENDBRANCH  38  39
ENDBRANCH  37  38
ENDBRANCH  36  37
ENDBRANCH  35  36
ENDBRANCH  34  35
ENDBRANCH  33  34
ENDBRANCH  32  33
ENDBRANCH  31  32
ENDBRANCH  30  31
ENDBRANCH  29  30
ENDBRANCH  28  29
ENDBRANCH  27  28
ENDBRANCH  26  27
ENDBRANCH  25  26
ENDBRANCH  24  25
ENDBRANCH  23  24
ENDBRANCH  22  23
ENDBRANCH  21  22
ENDBRANCH  20  21
ENDBRANCH  19  20
ENDBRANCH  18  19
ENDBRANCH  17  18
ENDBRANCH  16  17
ENDBRANCH  15  16
ENDBRANCH  14  15
ENDBRANCH  13  14
ENDBRANCH  12  13
ENDBRANCH  11  12
ENDBRANCH  10  11
ENDBRANCH   9  10
ENDBRANCH   8   9
ENDBRANCH   7   8
ENDBRANCH   6   7
ENDBRANCH   5   6
ENDBRANCH   4   5
ENDBRANCH   3   4
ENDBRANCH   2   3
TORSDOF 37
ENDMDL
MODEL       57
REMARK 921   NORMALIZED FREE ENERGY PREDICTED BY IDOCK:   -3.62 KCAL/MOL
REMARK 922        TOTAL FREE ENERGY PREDICTED BY IDOCK:  -15.06 KCAL/MOL
REMARK 923 INTER-LIGAND FREE ENERGY PREDICTED BY IDOCK:  -12.05 KCAL/MOL
REMARK 924 INTRA-LIGAND FREE ENERGY PREDICTED BY IDOCK:   -3.01 KCAL/MOL
REMARK 927      BINDING AFFINITY PREDICTED BY RF-SCORE:    0.00 PKD
ROOT
HETATM    1  C   UNL     1      -9.857   4.805  66.057  1.00  0.00    -0.229 C  
HETATM    2  C   UNL     1      -8.542   5.171  66.722  1.00  0.00    -0.109 C  
ENDROOT
BRANCH   2   3
HETATM    3  C   UNL     1      -7.427   5.319  65.690  1.00  0.00    -0.081 C  
BRANCH   3   4
HETATM    4  C   UNL     1      -6.700   6.652  65.848  1.00  0.00    -0.048 C  
BRANCH   4   5
HETATM    5  C   UNL     1      -6.888   7.521  64.607  1.00  0.00    -0.051 C  
BRANCH   5   6
HETATM    6  C   UNL     1      -7.431   8.895  64.981  1.00  0.00    -0.097 C  
BRANCH   6   7
HETATM    7  C   UNL     1      -8.857   8.788  65.509  1.00  0.00    -0.229 C  
BRANCH   7   8
HETATM    8  C   UNL     1      -9.608  10.096  65.300  1.00  0.00    -0.338 C  
BRANCH   8   9
HETATM    9  C   UNL     1      -9.125  10.806  64.039  1.00  0.00    -0.215 C  
BRANCH   9  10
HETATM   10  C   UNL     1     -10.310  11.377  63.271  1.00  0.00    -0.422 C  
BRANCH  10  11
HETATM   11  C   UNL     1     -11.351  11.958  64.215  1.00  0.00    -0.425 C  
BRANCH  11  12
HETATM   12  C   UNL     1     -12.527  12.513  63.429  1.00  0.00    -0.408 C  
BRANCH  12  13
HETATM   13  O   UNL     1     -12.583  13.917  63.650  1.00  0.00    -0.790 OA 
BRANCH  13  14
HETATM   14  C   UNL     1     -12.031  14.248  64.920  1.00  0.00    -0.425 C  
BRANCH  14  15
HETATM   15  C   UNL     1     -11.079  15.421  64.761  1.00  0.00    -0.403 C  
BRANCH  15  16
HETATM   16  O   UNL     1     -10.810  15.954  66.053  1.00  0.00    -0.305 OA 
BRANCH  16  17
HETATM   17  C   UNL     1      -9.430  16.270  66.204  1.00  0.00    -0.339 C  
BRANCH  17  18
HETATM   18  C   UNL     1      -8.733  15.087  66.858  1.00  0.00    -0.256 C  
BRANCH  18  19
HETATM   19  O   UNL     1      -9.675  14.383  67.658  1.00  0.00    -0.215 OA 
BRANCH  19  20
HETATM   20  C   UNL     1      -9.678  12.986  67.358  1.00  0.00    -0.213 C  
BRANCH  20  21
HETATM   21  C   UNL     1      -8.731  12.280  68.321  1.00  0.00    -0.178 C  
BRANCH  21  22
HETATM   22  O   UNL     1      -9.312  11.028  68.699  1.00  0.00    -0.183 OA 
BRANCH  22  23
HETATM   23  C   UNL     1      -8.369  10.196  69.365  1.00  0.00    -0.168 C  
BRANCH  23  24
HETATM   24  C   UNL     1      -8.859   8.757  69.314  1.00  0.00    -0.140 C  
BRANCH  24  25
HETATM   25  O   UNL     1      -8.417   8.082  70.489  1.00  0.00    -0.121 OA 
BRANCH  25  26
HETATM   26  C   UNL     1      -9.158   6.888  70.708  1.00  0.00    -0.154 C  
BRANCH  26  27
HETATM   27  C   UNL     1     -10.124   6.691  69.548  1.00  0.00    -0.177 C  
BRANCH  27  28
HETATM   28  O   UNL     1     -11.366   6.213  70.053  1.00  0.00    -0.392 OA 
BRANCH  28  29
HETATM   29  C   UNL     1     -11.524   6.547  71.428  1.00  0.00    -0.309 C  
BRANCH  29  30
HETATM   30  C   UNL     1     -12.675   7.530  71.568  1.00  0.00    -0.359 C  
BRANCH  30  31
HETATM   31  O   UNL     1     -12.229   8.664  72.305  1.00  0.00    -0.362 OA 
BRANCH  31  32
HETATM   32  C   UNL     1     -12.141   9.819  71.475  1.00  0.00    -0.409 C  
BRANCH  32  33
HETATM   33  C   UNL     1     -13.393  10.662  71.665  1.00  0.00    -0.307 C  
BRANCH  33  34
HETATM   34  O   UNL     1     -13.046  12.041  71.585  1.00  0.00    -0.427 OA 
BRANCH  34  35
HETATM   35  C   UNL     1     -12.239  12.310  70.441  1.00  0.00    -0.288 C  
BRANCH  35  36
HETATM   36  C   UNL     1     -12.273  13.804  70.153  1.00  0.00    -0.356 C  
BRANCH  36  37
HETATM   37  O   UNL     1     -13.158  14.451  71.069  1.00  0.00    -0.351 OA 
BRANCH  37  38
HETATM   38  C   UNL     1     -12.595  15.681  71.542  1.00  0.00    -0.447 C  
BRANCH  38  39
HETATM   39  C   UNL     1     -12.633  15.670  73.066  1.00  0.00    -0.459 C  
HETATM   40  O   UNL     1     -13.835  16.287  73.527  1.00  0.00    -0.868 OA 
HETATM   41  H   UNL     1     -13.858  16.280  74.476  1.00  0.00     0.000 HD 
ENDBRANCH  38  39
ENDBRANCH  37  38
ENDBRANCH  36  37
ENDBRANCH  35  36
ENDBRANCH  34  35
ENDBRANCH  33  34
ENDBRANCH  32  33
ENDBRANCH  31  32
ENDBRANCH  30  31
ENDBRANCH  29  30
ENDBRANCH  28  29
ENDBRANCH  27  28
ENDBRANCH  26  27
ENDBRANCH  25  26
ENDBRANCH  24  25
ENDBRANCH  23  24
ENDBRANCH  22  23
ENDBRANCH  21  22
ENDBRANCH  20  21
ENDBRANCH  19  20
ENDBRANCH  18  19
ENDBRANCH  17  18
ENDBRANCH  16  17
ENDBRANCH  15  16
ENDBRANCH  14  15
ENDBRANCH  13  14
ENDBRANCH  12  13
ENDBRANCH  11  12
ENDBRANCH  10  11
ENDBRANCH   9  10
ENDBRANCH   8   9
ENDBRANCH   7   8
ENDBRANCH   6   7
ENDBRANCH   5   6
ENDBRANCH   4   5
ENDBRANCH   3   4
ENDBRANCH   2   3
TORSDOF 37
ENDMDL
MODEL       58
REMARK 921   NORMALIZED FREE ENERGY PREDICTED BY IDOCK:   -3.60 KCAL/MOL
REMARK 922        TOTAL FREE ENERGY PREDICTED BY IDOCK:  -15.01 KCAL/MOL
REMARK 923 INTER-LIGAND FREE ENERGY PREDICTED BY IDOCK:  -11.68 KCAL/MOL
REMARK 924 INTRA-LIGAND FREE ENERGY PREDICTED BY IDOCK:   -3.33 KCAL/MOL
REMARK 927      BINDING AFFINITY PREDICTED BY RF-SCORE:    0.00 PKD
ROOT
HETATM    1  C   UNL     1      -6.068  16.087  69.635  1.00  0.00    -0.172 C  
HETATM    2  C   UNL     1      -6.966  16.738  68.598  1.00  0.00    -0.180 C  
ENDROOT
BRANCH   2   3
HETATM    3  C   UNL     1      -6.885  18.260  68.681  1.00  0.00    -0.261 C  
BRANCH   3   4
HETATM    4  C   UNL     1      -6.560  18.872  67.320  1.00  0.00    -0.199 C  
BRANCH   4   5
HETATM    5  C   UNL     1      -7.256  20.220  67.152  1.00  0.00    -0.327 C  
BRANCH   5   6
HETATM    6  C   UNL     1      -8.557  20.068  66.374  1.00  0.00    -0.350 C  
BRANCH   6   7
HETATM    7  C   UNL     1      -9.759  20.341  67.273  1.00  0.00    -0.590 C  
BRANCH   7   8
HETATM    8  C   UNL     1     -10.596  19.080  67.447  1.00  0.00    -0.559 C  
BRANCH   8   9
HETATM    9  C   UNL     1     -10.322  18.084  66.325  1.00  0.00    -0.384 C  
BRANCH   9  10
HETATM   10  C   UNL     1     -10.293  16.664  66.876  1.00  0.00    -0.299 C  
BRANCH  10  11
HETATM   11  C   UNL     1      -9.866  15.667  65.809  1.00  0.00    -0.386 C  
BRANCH  11  12
HETATM   12  C   UNL     1     -11.045  15.306  64.922  1.00  0.00    -0.424 C  
BRANCH  12  13
HETATM   13  O   UNL     1     -11.294  13.912  65.064  1.00  0.00    -0.313 OA 
BRANCH  13  14
HETATM   14  C   UNL     1     -12.102  13.435  63.994  1.00  0.00    -0.449 C  
BRANCH  14  15
HETATM   15  C   UNL     1     -11.506  12.148  63.452  1.00  0.00    -0.416 C  
BRANCH  15  16
HETATM   16  O   UNL     1     -10.135  12.385  63.153  1.00  0.00    -0.359 OA 
BRANCH  16  17
HETATM   17  C   UNL     1      -9.424  11.163  62.981  1.00  0.00    -0.369 C  
BRANCH  17  18
HETATM   18  C   UNL     1      -9.695  10.275  64.185  1.00  0.00    -0.291 C  
BRANCH  18  19
HETATM   19  O   UNL     1      -8.805  10.638  65.233  1.00  0.00    -0.181 OA 
BRANCH  19  20
HETATM   20  C   UNL     1      -9.514  11.012  66.416  1.00  0.00    -0.193 C  
BRANCH  20  21
HETATM   21  C   UNL     1      -8.785  12.179  67.071  1.00  0.00    -0.190 C  
BRANCH  21  22
HETATM   22  O   UNL     1      -9.592  12.682  68.139  1.00  0.00    -0.210 OA 
BRANCH  22  23
HETATM   23  C   UNL     1     -10.963  12.347  67.961  1.00  0.00    -0.225 C  
BRANCH  23  24
HETATM   24  C   UNL     1     -11.614  12.189  69.326  1.00  0.00    -0.318 C  
BRANCH  24  25
HETATM   25  O   UNL     1     -12.683  11.253  69.218  1.00  0.00    -0.202 OA 
BRANCH  25  26
HETATM   26  C   UNL     1     -12.907  10.580  70.451  1.00  0.00    -0.206 C  
BRANCH  26  27
HETATM   27  C   UNL     1     -11.562  10.198  71.052  1.00  0.00    -0.376 C  
BRANCH  27  28
HETATM   28  O   UNL     1     -11.743   9.096  71.935  1.00  0.00    -0.357 OA 
BRANCH  28  29
HETATM   29  C   UNL     1     -12.813   8.261  71.502  1.00  0.00    -0.293 C  
BRANCH  29  30
HETATM   30  C   UNL     1     -12.442   6.810  71.762  1.00  0.00    -0.349 C  
BRANCH  30  31
HETATM   31  O   UNL     1     -11.052   6.733  72.063  1.00  0.00    -0.234 OA 
BRANCH  31  32
HETATM   32  C   UNL     1     -10.538   5.430  71.803  1.00  0.00    -0.222 C  
BRANCH  32  33
HETATM   33  C   UNL     1     -10.634   5.148  70.310  1.00  0.00    -0.160 C  
BRANCH  33  34
HETATM   34  O   UNL     1      -9.901   6.140  69.597  1.00  0.00    -0.155 OA 
BRANCH  34  35
HETATM   35  C   UNL     1      -8.560   5.723  69.356  1.00  0.00    -0.111 C  
BRANCH  35  36
HETATM   36  C   UNL     1      -8.419   5.340  67.890  1.00  0.00    -0.101 C  
BRANCH  36  37
HETATM   37  O   UNL     1      -8.146   6.506  67.111  1.00  0.00    -0.111 OA 
BRANCH  37  38
HETATM   38  C   UNL     1      -9.152   6.697  66.108  1.00  0.00    -0.118 C  
BRANCH  38  39
HETATM   39  C   UNL     1     -10.303   7.483  66.727  1.00  0.00    -0.262 C  
HETATM   40  O   UNL     1     -11.425   6.624  66.926  1.00  0.00    -0.777 OA 
HETATM   41  H   UNL     1     -12.141   7.114  67.312  1.00  0.00     0.000 HD 
ENDBRANCH  38  39
ENDBRANCH  37  38
ENDBRANCH  36  37
ENDBRANCH  35  36
ENDBRANCH  34  35
ENDBRANCH  33  34
ENDBRANCH  32  33
ENDBRANCH  31  32
ENDBRANCH  30  31
ENDBRANCH  29  30
ENDBRANCH  28  29
ENDBRANCH  27  28
ENDBRANCH  26  27
ENDBRANCH  25  26
ENDBRANCH  24  25
ENDBRANCH  23  24
ENDBRANCH  22  23
ENDBRANCH  21  22
ENDBRANCH  20  21
ENDBRANCH  19  20
ENDBRANCH  18  19
ENDBRANCH  17  18
ENDBRANCH  16  17
ENDBRANCH  15  16
ENDBRANCH  14  15
ENDBRANCH  13  14
ENDBRANCH  12  13
ENDBRANCH  11  12
ENDBRANCH  10  11
ENDBRANCH   9  10
ENDBRANCH   8   9
ENDBRANCH   7   8
ENDBRANCH   6   7
ENDBRANCH   5   6
ENDBRANCH   4   5
ENDBRANCH   3   4
ENDBRANCH   2   3
TORSDOF 37
ENDMDL
MODEL       59
REMARK 921   NORMALIZED FREE ENERGY PREDICTED BY IDOCK:   -3.59 KCAL/MOL
REMARK 922        TOTAL FREE ENERGY PREDICTED BY IDOCK:  -14.97 KCAL/MOL
REMARK 923 INTER-LIGAND FREE ENERGY PREDICTED BY IDOCK:  -11.33 KCAL/MOL
REMARK 924 INTRA-LIGAND FREE ENERGY PREDICTED BY IDOCK:   -3.64 KCAL/MOL
REMARK 927      BINDING AFFINITY PREDICTED BY RF-SCORE:    0.00 PKD
ROOT
HETATM    1  C   UNL     1     -11.099  10.376  70.333  1.00  0.00    -0.371 C  
HETATM    2  C   UNL     1     -12.579  10.717  70.298  1.00  0.00    -0.333 C  
ENDROOT
BRANCH   2   3
HETATM    3  C   UNL     1     -13.160  10.783  71.708  1.00  0.00    -0.573 C  
BRANCH   3   4
HETATM    4  C   UNL     1     -13.274   9.390  72.325  1.00  0.00    -0.528 C  
BRANCH   4   5
HETATM    5  C   UNL     1     -14.275   8.536  71.552  1.00  0.00    -0.448 C  
BRANCH   5   6
HETATM    6  C   UNL     1     -13.804   7.089  71.465  1.00  0.00    -0.359 C  
BRANCH   6   7
HETATM    7  C   UNL     1     -12.329   7.024  71.082  1.00  0.00    -0.423 C  
BRANCH   7   8
HETATM    8  C   UNL     1     -11.606   5.968  71.909  1.00  0.00    -0.312 C  
BRANCH   8   9
HETATM    9  C   UNL     1     -10.976   6.586  73.152  1.00  0.00    -0.251 C  
BRANCH   9  10
HETATM   10  C   UNL     1     -10.199   7.842  72.780  1.00  0.00    -0.380 C  
BRANCH  10  11
HETATM   11  C   UNL     1      -8.822   7.497  72.234  1.00  0.00    -0.161 C  
BRANCH  11  12
HETATM   12  C   UNL     1      -8.169   6.423  73.088  1.00  0.00    -0.115 C  
BRANCH  12  13
HETATM   13  O   UNL     1      -7.809   5.341  72.238  1.00  0.00    -0.099 OA 
BRANCH  13  14
HETATM   14  C   UNL     1      -7.863   5.736  70.871  1.00  0.00    -0.105 C  
BRANCH  14  15
HETATM   15  C   UNL     1      -8.365   4.573  70.034  1.00  0.00    -0.066 C  
BRANCH  15  16
HETATM   16  O   UNL     1      -7.473   4.396  68.939  1.00  0.00    -0.055 OA 
BRANCH  16  17
HETATM   17  C   UNL     1      -8.008   3.492  67.978  1.00  0.00    -0.075 C  
BRANCH  17  18
HETATM   18  C   UNL     1      -9.507   3.724  67.880  1.00  0.00    -0.170 C  
BRANCH  18  19
HETATM   19  O   UNL     1      -9.832   4.079  66.542  1.00  0.00    -0.212 OA 
BRANCH  19  20
HETATM   20  C   UNL     1     -10.653   5.247  66.494  1.00  0.00    -0.285 C  
BRANCH  20  21
HETATM   21  C   UNL     1      -9.765   6.473  66.673  1.00  0.00    -0.154 C  
BRANCH  21  22
HETATM   22  O   UNL     1     -10.219   7.204  67.817  1.00  0.00    -0.161 OA 
BRANCH  22  23
HETATM   23  C   UNL     1      -9.158   7.927  68.428  1.00  0.00    -0.135 C  
BRANCH  23  24
HETATM   24  C   UNL     1      -7.885   7.713  67.622  1.00  0.00    -0.123 C  
BRANCH  24  25
HETATM   25  O   UNL     1      -7.278   8.979  67.380  1.00  0.00    -0.082 OA 
BRANCH  25  26
HETATM   26  C   UNL     1      -7.732   9.542  66.155  1.00  0.00    -0.101 C  
BRANCH  26  27
HETATM   27  C   UNL     1      -8.114  10.996  66.396  1.00  0.00    -0.166 C  
BRANCH  27  28
HETATM   28  O   UNL     1      -9.415  11.046  66.972  1.00  0.00    -0.170 OA 
BRANCH  28  29
HETATM   29  C   UNL     1     -10.405  11.300  65.980  1.00  0.00    -0.252 C  
BRANCH  29  30
HETATM   30  C   UNL     1     -11.541  12.090  66.609  1.00  0.00    -0.319 C  
BRANCH  30  31
HETATM   31  O   UNL     1     -12.413  12.547  65.580  1.00  0.00    -0.646 OA 
BRANCH  31  32
HETATM   32  C   UNL     1     -12.637  13.951  65.677  1.00  0.00    -0.517 C  
BRANCH  32  33
HETATM   33  C   UNL     1     -12.210  14.613  64.375  1.00  0.00    -0.452 C  
BRANCH  33  34
HETATM   34  O   UNL     1     -10.982  15.306  64.583  1.00  0.00    -0.382 OA 
BRANCH  34  35
HETATM   35  C   UNL     1     -10.838  15.714  65.941  1.00  0.00    -0.293 C  
BRANCH  35  36
HETATM   36  C   UNL     1      -9.356  15.764  66.286  1.00  0.00    -0.325 C  
BRANCH  36  37
HETATM   37  O   UNL     1      -8.826  17.047  65.948  1.00  0.00    -0.518 OA 
BRANCH  37  38
HETATM   38  C   UNL     1      -9.467  18.080  66.708  1.00  0.00    -0.293 C  
BRANCH  38  39
HETATM   39  C   UNL     1      -8.931  19.426  66.233  1.00  0.00    -0.346 C  
HETATM   40  O   UNL     1      -9.679  20.485  66.829  1.00  0.00    -0.578 OA 
HETATM   41  H   UNL     1      -9.346  21.323  66.533  1.00  0.00     0.000 HD 
ENDBRANCH  38  39
ENDBRANCH  37  38
ENDBRANCH  36  37
ENDBRANCH  35  36
ENDBRANCH  34  35
ENDBRANCH  33  34
ENDBRANCH  32  33
ENDBRANCH  31  32
ENDBRANCH  30  31
ENDBRANCH  29  30
ENDBRANCH  28  29
ENDBRANCH  27  28
ENDBRANCH  26  27
ENDBRANCH  25  26
ENDBRANCH  24  25
ENDBRANCH  23  24
ENDBRANCH  22  23
ENDBRANCH  21  22
ENDBRANCH  20  21
ENDBRANCH  19  20
ENDBRANCH  18  19
ENDBRANCH  17  18
ENDBRANCH  16  17
ENDBRANCH  15  16
ENDBRANCH  14  15
ENDBRANCH  13  14
ENDBRANCH  12  13
ENDBRANCH  11  12
ENDBRANCH  10  11
ENDBRANCH   9  10
ENDBRANCH   8   9
ENDBRANCH   7   8
ENDBRANCH   6   7
ENDBRANCH   5   6
ENDBRANCH   4   5
ENDBRANCH   3   4
ENDBRANCH   2   3
TORSDOF 37
ENDMDL
MODEL       60
REMARK 921   NORMALIZED FREE ENERGY PREDICTED BY IDOCK:   -3.58 KCAL/MOL
REMARK 922        TOTAL FREE ENERGY PREDICTED BY IDOCK:  -14.96 KCAL/MOL
REMARK 923 INTER-LIGAND FREE ENERGY PREDICTED BY IDOCK:  -11.39 KCAL/MOL
REMARK 924 INTRA-LIGAND FREE ENERGY PREDICTED BY IDOCK:   -3.57 KCAL/MOL
REMARK 927      BINDING AFFINITY PREDICTED BY RF-SCORE:    0.00 PKD
ROOT
HETATM    1  C   UNL     1      -8.863   4.790  67.061  1.00  0.00    -0.107 C  
HETATM    2  C   UNL     1      -9.911   5.638  66.362  1.00  0.00    -0.189 C  
ENDROOT
BRANCH   2   3
HETATM    3  C   UNL     1     -10.827   6.321  67.374  1.00  0.00    -0.448 C  
BRANCH   3   4
HETATM    4  C   UNL     1     -10.554   5.824  68.792  1.00  0.00    -0.321 C  
BRANCH   4   5
HETATM    5  C   UNL     1     -11.191   6.752  69.823  1.00  0.00    -0.368 C  
BRANCH   5   6
HETATM    6  C   UNL     1     -10.154   7.246  70.825  1.00  0.00    -0.193 C  
BRANCH   6   7
HETATM    7  C   UNL     1      -9.949   8.751  70.692  1.00  0.00    -0.242 C  
BRANCH   7   8
HETATM    8  C   UNL     1      -8.857   9.056  69.675  1.00  0.00    -0.145 C  
BRANCH   8   9
HETATM    9  C   UNL     1      -7.668   8.118  69.854  1.00  0.00    -0.098 C  
BRANCH   9  10
HETATM   10  C   UNL     1      -7.085   7.742  68.497  1.00  0.00    -0.073 C  
BRANCH  10  11
HETATM   11  C   UNL     1      -7.661   8.613  67.390  1.00  0.00    -0.093 C  
BRANCH  11  12
HETATM   12  C   UNL     1      -7.112   8.183  66.041  1.00  0.00    -0.061 C  
BRANCH  12  13
HETATM   13  O   UNL     1      -6.303   9.238  65.535  1.00  0.00    -0.063 OA 
BRANCH  13  14
HETATM   14  C   UNL     1      -7.043  10.049  64.629  1.00  0.00    -0.140 C  
BRANCH  14  15
HETATM   15  C   UNL     1      -7.797   9.156  63.659  1.00  0.00    -0.136 C  
BRANCH  15  16
HETATM   16  O   UNL     1      -9.142   9.614  63.586  1.00  0.00    -0.242 OA 
BRANCH  16  17
HETATM   17  C   UNL     1      -9.251  10.771  62.764  1.00  0.00    -0.327 C  
BRANCH  17  18
HETATM   18  C   UNL     1     -10.147  11.778  63.465  1.00  0.00    -0.438 C  
BRANCH  18  19
HETATM   19  O   UNL     1     -10.674  11.183  64.644  1.00  0.00    -0.325 OA 
BRANCH  19  20
HETATM   20  C   UNL     1     -11.199  12.166  65.539  1.00  0.00    -0.334 C  
BRANCH  20  21
HETATM   21  C   UNL     1     -12.436  12.790  64.904  1.00  0.00    -0.497 C  
BRANCH  21  22
HETATM   22  O   UNL     1     -12.275  14.211  64.885  1.00  0.00    -0.402 OA 
BRANCH  22  23
HETATM   23  C   UNL     1     -11.132  14.616  65.629  1.00  0.00    -0.338 C  
BRANCH  23  24
HETATM   24  C   UNL     1     -10.900  16.103  65.406  1.00  0.00    -0.307 C  
BRANCH  24  25
HETATM   25  O   UNL     1      -9.496  16.345  65.358  1.00  0.00    -0.410 OA 
BRANCH  25  26
HETATM   26  C   UNL     1      -9.103  17.299  66.337  1.00  0.00    -0.253 C  
BRANCH  26  27
HETATM   27  C   UNL     1     -10.343  18.022  66.843  1.00  0.00    -0.370 C  
BRANCH  27  28
HETATM   28  O   UNL     1     -10.353  17.988  68.266  1.00  0.00    -0.368 OA 
BRANCH  28  29
HETATM   29  C   UNL     1      -9.409  17.045  68.764  1.00  0.00    -0.257 C  
BRANCH  29  30
HETATM   30  C   UNL     1     -10.154  15.935  69.487  1.00  0.00    -0.277 C  
BRANCH  30  31
HETATM   31  O   UNL     1     -11.392  16.446  69.970  1.00  0.00    -0.312 OA 
BRANCH  31  32
HETATM   32  C   UNL     1     -11.746  15.853  71.217  1.00  0.00    -0.448 C  
BRANCH  32  33
HETATM   33  C   UNL     1     -13.135  15.243  71.098  1.00  0.00    -0.479 C  
BRANCH  33  34
HETATM   34  O   UNL     1     -13.071  13.861  71.439  1.00  0.00    -0.331 OA 
BRANCH  34  35
HETATM   35  C   UNL     1     -11.874  13.260  70.951  1.00  0.00     0.200 C  
BRANCH  35  36
HETATM   36  C   UNL     1     -12.177  11.828  70.531  1.00  0.00    -0.347 C  
BRANCH  36  37
HETATM   37  O   UNL     1     -13.033  11.215  71.495  1.00  0.00    -0.429 OA 
BRANCH  37  38
HETATM   38  C   UNL     1     -13.387   9.885  71.092  1.00  0.00    -0.301 C  
BRANCH  38  39
HETATM   39  C   UNL     1     -13.927   9.143  72.309  1.00  0.00    -0.420 C  
HETATM   40  O   UNL     1     -12.857   8.494  72.996  1.00  0.00    -0.701 OA 
HETATM   41  H   UNL     1     -13.194   8.032  73.754  1.00  0.00     0.000 HD 
ENDBRANCH  38  39
ENDBRANCH  37  38
ENDBRANCH  36  37
ENDBRANCH  35  36
ENDBRANCH  34  35
ENDBRANCH  33  34
ENDBRANCH  32  33
ENDBRANCH  31  32
ENDBRANCH  30  31
ENDBRANCH  29  30
ENDBRANCH  28  29
ENDBRANCH  27  28
ENDBRANCH  26  27
ENDBRANCH  25  26
ENDBRANCH  24  25
ENDBRANCH  23  24
ENDBRANCH  22  23
ENDBRANCH  21  22
ENDBRANCH  20  21
ENDBRANCH  19  20
ENDBRANCH  18  19
ENDBRANCH  17  18
ENDBRANCH  16  17
ENDBRANCH  15  16
ENDBRANCH  14  15
ENDBRANCH  13  14
ENDBRANCH  12  13
ENDBRANCH  11  12
ENDBRANCH  10  11
ENDBRANCH   9  10
ENDBRANCH   8   9
ENDBRANCH   7   8
ENDBRANCH   6   7
ENDBRANCH   5   6
ENDBRANCH   4   5
ENDBRANCH   3   4
ENDBRANCH   2   3
TORSDOF 37
ENDMDL
MODEL       61
REMARK 921   NORMALIZED FREE ENERGY PREDICTED BY IDOCK:   -3.56 KCAL/MOL
REMARK 922        TOTAL FREE ENERGY PREDICTED BY IDOCK:  -14.89 KCAL/MOL
REMARK 923 INTER-LIGAND FREE ENERGY PREDICTED BY IDOCK:  -12.56 KCAL/MOL
REMARK 924 INTRA-LIGAND FREE ENERGY PREDICTED BY IDOCK:   -2.33 KCAL/MOL
REMARK 927      BINDING AFFINITY PREDICTED BY RF-SCORE:    0.00 PKD
ROOT
HETATM    1  C   UNL     1     -10.944   8.154  71.681  1.00  0.00    -0.306 C  
HETATM    2  C   UNL     1     -10.217   8.016  73.007  1.00  0.00    -0.357 C  
ENDROOT
BRANCH   2   3
HETATM    3  C   UNL     1     -10.249   6.573  73.502  1.00  0.00    -0.281 C  
BRANCH   3   4
HETATM    4  C   UNL     1     -11.393   5.792  72.859  1.00  0.00    -0.298 C  
BRANCH   4   5
HETATM    5  C   UNL     1     -11.481   4.383  73.440  1.00  0.00    -0.297 C  
BRANCH   5   6
HETATM    6  C   UNL     1     -10.091   3.819  73.712  1.00  0.00    -0.185 C  
BRANCH   6   7
HETATM    7  C   UNL     1      -9.792   2.649  72.780  1.00  0.00    -0.193 C  
BRANCH   7   8
HETATM    8  C   UNL     1      -9.705   3.121  71.335  1.00  0.00    -0.219 C  
BRANCH   8   9
HETATM    9  C   UNL     1      -8.252   3.264  70.894  1.00  0.00    -0.081 C  
BRANCH   9  10
HETATM   10  C   UNL     1      -7.736   4.658  71.223  1.00  0.00    -0.081 C  
BRANCH  10  11
HETATM   11  C   UNL     1      -8.066   5.644  70.113  1.00  0.00    -0.103 C  
BRANCH  11  12
HETATM   12  C   UNL     1      -7.829   5.007  68.754  1.00  0.00    -0.078 C  
BRANCH  12  13
HETATM   13  O   UNL     1      -8.618   5.702  67.796  1.00  0.00    -0.103 OA 
BRANCH  13  14
HETATM   14  C   UNL     1      -9.925   5.142  67.720  1.00  0.00    -0.156 C  
BRANCH  14  15
HETATM   15  C   UNL     1     -10.946   6.203  68.088  1.00  0.00    -0.307 C  
BRANCH  15  16
HETATM   16  O   UNL     1     -11.088   7.086  66.981  1.00  0.00    -0.373 OA 
BRANCH  16  17
HETATM   17  C   UNL     1     -10.619   8.393  67.298  1.00  0.00    -0.257 C  
BRANCH  17  18
HETATM   18  C   UNL     1      -9.624   8.819  66.230  1.00  0.00    -0.259 C  
BRANCH  18  19
HETATM   19  O   UNL     1      -9.936  10.143  65.814  1.00  0.00    -0.247 OA 
BRANCH  19  20
HETATM   20  C   UNL     1      -9.503  10.386  64.474  1.00  0.00    -0.286 C  
BRANCH  20  21
HETATM   21  C   UNL     1     -10.150  11.676  63.981  1.00  0.00    -0.323 C  
BRANCH  21  22
HETATM   22  O   UNL     1     -11.224  11.341  63.098  1.00  0.00    -0.141 OA 
BRANCH  22  23
HETATM   23  C   UNL     1     -12.425  12.013  63.458  1.00  0.00    -0.540 C  
BRANCH  23  24
HETATM   24  C   UNL     1     -12.279  12.561  64.869  1.00  0.00    -0.470 C  
BRANCH  24  25
HETATM   25  O   UNL     1     -13.133  13.694  65.011  1.00  0.00    -0.742 OA 
BRANCH  25  26
HETATM   26  C   UNL     1     -12.406  14.836  65.448  1.00  0.00    -0.087 C  
BRANCH  26  27
HETATM   27  C   UNL     1     -11.511  15.312  64.313  1.00  0.00    -0.153 C  
BRANCH  27  28
HETATM   28  O   UNL     1     -11.353  16.724  64.405  1.00  0.00    -1.089 OA 
BRANCH  28  29
HETATM   29  C   UNL     1     -10.361  17.066  65.368  1.00  0.00    -0.063 C  
BRANCH  29  30
HETATM   30  C   UNL     1     -10.641  18.467  65.888  1.00  0.00    -0.285 C  
BRANCH  30  31
HETATM   31  O   UNL     1     -10.297  18.526  67.268  1.00  0.00    -0.359 OA 
BRANCH  31  32
HETATM   32  C   UNL     1     -10.635  17.315  67.939  1.00  0.00    -0.384 C  
BRANCH  32  33
HETATM   33  C   UNL     1      -9.510  16.947  68.894  1.00  0.00    -0.241 C  
BRANCH  33  34
HETATM   34  O   UNL     1      -9.957  15.917  69.771  1.00  0.00    -0.267 OA 
BRANCH  34  35
HETATM   35  C   UNL     1     -11.370  15.747  69.697  1.00  0.00    -0.334 C  
BRANCH  35  36
HETATM   36  C   UNL     1     -11.951  15.819  71.103  1.00  0.00    -0.423 C  
BRANCH  36  37
HETATM   37  O   UNL     1     -13.341  15.493  71.067  1.00  0.00    -0.505 OA 
BRANCH  37  38
HETATM   38  C   UNL     1     -13.892  15.462  72.390  1.00  0.00    -0.562 C  
BRANCH  38  39
HETATM   39  C   UNL     1     -12.875  16.073  73.347  1.00  0.00    -0.562 C  
HETATM   40  O   UNL     1     -12.652  15.191  74.446  1.00  0.00    -0.561 OA 
HETATM   41  H   UNL     1     -12.018  15.571  75.042  1.00  0.00     0.000 HD 
ENDBRANCH  38  39
ENDBRANCH  37  38
ENDBRANCH  36  37
ENDBRANCH  35  36
ENDBRANCH  34  35
ENDBRANCH  33  34
ENDBRANCH  32  33
ENDBRANCH  31  32
ENDBRANCH  30  31
ENDBRANCH  29  30
ENDBRANCH  28  29
ENDBRANCH  27  28
ENDBRANCH  26  27
ENDBRANCH  25  26
ENDBRANCH  24  25
ENDBRANCH  23  24
ENDBRANCH  22  23
ENDBRANCH  21  22
ENDBRANCH  20  21
ENDBRANCH  19  20
ENDBRANCH  18  19
ENDBRANCH  17  18
ENDBRANCH  16  17
ENDBRANCH  15  16
ENDBRANCH  14  15
ENDBRANCH  13  14
ENDBRANCH  12  13
ENDBRANCH  11  12
ENDBRANCH  10  11
ENDBRANCH   9  10
ENDBRANCH   8   9
ENDBRANCH   7   8
ENDBRANCH   6   7
ENDBRANCH   5   6
ENDBRANCH   4   5
ENDBRANCH   3   4
ENDBRANCH   2   3
TORSDOF 37
ENDMDL
MODEL       62
REMARK 921   NORMALIZED FREE ENERGY PREDICTED BY IDOCK:   -3.54 KCAL/MOL
REMARK 922        TOTAL FREE ENERGY PREDICTED BY IDOCK:  -14.81 KCAL/MOL
REMARK 923 INTER-LIGAND FREE ENERGY PREDICTED BY IDOCK:  -11.69 KCAL/MOL
REMARK 924 INTRA-LIGAND FREE ENERGY PREDICTED BY IDOCK:   -3.12 KCAL/MOL
REMARK 927      BINDING AFFINITY PREDICTED BY RF-SCORE:    0.00 PKD
ROOT
HETATM    1  C   UNL     1     -11.153  10.568  70.288  1.00  0.00    -0.359 C  
HETATM    2  C   UNL     1     -12.666  10.671  70.202  1.00  0.00    -0.224 C  
ENDROOT
BRANCH   2   3
HETATM    3  C   UNL     1     -13.290  10.760  71.591  1.00  0.00    -0.390 C  
BRANCH   3   4
HETATM    4  C   UNL     1     -13.299   9.399  72.283  1.00  0.00    -0.539 C  
BRANCH   4   5
HETATM    5  C   UNL     1     -14.171   8.408  71.516  1.00  0.00    -0.471 C  
BRANCH   5   6
HETATM    6  C   UNL     1     -13.561   7.012  71.540  1.00  0.00    -0.355 C  
BRANCH   6   7
HETATM    7  C   UNL     1     -12.091   7.058  71.137  1.00  0.00    -0.412 C  
BRANCH   7   8
HETATM    8  C   UNL     1     -11.283   6.044  71.937  1.00  0.00    -0.338 C  
BRANCH   8   9
HETATM    9  C   UNL     1     -10.814   6.641  73.260  1.00  0.00    -0.290 C  
BRANCH   9  10
HETATM   10  C   UNL     1     -10.053   7.937  73.012  1.00  0.00    -0.384 C  
BRANCH  10  11
HETATM   11  C   UNL     1      -8.698   7.667  72.376  1.00  0.00    -0.170 C  
BRANCH  11  12
HETATM   12  C   UNL     1      -7.954   6.594  73.153  1.00  0.00    -0.105 C  
BRANCH  12  13
HETATM   13  O   UNL     1      -7.555   5.582  72.238  1.00  0.00    -0.097 OA 
BRANCH  13  14
HETATM   14  C   UNL     1      -7.819   5.983  70.898  1.00  0.00    -0.107 C  
BRANCH  14  15
HETATM   15  C   UNL     1      -8.249   4.772  70.088  1.00  0.00    -0.068 C  
BRANCH  15  16
HETATM   16  O   UNL     1      -7.323   4.599  69.022  1.00  0.00    -0.052 OA 
BRANCH  16  17
HETATM   17  C   UNL     1      -7.709   3.524  68.171  1.00  0.00    -0.064 C  
BRANCH  17  18
HETATM   18  C   UNL     1      -9.225   3.420  68.184  1.00  0.00    -0.182 C  
BRANCH  18  19
HETATM   19  O   UNL     1      -9.717   3.698  66.879  1.00  0.00    -0.196 OA 
BRANCH  19  20
HETATM   20  C   UNL     1     -10.295   5.003  66.804  1.00  0.00    -0.244 C  
BRANCH  20  21
HETATM   21  C   UNL     1      -9.292   5.941  66.144  1.00  0.00    -0.132 C  
BRANCH  21  22
HETATM   22  O   UNL     1      -8.859   6.902  67.111  1.00  0.00    -0.118 OA 
BRANCH  22  23
HETATM   23  C   UNL     1      -8.135   7.965  66.502  1.00  0.00    -0.107 C  
BRANCH  23  24
HETATM   24  C   UNL     1      -8.034   7.701  65.008  1.00  0.00    -0.131 C  
BRANCH  24  25
HETATM   25  O   UNL     1      -7.589   8.891  64.362  1.00  0.00    -0.105 OA 
BRANCH  25  26
HETATM   26  C   UNL     1      -8.616   9.457  63.558  1.00  0.00    -0.206 C  
BRANCH  26  27
HETATM   27  C   UNL     1      -9.230  10.634  64.303  1.00  0.00    -0.233 C  
BRANCH  27  28
HETATM   28  O   UNL     1     -10.531  10.887  63.782  1.00  0.00    -0.353 OA 
BRANCH  28  29
HETATM   29  C   UNL     1     -10.712  12.272  63.506  1.00  0.00    -0.451 C  
BRANCH  29  30
HETATM   30  C   UNL     1     -12.200  12.583  63.496  1.00  0.00    -0.558 C  
BRANCH  30  31
HETATM   31  O   UNL     1     -12.379  13.994  63.434  1.00  0.00    -0.748 OA 
BRANCH  31  32
HETATM   32  C   UNL     1     -12.135  14.603  64.700  1.00  0.00    -0.454 C  
BRANCH  32  33
HETATM   33  C   UNL     1     -11.075  15.682  64.534  1.00  0.00    -0.286 C  
BRANCH  33  34
HETATM   34  O   UNL     1     -10.148  15.600  65.613  1.00  0.00    -0.321 OA 
BRANCH  34  35
HETATM   35  C   UNL     1     -10.672  14.828  66.691  1.00  0.00    -0.309 C  
BRANCH  35  36
HETATM   36  C   UNL     1     -10.735  15.701  67.937  1.00  0.00    -0.294 C  
BRANCH  36  37
HETATM   37  O   UNL     1     -12.029  15.598  68.532  1.00  0.00    -0.313 OA 
BRANCH  37  38
HETATM   38  C   UNL     1     -12.160  14.374  69.265  1.00  0.00    -0.299 C  
BRANCH  38  39
HETATM   39  C   UNL     1     -12.607  14.710  70.683  1.00  0.00    -0.357 C  
HETATM   40  O   UNL     1     -13.809  15.477  70.644  1.00  0.00    -0.864 OA 
HETATM   41  H   UNL     1     -14.088  15.686  71.528  1.00  0.00     0.000 HD 
ENDBRANCH  38  39
ENDBRANCH  37  38
ENDBRANCH  36  37
ENDBRANCH  35  36
ENDBRANCH  34  35
ENDBRANCH  33  34
ENDBRANCH  32  33
ENDBRANCH  31  32
ENDBRANCH  30  31
ENDBRANCH  29  30
ENDBRANCH  28  29
ENDBRANCH  27  28
ENDBRANCH  26  27
ENDBRANCH  25  26
ENDBRANCH  24  25
ENDBRANCH  23  24
ENDBRANCH  22  23
ENDBRANCH  21  22
ENDBRANCH  20  21
ENDBRANCH  19  20
ENDBRANCH  18  19
ENDBRANCH  17  18
ENDBRANCH  16  17
ENDBRANCH  15  16
ENDBRANCH  14  15
ENDBRANCH  13  14
ENDBRANCH  12  13
ENDBRANCH  11  12
ENDBRANCH  10  11
ENDBRANCH   9  10
ENDBRANCH   8   9
ENDBRANCH   7   8
ENDBRANCH   6   7
ENDBRANCH   5   6
ENDBRANCH   4   5
ENDBRANCH   3   4
ENDBRANCH   2   3
TORSDOF 37
ENDMDL
MODEL       63
REMARK 921   NORMALIZED FREE ENERGY PREDICTED BY IDOCK:   -3.53 KCAL/MOL
REMARK 922        TOTAL FREE ENERGY PREDICTED BY IDOCK:  -14.79 KCAL/MOL
REMARK 923 INTER-LIGAND FREE ENERGY PREDICTED BY IDOCK:  -11.71 KCAL/MOL
REMARK 924 INTRA-LIGAND FREE ENERGY PREDICTED BY IDOCK:   -3.08 KCAL/MOL
REMARK 927      BINDING AFFINITY PREDICTED BY RF-SCORE:    0.00 PKD
ROOT
HETATM    1  C   UNL     1     -10.778  15.048  64.927  1.00  0.00    -0.420 C  
HETATM    2  C   UNL     1     -11.341  13.641  65.039  1.00  0.00    -0.339 C  
ENDROOT
BRANCH   2   3
HETATM    3  C   UNL     1     -12.264  13.515  66.248  1.00  0.00    -0.468 C  
BRANCH   3   4
HETATM    4  C   UNL     1     -11.580  12.771  67.392  1.00  0.00    -0.415 C  
BRANCH   4   5
HETATM    5  C   UNL     1     -11.038  13.752  68.429  1.00  0.00    -0.287 C  
BRANCH   5   6
HETATM    6  C   UNL     1     -11.887  15.017  68.477  1.00  0.00    -0.319 C  
BRANCH   6   7
HETATM    7  C   UNL     1     -11.287  16.033  69.443  1.00  0.00    -0.355 C  
BRANCH   7   8
HETATM    8  C   UNL     1     -11.061  15.404  70.811  1.00  0.00    -0.371 C  
BRANCH   8   9
HETATM    9  C   UNL     1     -12.077  15.921  71.824  1.00  0.00    -0.567 C  
BRANCH   9  10
HETATM   10  C   UNL     1     -13.420  15.232  71.621  1.00  0.00    -0.573 C  
BRANCH  10  11
HETATM   11  C   UNL     1     -13.522  13.965  72.456  1.00  0.00    -0.676 C  
BRANCH  11  12
HETATM   12  C   UNL     1     -13.050  12.764  71.654  1.00  0.00    -0.331 C  
BRANCH  12  13
HETATM   13  O   UNL     1     -13.481  11.587  72.325  1.00  0.00    -0.368 OA 
BRANCH  13  14
HETATM   14  C   UNL     1     -12.989  10.424  71.668  1.00  0.00    -0.475 C  
BRANCH  14  15
HETATM   15  C   UNL     1     -13.511   9.188  72.378  1.00  0.00    -0.476 C  
BRANCH  15  16
HETATM   16  O   UNL     1     -13.828   8.210  71.395  1.00  0.00    -0.320 OA 
BRANCH  16  17
HETATM   17  C   UNL     1     -13.022   7.046  71.545  1.00  0.00    -0.359 C  
BRANCH  17  18
HETATM   18  C   UNL     1     -12.101   6.939  70.340  1.00  0.00    -0.196 C  
BRANCH  18  19
HETATM   19  O   UNL     1     -11.198   5.860  70.546  1.00  0.00    -0.305 OA 
BRANCH  19  20
HETATM   20  C   UNL     1     -10.419   5.597  69.377  1.00  0.00    -0.297 C  
BRANCH  20  21
HETATM   21  C   UNL     1      -9.675   4.282  69.574  1.00  0.00    -0.201 C  
BRANCH  21  22
HETATM   22  O   UNL     1      -9.913   3.816  70.906  1.00  0.00    -0.168 OA 
BRANCH  22  23
HETATM   23  C   UNL     1      -8.694   3.587  71.603  1.00  0.00    -0.089 C  
BRANCH  23  24
HETATM   24  C   UNL     1      -8.809   4.171  73.003  1.00  0.00    -0.099 C  
BRANCH  24  25
HETATM   25  O   UNL     1     -10.189   4.281  73.341  1.00  0.00    -0.141 OA 
BRANCH  25  26
HETATM   26  C   UNL     1     -10.395   5.254  74.358  1.00  0.00    -0.272 C  
BRANCH  26  27
HETATM   27  C   UNL     1      -9.545   6.477  74.046  1.00  0.00    -0.219 C  
BRANCH  27  28
HETATM   28  O   UNL     1     -10.397   7.553  73.668  1.00  0.00    -0.344 OA 
BRANCH  28  29
HETATM   29  C   UNL     1      -9.759   8.405  72.723  1.00  0.00    -0.228 C  
BRANCH  29  30
HETATM   30  C   UNL     1      -8.388   7.837  72.393  1.00  0.00    -0.126 C  
BRANCH  30  31
HETATM   31  O   UNL     1      -7.476   8.913  72.197  1.00  0.00    -0.328 OA 
BRANCH  31  32
HETATM   32  C   UNL     1      -6.973   8.929  70.864  1.00  0.00    -0.080 C  
BRANCH  32  33
HETATM   33  C   UNL     1      -7.873   9.807  70.007  1.00  0.00    -0.178 C  
BRANCH  33  34
HETATM   34  O   UNL     1      -8.047   9.196  68.731  1.00  0.00    -0.099 OA 
BRANCH  34  35
HETATM   35  C   UNL     1      -9.082   9.833  67.986  1.00  0.00    -0.125 C  
BRANCH  35  36
HETATM   36  C   UNL     1      -9.776   8.794  67.117  1.00  0.00    -0.191 C  
BRANCH  36  37
HETATM   37  O   UNL     1      -9.846   9.261  65.770  1.00  0.00    -0.296 OA 
BRANCH  37  38
HETATM   38  C   UNL     1      -8.736   8.777  65.003  1.00  0.00    -0.148 C  
BRANCH  38  39
HETATM   39  C   UNL     1      -8.537   9.706  63.810  1.00  0.00    -0.208 C  
HETATM   40  O   UNL     1      -9.556  10.704  63.796  1.00  0.00    -0.253 OA 
HETATM   41  H   UNL     1      -9.432  11.283  63.054  1.00  0.00     0.000 HD 
ENDBRANCH  38  39
ENDBRANCH  37  38
ENDBRANCH  36  37
ENDBRANCH  35  36
ENDBRANCH  34  35
ENDBRANCH  33  34
ENDBRANCH  32  33
ENDBRANCH  31  32
ENDBRANCH  30  31
ENDBRANCH  29  30
ENDBRANCH  28  29
ENDBRANCH  27  28
ENDBRANCH  26  27
ENDBRANCH  25  26
ENDBRANCH  24  25
ENDBRANCH  23  24
ENDBRANCH  22  23
ENDBRANCH  21  22
ENDBRANCH  20  21
ENDBRANCH  19  20
ENDBRANCH  18  19
ENDBRANCH  17  18
ENDBRANCH  16  17
ENDBRANCH  15  16
ENDBRANCH  14  15
ENDBRANCH  13  14
ENDBRANCH  12  13
ENDBRANCH  11  12
ENDBRANCH  10  11
ENDBRANCH   9  10
ENDBRANCH   8   9
ENDBRANCH   7   8
ENDBRANCH   6   7
ENDBRANCH   5   6
ENDBRANCH   4   5
ENDBRANCH   3   4
ENDBRANCH   2   3
TORSDOF 37
ENDMDL
MODEL       64
REMARK 921   NORMALIZED FREE ENERGY PREDICTED BY IDOCK:   -3.50 KCAL/MOL
REMARK 922        TOTAL FREE ENERGY PREDICTED BY IDOCK:  -14.70 KCAL/MOL
REMARK 923 INTER-LIGAND FREE ENERGY PREDICTED BY IDOCK:  -11.26 KCAL/MOL
REMARK 924 INTRA-LIGAND FREE ENERGY PREDICTED BY IDOCK:   -3.44 KCAL/MOL
REMARK 927      BINDING AFFINITY PREDICTED BY RF-SCORE:    0.00 PKD
ROOT
HETATM    1  C   UNL     1     -11.648  12.906  69.359  1.00  0.00    -0.363 C  
HETATM    2  C   UNL     1     -11.647  11.449  68.928  1.00  0.00    -0.388 C  
ENDROOT
BRANCH   2   3
HETATM    3  C   UNL     1     -11.626  10.519  70.137  1.00  0.00    -0.408 C  
BRANCH   3   4
HETATM    4  C   UNL     1     -12.736  10.870  71.125  1.00  0.00    -0.530 C  
BRANCH   4   5
HETATM    5  C   UNL     1     -13.583   9.641  71.446  1.00  0.00    -0.343 C  
BRANCH   5   6
HETATM    6  C   UNL     1     -12.797   8.641  72.286  1.00  0.00    -0.438 C  
BRANCH   6   7
HETATM    7  C   UNL     1     -12.737   7.284  71.593  1.00  0.00    -0.410 C  
BRANCH   7   8
HETATM    8  C   UNL     1     -11.456   6.548  71.965  1.00  0.00    -0.342 C  
BRANCH   8   9
HETATM    9  C   UNL     1     -10.823   7.151  73.214  1.00  0.00    -0.378 C  
BRANCH   9  10
HETATM   10  C   UNL     1      -9.341   7.413  72.980  1.00  0.00    -0.225 C  
BRANCH  10  11
HETATM   11  C   UNL     1      -9.133   8.505  71.942  1.00  0.00    -0.314 C  
BRANCH  11  12
HETATM   12  C   UNL     1      -8.245   8.002  70.816  1.00  0.00    -0.113 C  
BRANCH  12  13
HETATM   13  O   UNL     1      -7.893   6.653  71.100  1.00  0.00    -0.099 OA 
BRANCH  13  14
HETATM   14  C   UNL     1      -7.699   5.920  69.895  1.00  0.00    -0.088 C  
BRANCH  14  15
HETATM   15  C   UNL     1      -7.022   6.813  68.870  1.00  0.00    -0.086 C  
BRANCH  15  16
HETATM   16  O   UNL     1      -7.301   6.295  67.575  1.00  0.00    -0.077 OA 
BRANCH  16  17
HETATM   17  C   UNL     1      -7.722   4.936  67.641  1.00  0.00    -0.087 C  
BRANCH  17  18
HETATM   18  C   UNL     1      -8.420   4.584  66.337  1.00  0.00    -0.112 C  
BRANCH  18  19
HETATM   19  O   UNL     1      -9.708   5.186  66.328  1.00  0.00    -0.152 OA 
BRANCH  19  20
HETATM   20  C   UNL     1     -10.362   5.046  67.591  1.00  0.00    -0.068 C  
BRANCH  20  21
HETATM   21  C   UNL     1     -10.987   6.385  67.965  1.00  0.00    -0.311 C  
BRANCH  21  22
HETATM   22  O   UNL     1     -10.788   7.301  66.885  1.00  0.00    -0.355 OA 
BRANCH  22  23
HETATM   23  C   UNL     1     -10.034   8.436  67.296  1.00  0.00    -0.227 C  
BRANCH  23  24
HETATM   24  C   UNL     1      -9.125   8.864  66.154  1.00  0.00    -0.203 C  
BRANCH  24  25
HETATM   25  O   UNL     1      -9.478  10.186  65.758  1.00  0.00    -0.179 OA 
BRANCH  25  26
HETATM   26  C   UNL     1      -8.743  10.596  64.612  1.00  0.00    -0.152 C  
BRANCH  26  27
HETATM   27  C   UNL     1      -9.672  10.588  63.406  1.00  0.00    -0.316 C  
BRANCH  27  28
HETATM   28  O   UNL     1     -10.219  11.891  63.231  1.00  0.00    -0.427 OA 
BRANCH  28  29
HETATM   29  C   UNL     1     -11.466  12.018  63.907  1.00  0.00    -0.435 C  
BRANCH  29  30
HETATM   30  C   UNL     1     -11.378  13.173  64.891  1.00  0.00    -0.309 C  
BRANCH  30  31
HETATM   31  O   UNL     1     -10.225  13.953  64.588  1.00  0.00    -0.417 OA 
BRANCH  31  32
HETATM   32  C   UNL     1     -10.361  15.287  65.072  1.00  0.00    -0.342 C  
BRANCH  32  33
HETATM   33  C   UNL     1     -11.079  15.256  66.414  1.00  0.00    -0.273 C  
BRANCH  33  34
HETATM   34  O   UNL     1     -10.909  16.512  67.065  1.00  0.00    -0.245 OA 
BRANCH  34  35
HETATM   35  C   UNL     1     -10.698  16.348  68.465  1.00  0.00    -0.320 C  
BRANCH  35  36
HETATM   36  C   UNL     1      -9.645  17.347  68.926  1.00  0.00    -0.223 C  
BRANCH  36  37
HETATM   37  O   UNL     1     -10.197  18.664  68.923  1.00  0.00    -0.368 OA 
BRANCH  37  38
HETATM   38  C   UNL     1      -9.392  19.554  68.139  1.00  0.00    -0.350 C  
BRANCH  38  39
HETATM   39  C   UNL     1     -10.279  20.193  67.076  1.00  0.00    -0.419 C  
HETATM   40  O   UNL     1     -10.860  19.180  66.256  1.00  0.00    -0.363 OA 
HETATM   41  H   UNL     1     -11.413  19.578  65.594  1.00  0.00     0.000 HD 
ENDBRANCH  38  39
ENDBRANCH  37  38
ENDBRANCH  36  37
ENDBRANCH  35  36
ENDBRANCH  34  35
ENDBRANCH  33  34
ENDBRANCH  32  33
ENDBRANCH  31  32
ENDBRANCH  30  31
ENDBRANCH  29  30
ENDBRANCH  28  29
ENDBRANCH  27  28
ENDBRANCH  26  27
ENDBRANCH  25  26
ENDBRANCH  24  25
ENDBRANCH  23  24
ENDBRANCH  22  23
ENDBRANCH  21  22
ENDBRANCH  20  21
ENDBRANCH  19  20
ENDBRANCH  18  19
ENDBRANCH  17  18
ENDBRANCH  16  17
ENDBRANCH  15  16
ENDBRANCH  14  15
ENDBRANCH  13  14
ENDBRANCH  12  13
ENDBRANCH  11  12
ENDBRANCH  10  11
ENDBRANCH   9  10
ENDBRANCH   8   9
ENDBRANCH   7   8
ENDBRANCH   6   7
ENDBRANCH   5   6
ENDBRANCH   4   5
ENDBRANCH   3   4
ENDBRANCH   2   3
TORSDOF 37
ENDMDL
MODEL       65
REMARK 921   NORMALIZED FREE ENERGY PREDICTED BY IDOCK:   -3.50 KCAL/MOL
REMARK 922        TOTAL FREE ENERGY PREDICTED BY IDOCK:  -14.70 KCAL/MOL
REMARK 923 INTER-LIGAND FREE ENERGY PREDICTED BY IDOCK:  -11.64 KCAL/MOL
REMARK 924 INTRA-LIGAND FREE ENERGY PREDICTED BY IDOCK:   -3.06 KCAL/MOL
REMARK 927      BINDING AFFINITY PREDICTED BY RF-SCORE:    0.00 PKD
ROOT
HETATM    1  C   UNL     1     -13.083  15.777  73.383  1.00  0.00    -0.690 C  
HETATM    2  C   UNL     1     -13.873  15.102  72.275  1.00  0.00    -0.618 C  
ENDROOT
BRANCH   2   3
HETATM    3  C   UNL     1     -13.368  15.533  70.901  1.00  0.00    -0.414 C  
BRANCH   3   4
HETATM    4  C   UNL     1     -12.566  14.420  70.231  1.00  0.00    -0.380 C  
BRANCH   4   5
HETATM    5  C   UNL     1     -11.548  15.000  69.253  1.00  0.00    -0.338 C  
BRANCH   5   6
HETATM    6  C   UNL     1     -10.863  16.228  69.843  1.00  0.00    -0.352 C  
BRANCH   6   7
HETATM    7  C   UNL     1      -9.363  16.192  69.571  1.00  0.00    -0.096 C  
BRANCH   7   8
HETATM    8  C   UNL     1      -8.995  14.964  68.748  1.00  0.00    -0.188 C  
BRANCH   8   9
HETATM    9  C   UNL     1      -7.568  14.517  69.045  1.00  0.00    -0.124 C  
BRANCH   9  10
HETATM   10  C   UNL     1      -6.581  15.313  68.201  1.00  0.00    -0.133 C  
BRANCH  10  11
HETATM   11  C   UNL     1      -7.140  15.591  66.814  1.00  0.00     0.302 C  
BRANCH  11  12
HETATM   12  C   UNL     1      -7.067  17.076  66.503  1.00  0.00    -0.271 C  
BRANCH  12  13
HETATM   13  O   UNL     1      -8.183  17.413  65.688  1.00  0.00    -0.491 OA 
BRANCH  13  14
HETATM   14  C   UNL     1      -9.147  18.148  66.434  1.00  0.00    -0.241 C  
BRANCH  14  15
HETATM   15  C   UNL     1     -10.522  17.547  66.204  1.00  0.00    -0.288 C  
BRANCH  15  16
HETATM   16  O   UNL     1     -10.466  16.743  65.031  1.00  0.00    -0.675 OA 
BRANCH  16  17
HETATM   17  C   UNL     1     -11.143  15.505  65.220  1.00  0.00    -0.338 C  
BRANCH  17  18
HETATM   18  C   UNL     1     -12.353  15.473  64.300  1.00  0.00     0.004 C  
BRANCH  18  19
HETATM   19  O   UNL     1     -12.493  14.161  63.770  1.00  0.00    -0.791 OA 
BRANCH  19  20
HETATM   20  C   UNL     1     -11.355  13.350  64.069  1.00  0.00    -0.320 C  
BRANCH  20  21
HETATM   21  C   UNL     1     -11.800  11.894  64.139  1.00  0.00    -0.318 C  
BRANCH  21  22
HETATM   22  O   UNL     1     -10.849  11.161  64.917  1.00  0.00    -0.275 OA 
BRANCH  22  23
HETATM   23  C   UNL     1     -10.714  11.706  66.225  1.00  0.00    -0.272 C  
BRANCH  23  24
HETATM   24  C   UNL     1     -11.157  10.665  67.241  1.00  0.00    -0.243 C  
BRANCH  24  25
HETATM   25  O   UNL     1     -12.029  11.285  68.182  1.00  0.00    -0.610 OA 
BRANCH  25  26
HETATM   26  C   UNL     1     -11.643  10.987  69.518  1.00  0.00    -0.313 C  
BRANCH  26  27
HETATM   27  C   UNL     1     -12.893  10.702  70.337  1.00  0.00    -0.207 C  
BRANCH  27  28
HETATM   28  O   UNL     1     -12.509  10.256  71.634  1.00  0.00    -0.389 OA 
BRANCH  28  29
HETATM   29  C   UNL     1     -11.318   9.477  71.576  1.00  0.00    -0.385 C  
BRANCH  29  30
HETATM   30  C   UNL     1     -11.682   8.009  71.739  1.00  0.00    -0.291 C  
BRANCH  30  31
HETATM   31  O   UNL     1     -10.615   7.210  71.238  1.00  0.00    -0.214 OA 
BRANCH  31  32
HETATM   32  C   UNL     1     -10.448   7.391  69.834  1.00  0.00    -0.231 C  
BRANCH  32  33
HETATM   33  C   UNL     1     -10.979   6.163  69.110  1.00  0.00    -0.381 C  
BRANCH  33  34
HETATM   34  O   UNL     1      -9.891   5.465  68.509  1.00  0.00    -0.130 OA 
BRANCH  34  35
HETATM   35  C   UNL     1      -8.807   6.344  68.219  1.00  0.00    -0.115 C  
BRANCH  35  36
HETATM   36  C   UNL     1      -8.007   5.773  67.057  1.00  0.00    -0.102 C  
BRANCH  36  37
HETATM   37  O   UNL     1      -7.899   4.355  67.197  1.00  0.00    -0.095 OA 
BRANCH  37  38
HETATM   38  C   UNL     1      -7.835   3.718  65.914  1.00  0.00    -0.090 C  
BRANCH  38  39
HETATM   39  C   UNL     1      -8.876   2.605  65.879  1.00  0.00    -0.135 C  
HETATM   40  O   UNL     1      -9.675   2.651  67.060  1.00  0.00    -0.402 OA 
HETATM   41  H   UNL     1     -10.324   1.957  67.038  1.00  0.00     0.000 HD 
ENDBRANCH  38  39
ENDBRANCH  37  38
ENDBRANCH  36  37
ENDBRANCH  35  36
ENDBRANCH  34  35
ENDBRANCH  33  34
ENDBRANCH  32  33
ENDBRANCH  31  32
ENDBRANCH  30  31
ENDBRANCH  29  30
ENDBRANCH  28  29
ENDBRANCH  27  28
ENDBRANCH  26  27
ENDBRANCH  25  26
ENDBRANCH  24  25
ENDBRANCH  23  24
ENDBRANCH  22  23
ENDBRANCH  21  22
ENDBRANCH  20  21
ENDBRANCH  19  20
ENDBRANCH  18  19
ENDBRANCH  17  18
ENDBRANCH  16  17
ENDBRANCH  15  16
ENDBRANCH  14  15
ENDBRANCH  13  14
ENDBRANCH  12  13
ENDBRANCH  11  12
ENDBRANCH  10  11
ENDBRANCH   9  10
ENDBRANCH   8   9
ENDBRANCH   7   8
ENDBRANCH   6   7
ENDBRANCH   5   6
ENDBRANCH   4   5
ENDBRANCH   3   4
ENDBRANCH   2   3
TORSDOF 37
ENDMDL
MODEL       66
REMARK 921   NORMALIZED FREE ENERGY PREDICTED BY IDOCK:   -3.50 KCAL/MOL
REMARK 922        TOTAL FREE ENERGY PREDICTED BY IDOCK:  -14.69 KCAL/MOL
REMARK 923 INTER-LIGAND FREE ENERGY PREDICTED BY IDOCK:  -11.24 KCAL/MOL
REMARK 924 INTRA-LIGAND FREE ENERGY PREDICTED BY IDOCK:   -3.45 KCAL/MOL
REMARK 927      BINDING AFFINITY PREDICTED BY RF-SCORE:    0.00 PKD
ROOT
HETATM    1  C   UNL     1     -11.472  15.791  68.954  1.00  0.00    -0.381 C  
HETATM    2  C   UNL     1     -10.243  14.960  68.628  1.00  0.00    -0.236 C  
ENDROOT
BRANCH   2   3
HETATM    3  C   UNL     1      -9.027  15.452  69.407  1.00  0.00    -0.258 C  
BRANCH   3   4
HETATM    4  C   UNL     1      -8.482  16.752  68.820  1.00  0.00    -0.253 C  
BRANCH   4   5
HETATM    5  C   UNL     1      -7.118  16.525  68.174  1.00  0.00    -0.149 C  
BRANCH   5   6
HETATM    6  C   UNL     1      -7.221  16.566  66.654  1.00  0.00    -0.246 C  
BRANCH   6   7
HETATM    7  C   UNL     1      -6.172  17.503  66.067  1.00  0.00    -0.199 C  
BRANCH   7   8
HETATM    8  C   UNL     1      -6.798  18.837  65.681  1.00  0.00    -0.289 C  
BRANCH   8   9
HETATM    9  C   UNL     1      -6.509  19.901  66.734  1.00  0.00    -0.213 C  
BRANCH   9  10
HETATM   10  C   UNL     1      -7.808  20.387  67.362  1.00  0.00    -0.360 C  
BRANCH  10  11
HETATM   11  C   UNL     1      -8.999  20.090  66.464  1.00  0.00    -0.431 C  
BRANCH  11  12
HETATM   12  C   UNL     1     -10.248  19.863  67.299  1.00  0.00    -0.433 C  
BRANCH  12  13
HETATM   13  O   UNL     1     -10.775  18.585  66.967  1.00  0.00    -0.395 OA 
BRANCH  13  14
HETATM   14  C   UNL     1     -10.474  18.252  65.616  1.00  0.00    -0.095 C  
BRANCH  14  15
HETATM   15  C   UNL     1     -10.699  16.765  65.405  1.00  0.00    -0.189 C  
BRANCH  15  16
HETATM   16  O   UNL     1     -11.482  16.597  64.229  1.00  0.00    -1.075 OA 
BRANCH  16  17
HETATM   17  C   UNL     1     -12.137  15.333  64.221  1.00  0.00    -0.208 C  
BRANCH  17  18
HETATM   18  C   UNL     1     -11.522  14.464  65.306  1.00  0.00    -0.350 C  
BRANCH  18  19
HETATM   19  O   UNL     1     -12.499  13.535  65.760  1.00  0.00    -0.457 OA 
BRANCH  19  20
HETATM   20  C   UNL     1     -12.001  12.196  65.732  1.00  0.00    -0.194 C  
BRANCH  20  21
HETATM   21  C   UNL     1     -10.497  12.231  65.972  1.00  0.00    -0.254 C  
BRANCH  21  22
HETATM   22  O   UNL     1     -10.209  11.522  67.181  1.00  0.00    -0.198 OA 
BRANCH  22  23
HETATM   23  C   UNL     1      -9.735  10.207  66.914  1.00  0.00    -0.187 C  
BRANCH  23  24
HETATM   24  C   UNL     1      -8.221  10.246  66.778  1.00  0.00    -0.124 C  
BRANCH  24  25
HETATM   25  O   UNL     1      -7.645   9.535  67.870  1.00  0.00    -0.086 OA 
BRANCH  25  26
HETATM   26  C   UNL     1      -7.754   8.129  67.686  1.00  0.00    -0.102 C  
BRANCH  26  27
HETATM   27  C   UNL     1      -8.205   7.496  68.994  1.00  0.00    -0.128 C  
BRANCH  27  28
HETATM   28  O   UNL     1      -7.824   6.124  69.004  1.00  0.00    -0.097 OA 
BRANCH  28  29
HETATM   29  C   UNL     1      -8.936   5.285  69.295  1.00  0.00    -0.103 C  
BRANCH  29  30
HETATM   30  C   UNL     1      -8.852   4.840  70.747  1.00  0.00    -0.121 C  
BRANCH  30  31
HETATM   31  O   UNL     1     -10.017   5.284  71.435  1.00  0.00    -0.170 OA 
BRANCH  31  32
HETATM   32  C   UNL     1      -9.733   6.414  72.257  1.00  0.00    -0.150 C  
BRANCH  32  33
HETATM   33  C   UNL     1     -11.034   6.930  72.855  1.00  0.00    -0.281 C  
BRANCH  33  34
HETATM   34  O   UNL     1     -12.132   6.387  72.127  1.00  0.00    -0.326 OA 
BRANCH  34  35
HETATM   35  C   UNL     1     -12.740   7.370  71.293  1.00  0.00    -0.331 C  
BRANCH  35  36
HETATM   36  C   UNL     1     -12.841   8.678  72.066  1.00  0.00    -0.379 C  
BRANCH  36  37
HETATM   37  O   UNL     1     -13.719   9.574  71.383  1.00  0.00    -0.345 OA 
BRANCH  37  38
HETATM   38  C   UNL     1     -13.153  10.889  71.312  1.00  0.00    -0.308 C  
BRANCH  38  39
HETATM   39  C   UNL     1     -11.983  10.855  70.335  1.00  0.00    -0.362 C  
HETATM   40  O   UNL     1     -12.464  10.645  69.008  1.00  0.00    -0.777 OA 
HETATM   41  H   UNL     1     -11.735  10.624  68.400  1.00  0.00     0.000 HD 
ENDBRANCH  38  39
ENDBRANCH  37  38
ENDBRANCH  36  37
ENDBRANCH  35  36
ENDBRANCH  34  35
ENDBRANCH  33  34
ENDBRANCH  32  33
ENDBRANCH  31  32
ENDBRANCH  30  31
ENDBRANCH  29  30
ENDBRANCH  28  29
ENDBRANCH  27  28
ENDBRANCH  26  27
ENDBRANCH  25  26
ENDBRANCH  24  25
ENDBRANCH  23  24
ENDBRANCH  22  23
ENDBRANCH  21  22
ENDBRANCH  20  21
ENDBRANCH  19  20
ENDBRANCH  18  19
ENDBRANCH  17  18
ENDBRANCH  16  17
ENDBRANCH  15  16
ENDBRANCH  14  15
ENDBRANCH  13  14
ENDBRANCH  12  13
ENDBRANCH  11  12
ENDBRANCH  10  11
ENDBRANCH   9  10
ENDBRANCH   8   9
ENDBRANCH   7   8
ENDBRANCH   6   7
ENDBRANCH   5   6
ENDBRANCH   4   5
ENDBRANCH   3   4
ENDBRANCH   2   3
TORSDOF 37
ENDMDL
MODEL       67
REMARK 921   NORMALIZED FREE ENERGY PREDICTED BY IDOCK:   -3.49 KCAL/MOL
REMARK 922        TOTAL FREE ENERGY PREDICTED BY IDOCK:  -14.67 KCAL/MOL
REMARK 923 INTER-LIGAND FREE ENERGY PREDICTED BY IDOCK:  -10.65 KCAL/MOL
REMARK 924 INTRA-LIGAND FREE ENERGY PREDICTED BY IDOCK:   -4.02 KCAL/MOL
REMARK 927      BINDING AFFINITY PREDICTED BY RF-SCORE:    0.00 PKD
ROOT
HETATM    1  C   UNL     1      -9.045   8.686  71.842  1.00  0.00    -0.326 C  
HETATM    2  C   UNL     1      -8.657   7.833  73.037  1.00  0.00    -0.218 C  
ENDROOT
BRANCH   2   3
HETATM    3  C   UNL     1      -9.891   7.236  73.708  1.00  0.00    -0.358 C  
BRANCH   3   4
HETATM    4  C   UNL     1     -11.147   7.481  72.874  1.00  0.00    -0.426 C  
BRANCH   4   5
HETATM    5  C   UNL     1     -11.643   6.180  72.247  1.00  0.00    -0.362 C  
BRANCH   5   6
HETATM    6  C   UNL     1     -11.077   4.971  72.983  1.00  0.00    -0.378 C  
BRANCH   6   7
HETATM    7  C   UNL     1     -10.196   4.140  72.056  1.00  0.00    -0.200 C  
BRANCH   7   8
HETATM    8  C   UNL     1     -10.177   4.737  70.655  1.00  0.00    -0.250 C  
BRANCH   8   9
HETATM    9  C   UNL     1      -8.832   4.496  69.977  1.00  0.00    -0.125 C  
BRANCH   9  10
HETATM   10  C   UNL     1      -7.762   5.379  70.604  1.00  0.00    -0.089 C  
BRANCH  10  11
HETATM   11  C   UNL     1      -7.228   6.393  69.603  1.00  0.00    -0.078 C  
BRANCH  11  12
HETATM   12  C   UNL     1      -7.037   5.743  68.244  1.00  0.00    -0.074 C  
BRANCH  12  13
HETATM   13  O   UNL     1      -7.068   6.766  67.256  1.00  0.00    -0.075 OA 
BRANCH  13  14
HETATM   14  C   UNL     1      -7.236   6.207  65.958  1.00  0.00    -0.075 C  
BRANCH  14  15
HETATM   15  C   UNL     1      -8.240   5.070  66.029  1.00  0.00    -0.113 C  
BRANCH  15  16
HETATM   16  O   UNL     1      -9.518   5.583  65.671  1.00  0.00    -0.114 OA 
BRANCH  16  17
HETATM   17  C   UNL     1     -10.515   5.189  66.608  1.00  0.00    -0.275 C  
BRANCH  17  18
HETATM   18  C   UNL     1     -11.042   6.433  67.304  1.00  0.00    -0.330 C  
BRANCH  18  19
HETATM   19  O   UNL     1     -10.594   7.581  66.594  1.00  0.00    -0.268 OA 
BRANCH  19  20
HETATM   20  C   UNL     1     -10.088   8.581  67.481  1.00  0.00    -0.221 C  
BRANCH  20  21
HETATM   21  C   UNL     1      -9.613   9.769  66.653  1.00  0.00    -0.187 C  
BRANCH  21  22
HETATM   22  O   UNL     1      -9.557   9.377  65.279  1.00  0.00    -0.269 OA 
BRANCH  22  23
HETATM   23  C   UNL     1      -9.901  10.454  64.415  1.00  0.00    -0.328 C  
BRANCH  23  24
HETATM   24  C   UNL     1     -10.123  11.705  65.250  1.00  0.00    -0.264 C  
BRANCH  24  25
HETATM   25  O   UNL     1     -10.897  12.630  64.491  1.00  0.00    -0.300 OA 
BRANCH  25  26
HETATM   26  C   UNL     1     -12.083  13.001  65.182  1.00  0.00    -0.433 C  
BRANCH  26  27
HETATM   27  C   UNL     1     -11.902  12.699  66.663  1.00  0.00    -0.380 C  
BRANCH  27  28
HETATM   28  O   UNL     1     -12.319  13.828  67.423  1.00  0.00    -0.312 OA 
BRANCH  28  29
HETATM   29  C   UNL     1     -11.207  14.475  68.033  1.00  0.00    -0.292 C  
BRANCH  29  30
HETATM   30  C   UNL     1     -11.644  15.844  68.529  1.00  0.00    -0.349 C  
BRANCH  30  31
HETATM   31  O   UNL     1     -10.745  16.278  69.544  1.00  0.00    -0.278 OA 
BRANCH  31  32
HETATM   32  C   UNL     1     -10.917  15.527  70.744  1.00  0.00    -0.325 C  
BRANCH  32  33
HETATM   33  C   UNL     1     -12.002  16.182  71.586  1.00  0.00    -0.462 C  
BRANCH  33  34
HETATM   34  O   UNL     1     -12.976  15.204  71.940  1.00  0.00    -0.316 OA 
BRANCH  34  35
HETATM   35  C   UNL     1     -12.476  13.882  71.755  1.00  0.00    -0.198 C  
BRANCH  35  36
HETATM   36  C   UNL     1     -13.501  12.889  72.286  1.00  0.00    -0.531 C  
BRANCH  36  37
HETATM   37  O   UNL     1     -13.651  11.811  71.361  1.00  0.00     0.131 OA 
BRANCH  37  38
HETATM   38  C   UNL     1     -12.851  10.687  71.751  1.00  0.00    -0.444 C  
BRANCH  38  39
HETATM   39  C   UNL     1     -12.073  10.206  70.532  1.00  0.00    -0.291 C  
HETATM   40  O   UNL     1     -11.090  11.174  70.170  1.00  0.00    -0.467 OA 
HETATM   41  H   UNL     1     -10.605  10.874  69.410  1.00  0.00     0.000 HD 
ENDBRANCH  38  39
ENDBRANCH  37  38
ENDBRANCH  36  37
ENDBRANCH  35  36
ENDBRANCH  34  35
ENDBRANCH  33  34
ENDBRANCH  32  33
ENDBRANCH  31  32
ENDBRANCH  30  31
ENDBRANCH  29  30
ENDBRANCH  28  29
ENDBRANCH  27  28
ENDBRANCH  26  27
ENDBRANCH  25  26
ENDBRANCH  24  25
ENDBRANCH  23  24
ENDBRANCH  22  23
ENDBRANCH  21  22
ENDBRANCH  20  21
ENDBRANCH  19  20
ENDBRANCH  18  19
ENDBRANCH  17  18
ENDBRANCH  16  17
ENDBRANCH  15  16
ENDBRANCH  14  15
ENDBRANCH  13  14
ENDBRANCH  12  13
ENDBRANCH  11  12
ENDBRANCH  10  11
ENDBRANCH   9  10
ENDBRANCH   8   9
ENDBRANCH   7   8
ENDBRANCH   6   7
ENDBRANCH   5   6
ENDBRANCH   4   5
ENDBRANCH   3   4
ENDBRANCH   2   3
TORSDOF 37
ENDMDL
MODEL       68
REMARK 921   NORMALIZED FREE ENERGY PREDICTED BY IDOCK:   -3.48 KCAL/MOL
REMARK 922        TOTAL FREE ENERGY PREDICTED BY IDOCK:  -14.64 KCAL/MOL
REMARK 923 INTER-LIGAND FREE ENERGY PREDICTED BY IDOCK:  -12.24 KCAL/MOL
REMARK 924 INTRA-LIGAND FREE ENERGY PREDICTED BY IDOCK:   -2.40 KCAL/MOL
REMARK 927      BINDING AFFINITY PREDICTED BY RF-SCORE:    0.00 PKD
ROOT
HETATM    1  C   UNL     1     -12.530  11.956  63.460  1.00  0.00    -0.609 C  
HETATM    2  C   UNL     1     -11.640  13.187  63.477  1.00  0.00    -0.392 C  
ENDROOT
BRANCH   2   3
HETATM    3  C   UNL     1     -12.272  14.310  64.295  1.00  0.00    -0.451 C  
BRANCH   3   4
HETATM    4  C   UNL     1     -12.253  13.985  65.787  1.00  0.00    -0.475 C  
BRANCH   4   5
HETATM    5  C   UNL     1     -10.905  14.350  66.404  1.00  0.00    -0.314 C  
BRANCH   5   6
HETATM    6  C   UNL     1     -10.125  13.099  66.788  1.00  0.00    -0.253 C  
BRANCH   6   7
HETATM    7  C   UNL     1     -10.828  12.349  67.914  1.00  0.00    -0.253 C  
BRANCH   7   8
HETATM    8  C   UNL     1     -11.239  10.955  67.457  1.00  0.00    -0.364 C  
BRANCH   8   9
HETATM    9  C   UNL     1     -10.606  10.613  66.112  1.00  0.00    -0.211 C  
BRANCH   9  10
HETATM   10  C   UNL     1      -9.702   9.396  66.250  1.00  0.00    -0.330 C  
BRANCH  10  11
HETATM   11  C   UNL     1     -10.353   8.320  67.105  1.00  0.00    -0.387 C  
BRANCH  11  12
HETATM   12  C   UNL     1     -10.063   6.943  66.533  1.00  0.00    -0.070 C  
BRANCH  12  13
HETATM   13  O   UNL     1      -9.966   6.025  67.616  1.00  0.00    -0.120 OA 
BRANCH  13  14
HETATM   14  C   UNL     1      -9.595   4.733  67.148  1.00  0.00    -0.167 C  
BRANCH  14  15
HETATM   15  C   UNL     1      -9.407   3.806  68.336  1.00  0.00    -0.166 C  
BRANCH  15  16
HETATM   16  O   UNL     1      -9.740   4.525  69.518  1.00  0.00    -0.183 OA 
BRANCH  16  17
HETATM   17  C   UNL     1      -8.952   4.097  70.624  1.00  0.00    -0.095 C  
BRANCH  17  18
HETATM   18  C   UNL     1      -9.885   3.632  71.730  1.00  0.00    -0.165 C  
BRANCH  18  19
HETATM   19  O   UNL     1     -10.389   4.771  72.416  1.00  0.00    -0.191 OA 
BRANCH  19  20
HETATM   20  C   UNL     1      -9.451   5.264  73.375  1.00  0.00    -0.137 C  
BRANCH  20  21
HETATM   21  C   UNL     1     -10.208   6.061  74.430  1.00  0.00    -0.294 C  
BRANCH  21  22
HETATM   22  O   UNL     1     -10.552   7.337  73.881  1.00  0.00    -0.344 OA 
BRANCH  22  23
HETATM   23  C   UNL     1      -9.412   8.000  73.348  1.00  0.00    -0.237 C  
BRANCH  23  24
HETATM   24  C   UNL     1      -9.823   8.758  72.095  1.00  0.00    -0.277 C  
BRANCH  24  25
HETATM   25  O   UNL     1     -11.239   8.918  72.100  1.00  0.00    -0.360 OA 
BRANCH  25  26
HETATM   26  C   UNL     1     -11.637  10.022  71.296  1.00  0.00    -0.350 C  
BRANCH  26  27
HETATM   27  C   UNL     1     -13.141  10.206  71.427  1.00  0.00    -0.416 C  
BRANCH  27  28
HETATM   28  O   UNL     1     -13.402  11.329  72.263  1.00  0.00    -0.394 OA 
BRANCH  28  29
HETATM   29  C   UNL     1     -12.791  12.507  71.745  1.00  0.00    -0.242 C  
BRANCH  29  30
HETATM   30  C   UNL     1     -13.644  13.709  72.117  1.00  0.00    -0.538 C  
BRANCH  30  31
HETATM   31  O   UNL     1     -12.968  14.466  73.116  1.00  0.00    -0.520 OA 
BRANCH  31  32
HETATM   32  C   UNL     1     -12.544  15.729  72.610  1.00  0.00    -0.445 C  
BRANCH  32  33
HETATM   33  C   UNL     1     -12.563  15.684  71.089  1.00  0.00    -0.453 C  
BRANCH  33  34
HETATM   34  O   UNL     1     -11.229  15.545  70.607  1.00  0.00    -0.294 OA 
BRANCH  34  35
HETATM   35  C   UNL     1     -10.857  16.646  69.782  1.00  0.00    -0.237 C  
BRANCH  35  36
HETATM   36  C   UNL     1      -9.526  16.333  69.113  1.00  0.00    -0.246 C  
BRANCH  36  37
HETATM   37  O   UNL     1      -9.257  17.301  68.098  1.00  0.00    -0.252 OA 
BRANCH  37  38
HETATM   38  C   UNL     1      -7.961  17.886  68.279  1.00  0.00    -0.291 C  
BRANCH  38  39
HETATM   39  C   UNL     1      -7.189  17.754  66.971  1.00  0.00    -0.182 C  
HETATM   40  O   UNL     1      -8.093  17.503  65.897  1.00  0.00    -0.536 OA 
HETATM   41  H   UNL     1      -7.612  17.421  65.082  1.00  0.00     0.000 HD 
ENDBRANCH  38  39
ENDBRANCH  37  38
ENDBRANCH  36  37
ENDBRANCH  35  36
ENDBRANCH  34  35
ENDBRANCH  33  34
ENDBRANCH  32  33
ENDBRANCH  31  32
ENDBRANCH  30  31
ENDBRANCH  29  30
ENDBRANCH  28  29
ENDBRANCH  27  28
ENDBRANCH  26  27
ENDBRANCH  25  26
ENDBRANCH  24  25
ENDBRANCH  23  24
ENDBRANCH  22  23
ENDBRANCH  21  22
ENDBRANCH  20  21
ENDBRANCH  19  20
ENDBRANCH  18  19
ENDBRANCH  17  18
ENDBRANCH  16  17
ENDBRANCH  15  16
ENDBRANCH  14  15
ENDBRANCH  13  14
ENDBRANCH  12  13
ENDBRANCH  11  12
ENDBRANCH  10  11
ENDBRANCH   9  10
ENDBRANCH   8   9
ENDBRANCH   7   8
ENDBRANCH   6   7
ENDBRANCH   5   6
ENDBRANCH   4   5
ENDBRANCH   3   4
ENDBRANCH   2   3
TORSDOF 37
ENDMDL
MODEL       69
REMARK 921   NORMALIZED FREE ENERGY PREDICTED BY IDOCK:   -3.46 KCAL/MOL
REMARK 922        TOTAL FREE ENERGY PREDICTED BY IDOCK:  -14.55 KCAL/MOL
REMARK 923 INTER-LIGAND FREE ENERGY PREDICTED BY IDOCK:  -11.29 KCAL/MOL
REMARK 924 INTRA-LIGAND FREE ENERGY PREDICTED BY IDOCK:   -3.27 KCAL/MOL
REMARK 927      BINDING AFFINITY PREDICTED BY RF-SCORE:    0.00 PKD
ROOT
HETATM    1  C   UNL     1     -12.980  15.873  73.589  1.00  0.00    -0.685 C  
HETATM    2  C   UNL     1     -13.389  14.635  72.810  1.00  0.00    -0.593 C  
ENDROOT
BRANCH   2   3
HETATM    3  C   UNL     1     -13.435  14.921  71.311  1.00  0.00    -0.500 C  
BRANCH   3   4
HETATM    4  C   UNL     1     -12.621  13.894  70.527  1.00  0.00    -0.382 C  
BRANCH   4   5
HETATM    5  C   UNL     1     -11.658  14.586  69.566  1.00  0.00    -0.350 C  
BRANCH   5   6
HETATM    6  C   UNL     1     -10.941  15.743  70.252  1.00  0.00    -0.368 C  
BRANCH   6   7
HETATM    7  C   UNL     1     -10.196  16.597  69.231  1.00  0.00    -0.291 C  
BRANCH   7   8
HETATM    8  C   UNL     1      -9.098  15.787  68.554  1.00  0.00    -0.194 C  
BRANCH   8   9
HETATM    9  C   UNL     1      -7.768  15.956  69.281  1.00  0.00    -0.222 C  
BRANCH   9  10
HETATM   10  C   UNL     1      -6.659  16.268  68.284  1.00  0.00    -0.130 C  
BRANCH  10  11
HETATM   11  C   UNL     1      -7.225  16.546  66.900  1.00  0.00    -0.263 C  
BRANCH  11  12
HETATM   12  C   UNL     1      -7.147  18.031  66.586  1.00  0.00    -0.211 C  
BRANCH  12  13
HETATM   13  O   UNL     1      -8.276  18.374  65.792  1.00  0.00    -0.494 OA 
BRANCH  13  14
HETATM   14  C   UNL     1      -9.347  18.830  66.611  1.00  0.00    -0.329 C  
BRANCH  14  15
HETATM   15  C   UNL     1     -10.626  18.120  66.205  1.00  0.00    -0.274 C  
BRANCH  15  16
HETATM   16  O   UNL     1     -10.352  17.341  65.045  1.00  0.00    -0.400 OA 
BRANCH  16  17
HETATM   17  C   UNL     1     -10.943  16.049  65.139  1.00  0.00    -0.348 C  
BRANCH  17  18
HETATM   18  C   UNL     1     -12.206  16.035  64.293  1.00  0.00     0.353 C  
BRANCH  18  19
HETATM   19  O   UNL     1     -12.511  14.690  63.944  1.00  0.00    -0.813 OA 
BRANCH  19  20
HETATM   20  C   UNL     1     -11.452  13.802  64.307  1.00  0.00    -0.340 C  
BRANCH  20  21
HETATM   21  C   UNL     1     -11.977  12.372  64.250  1.00  0.00    -0.410 C  
BRANCH  21  22
HETATM   22  O   UNL     1     -11.424  11.726  63.100  1.00  0.00    -0.290 OA 
BRANCH  22  23
HETATM   23  C   UNL     1     -10.003  11.694  63.153  1.00  0.00    -0.375 C  
BRANCH  23  24
HETATM   24  C   UNL     1      -9.566  10.497  63.982  1.00  0.00    -0.311 C  
BRANCH  24  25
HETATM   25  O   UNL     1      -8.569  10.920  64.908  1.00  0.00    -0.137 OA 
BRANCH  25  26
HETATM   26  C   UNL     1      -8.455  10.010  65.995  1.00  0.00    -0.131 C  
BRANCH  26  27
HETATM   27  C   UNL     1      -9.720   9.167  66.064  1.00  0.00    -0.287 C  
BRANCH  27  28
HETATM   28  O   UNL     1     -10.206   9.165  67.402  1.00  0.00    -0.212 OA 
BRANCH  28  29
HETATM   29  C   UNL     1     -10.520  10.485  67.836  1.00  0.00    -0.210 C  
BRANCH  29  30
HETATM   30  C   UNL     1     -11.473  10.402  69.018  1.00  0.00    -0.193 C  
BRANCH  30  31
HETATM   31  O   UNL     1     -11.312   9.138  69.654  1.00  0.00    -0.085 OA 
BRANCH  31  32
HETATM   32  C   UNL     1     -12.214   8.991  70.748  1.00  0.00    -0.076 C  
BRANCH  32  33
HETATM   33  C   UNL     1     -11.439   9.131  72.050  1.00  0.00    -0.281 C  
BRANCH  33  34
HETATM   34  O   UNL     1     -10.124   8.613  71.871  1.00  0.00    -0.270 OA 
BRANCH  34  35
HETATM   35  C   UNL     1      -9.714   7.832  72.990  1.00  0.00    -0.267 C  
BRANCH  35  36
HETATM   36  C   UNL     1      -9.188   6.493  72.492  1.00  0.00    -0.135 C  
BRANCH  36  37
HETATM   37  O   UNL     1     -10.256   5.740  71.917  1.00  0.00    -0.190 OA 
BRANCH  37  38
HETATM   38  C   UNL     1      -9.846   5.128  70.687  1.00  0.00    -0.205 C  
BRANCH  38  39
HETATM   39  C   UNL     1     -10.819   5.553  69.593  1.00  0.00    -0.209 C  
HETATM   40  O   UNL     1     -10.360   6.754  68.975  1.00  0.00    -0.176 OA 
HETATM   41  H   UNL     1     -10.966   7.019  68.293  1.00  0.00     0.000 HD 
ENDBRANCH  38  39
ENDBRANCH  37  38
ENDBRANCH  36  37
ENDBRANCH  35  36
ENDBRANCH  34  35
ENDBRANCH  33  34
ENDBRANCH  32  33
ENDBRANCH  31  32
ENDBRANCH  30  31
ENDBRANCH  29  30
ENDBRANCH  28  29
ENDBRANCH  27  28
ENDBRANCH  26  27
ENDBRANCH  25  26
ENDBRANCH  24  25
ENDBRANCH  23  24
ENDBRANCH  22  23
ENDBRANCH  21  22
ENDBRANCH  20  21
ENDBRANCH  19  20
ENDBRANCH  18  19
ENDBRANCH  17  18
ENDBRANCH  16  17
ENDBRANCH  15  16
ENDBRANCH  14  15
ENDBRANCH  13  14
ENDBRANCH  12  13
ENDBRANCH  11  12
ENDBRANCH  10  11
ENDBRANCH   9  10
ENDBRANCH   8   9
ENDBRANCH   7   8
ENDBRANCH   6   7
ENDBRANCH   5   6
ENDBRANCH   4   5
ENDBRANCH   3   4
ENDBRANCH   2   3
TORSDOF 37
ENDMDL
MODEL       70
REMARK 921   NORMALIZED FREE ENERGY PREDICTED BY IDOCK:   -3.44 KCAL/MOL
REMARK 922        TOTAL FREE ENERGY PREDICTED BY IDOCK:  -14.51 KCAL/MOL
REMARK 923 INTER-LIGAND FREE ENERGY PREDICTED BY IDOCK:  -11.34 KCAL/MOL
REMARK 924 INTRA-LIGAND FREE ENERGY PREDICTED BY IDOCK:   -3.16 KCAL/MOL
REMARK 927      BINDING AFFINITY PREDICTED BY RF-SCORE:    0.00 PKD
ROOT
HETATM    1  C   UNL     1     -10.706  19.612  66.926  1.00  0.00    -0.570 C  
HETATM    2  C   UNL     1      -9.431  19.400  67.725  1.00  0.00    -0.406 C  
ENDROOT
BRANCH   2   3
HETATM    3  C   UNL     1      -8.323  18.827  66.847  1.00  0.00    -0.277 C  
BRANCH   3   4
HETATM    4  C   UNL     1      -7.776  17.524  67.426  1.00  0.00    -0.213 C  
BRANCH   4   5
HETATM    5  C   UNL     1      -8.885  16.484  67.561  1.00  0.00    -0.198 C  
BRANCH   5   6
HETATM    6  C   UNL     1      -9.040  16.037  69.010  1.00  0.00    -0.242 C  
BRANCH   6   7
HETATM    7  C   UNL     1     -10.046  14.896  69.118  1.00  0.00    -0.227 C  
BRANCH   7   8
HETATM    8  C   UNL     1      -9.985  14.008  67.882  1.00  0.00    -0.237 C  
BRANCH   8   9
HETATM    9  C   UNL     1     -11.272  13.204  67.724  1.00  0.00    -0.308 C  
BRANCH   9  10
HETATM   10  C   UNL     1     -12.247  13.944  66.818  1.00  0.00    -0.438 C  
BRANCH  10  11
HETATM   11  C   UNL     1     -11.519  14.641  65.678  1.00  0.00    -0.340 C  
BRANCH  11  12
HETATM   12  C   UNL     1     -12.158  14.284  64.347  1.00  0.00    -0.468 C  
BRANCH  12  13
HETATM   13  O   UNL     1     -12.863  13.059  64.509  1.00  0.00    -0.692 OA 
BRANCH  13  14
HETATM   14  C   UNL     1     -12.549  12.156  63.454  1.00  0.00    -0.463 C  
BRANCH  14  15
HETATM   15  C   UNL     1     -11.067  11.830  63.499  1.00  0.00    -0.422 C  
BRANCH  15  16
HETATM   16  O   UNL     1     -10.767  11.298  64.785  1.00  0.00    -0.310 OA 
BRANCH  16  17
HETATM   17  C   UNL     1      -9.667  10.396  64.728  1.00  0.00    -0.320 C  
BRANCH  17  18
HETATM   18  C   UNL     1      -9.329  10.139  63.268  1.00  0.00    -0.294 C  
BRANCH  18  19
HETATM   19  O   UNL     1      -8.289   9.172  63.200  1.00  0.00    -0.172 OA 
BRANCH  19  20
HETATM   20  C   UNL     1      -7.009   9.789  63.045  1.00  0.00    -0.112 C  
BRANCH  20  21
HETATM   21  C   UNL     1      -6.150   9.436  64.253  1.00  0.00    -0.079 C  
BRANCH  21  22
HETATM   22  O   UNL     1      -6.165  10.539  65.164  1.00  0.00    -0.124 OA 
BRANCH  22  23
HETATM   23  C   UNL     1      -6.375  10.106  66.503  1.00  0.00    -0.074 C  
BRANCH  23  24
HETATM   24  C   UNL     1      -6.760   8.635  66.492  1.00  0.00    -0.071 C  
BRANCH  24  25
HETATM   25  O   UNL     1      -7.906   8.455  67.319  1.00  0.00    -0.096 OA 
BRANCH  25  26
HETATM   26  C   UNL     1      -8.760   7.441  66.805  1.00  0.00    -0.133 C  
BRANCH  26  27
HETATM   27  C   UNL     1      -9.602   6.885  67.945  1.00  0.00    -0.118 C  
BRANCH  27  28
HETATM   28  O   UNL     1      -8.982   5.706  68.449  1.00  0.00    -0.115 OA 
BRANCH  28  29
HETATM   29  C   UNL     1      -9.929   4.870  69.107  1.00  0.00    -0.182 C  
BRANCH  29  30
HETATM   30  C   UNL     1     -10.833   5.734  69.971  1.00  0.00    -0.333 C  
BRANCH  30  31
HETATM   31  O   UNL     1     -10.667   5.357  71.334  1.00  0.00    -0.240 OA 
BRANCH  31  32
HETATM   32  C   UNL     1     -11.653   5.969  72.164  1.00  0.00    -0.293 C  
BRANCH  32  33
HETATM   33  C   UNL     1     -11.844   7.413  71.722  1.00  0.00    -0.294 C  
BRANCH  33  34
HETATM   34  O   UNL     1     -10.945   8.248  72.447  1.00  0.00    -0.323 OA 
BRANCH  34  35
HETATM   35  C   UNL     1     -10.119   9.009  71.570  1.00  0.00    -0.339 C  
BRANCH  35  36
HETATM   36  C   UNL     1     -10.937   9.415  70.351  1.00  0.00    -0.266 C  
BRANCH  36  37
HETATM   37  O   UNL     1     -11.247  10.807  70.421  1.00  0.00    -0.292 OA 
BRANCH  37  38
HETATM   38  C   UNL     1     -12.665  11.013  70.444  1.00  0.00    -0.218 C  
BRANCH  38  39
HETATM   39  C   UNL     1     -13.136  10.943  71.893  1.00  0.00    -0.432 C  
HETATM   40  O   UNL     1     -13.478  12.248  72.357  1.00  0.00    -0.611 OA 
HETATM   41  H   UNL     1     -13.771  12.204  73.259  1.00  0.00     0.000 HD 
ENDBRANCH  38  39
ENDBRANCH  37  38
ENDBRANCH  36  37
ENDBRANCH  35  36
ENDBRANCH  34  35
ENDBRANCH  33  34
ENDBRANCH  32  33
ENDBRANCH  31  32
ENDBRANCH  30  31
ENDBRANCH  29  30
ENDBRANCH  28  29
ENDBRANCH  27  28
ENDBRANCH  26  27
ENDBRANCH  25  26
ENDBRANCH  24  25
ENDBRANCH  23  24
ENDBRANCH  22  23
ENDBRANCH  21  22
ENDBRANCH  20  21
ENDBRANCH  19  20
ENDBRANCH  18  19
ENDBRANCH  17  18
ENDBRANCH  16  17
ENDBRANCH  15  16
ENDBRANCH  14  15
ENDBRANCH  13  14
ENDBRANCH  12  13
ENDBRANCH  11  12
ENDBRANCH  10  11
ENDBRANCH   9  10
ENDBRANCH   8   9
ENDBRANCH   7   8
ENDBRANCH   6   7
ENDBRANCH   5   6
ENDBRANCH   4   5
ENDBRANCH   3   4
ENDBRANCH   2   3
TORSDOF 37
ENDMDL
MODEL       71
REMARK 921   NORMALIZED FREE ENERGY PREDICTED BY IDOCK:   -3.44 KCAL/MOL
REMARK 922        TOTAL FREE ENERGY PREDICTED BY IDOCK:  -14.50 KCAL/MOL
REMARK 923 INTER-LIGAND FREE ENERGY PREDICTED BY IDOCK:  -11.25 KCAL/MOL
REMARK 924 INTRA-LIGAND FREE ENERGY PREDICTED BY IDOCK:   -3.25 KCAL/MOL
REMARK 927      BINDING AFFINITY PREDICTED BY RF-SCORE:    0.00 PKD
ROOT
HETATM    1  C   UNL     1      -9.987  20.150  66.241  1.00  0.00    -0.557 C  
HETATM    2  C   UNL     1      -9.366  18.891  66.821  1.00  0.00    -0.343 C  
ENDROOT
BRANCH   2   3
HETATM    3  C   UNL     1     -10.324  17.707  66.714  1.00  0.00    -0.331 C  
BRANCH   3   4
HETATM    4  C   UNL     1     -10.725  17.194  68.095  1.00  0.00    -0.366 C  
BRANCH   4   5
HETATM    5  C   UNL     1      -9.549  16.501  68.778  1.00  0.00    -0.248 C  
BRANCH   5   6
HETATM    6  C   UNL     1     -10.037  15.488  69.807  1.00  0.00    -0.291 C  
BRANCH   6   7
HETATM    7  C   UNL     1     -11.548  15.589  69.990  1.00  0.00    -0.356 C  
BRANCH   7   8
HETATM    8  C   UNL     1     -12.197  14.217  69.858  1.00  0.00    -0.407 C  
BRANCH   8   9
HETATM    9  C   UNL     1     -11.283  13.250  69.112  1.00  0.00    -0.305 C  
BRANCH   9  10
HETATM   10  C   UNL     1     -11.928  12.824  67.800  1.00  0.00    -0.316 C  
BRANCH  10  11
HETATM   11  C   UNL     1     -11.804  13.914  66.746  1.00  0.00    -0.452 C  
BRANCH  11  12
HETATM   12  C   UNL     1     -10.397  13.936  66.172  1.00  0.00    -0.301 C  
BRANCH  12  13
HETATM   13  O   UNL     1     -10.498  14.087  64.761  1.00  0.00    -0.413 OA 
BRANCH  13  14
HETATM   14  C   UNL     1     -11.763  13.629  64.295  1.00  0.00    -0.403 C  
BRANCH  14  15
HETATM   15  C   UNL     1     -11.554  12.466  63.342  1.00  0.00    -0.462 C  
BRANCH  15  16
HETATM   16  O   UNL     1     -10.154  12.282  63.164  1.00  0.00    -0.375 OA 
BRANCH  16  17
HETATM   17  C   UNL     1      -9.788  10.915  63.320  1.00  0.00    -0.365 C  
BRANCH  17  18
HETATM   18  C   UNL     1      -9.356  10.694  64.761  1.00  0.00    -0.233 C  
BRANCH  18  19
HETATM   19  O   UNL     1     -10.407  10.040  65.461  1.00  0.00    -0.241 OA 
BRANCH  19  20
HETATM   20  C   UNL     1     -10.019   9.702  66.794  1.00  0.00    -0.227 C  
BRANCH  20  21
HETATM   21  C   UNL     1     -10.456   8.271  67.080  1.00  0.00    -0.314 C  
BRANCH  21  22
HETATM   22  O   UNL     1      -9.481   7.377  66.535  1.00  0.00    -0.180 OA 
BRANCH  22  23
HETATM   23  C   UNL     1      -8.896   6.565  67.546  1.00  0.00    -0.112 C  
BRANCH  23  24
HETATM   24  C   UNL     1      -7.540   7.143  67.921  1.00  0.00    -0.111 C  
BRANCH  24  25
HETATM   25  O   UNL     1      -7.639   7.745  69.208  1.00  0.00    -0.094 OA 
BRANCH  25  26
HETATM   26  C   UNL     1      -6.429   7.598  69.941  1.00  0.00    -0.034 C  
BRANCH  26  27
HETATM   27  C   UNL     1      -6.752   7.015  71.309  1.00  0.00    -0.059 C  
BRANCH  27  28
HETATM   28  O   UNL     1      -6.768   5.594  71.217  1.00  0.00    -0.049 OA 
BRANCH  28  29
HETATM   29  C   UNL     1      -7.785   5.038  72.045  1.00  0.00    -0.104 C  
BRANCH  29  30
HETATM   30  C   UNL     1      -7.770   5.747  73.389  1.00  0.00    -0.102 C  
BRANCH  30  31
HETATM   31  O   UNL     1      -8.660   5.078  74.276  1.00  0.00    -0.113 OA 
BRANCH  31  32
HETATM   32  C   UNL     1      -9.962   5.657  74.237  1.00  0.00    -0.236 C  
BRANCH  32  33
HETATM   33  C   UNL     1     -10.979   4.567  73.931  1.00  0.00    -0.255 C  
BRANCH  33  34
HETATM   34  O   UNL     1     -11.910   5.052  72.967  1.00  0.00    -0.269 OA 
BRANCH  34  35
HETATM   35  C   UNL     1     -11.354   6.112  72.193  1.00  0.00    -0.299 C  
BRANCH  35  36
HETATM   36  C   UNL     1     -12.467   7.074  71.802  1.00  0.00    -0.356 C  
BRANCH  36  37
HETATM   37  O   UNL     1     -12.070   8.415  72.094  1.00  0.00    -0.327 OA 
BRANCH  37  38
HETATM   38  C   UNL     1     -13.192   9.305  72.034  1.00  0.00    -0.447 C  
BRANCH  38  39
HETATM   39  C   UNL     1     -12.967  10.283  70.887  1.00  0.00    -0.371 C  
HETATM   40  O   UNL     1     -11.881   9.837  70.075  1.00  0.00    -0.429 OA 
HETATM   41  H   UNL     1     -11.741  10.446  69.360  1.00  0.00     0.000 HD 
ENDBRANCH  38  39
ENDBRANCH  37  38
ENDBRANCH  36  37
ENDBRANCH  35  36
ENDBRANCH  34  35
ENDBRANCH  33  34
ENDBRANCH  32  33
ENDBRANCH  31  32
ENDBRANCH  30  31
ENDBRANCH  29  30
ENDBRANCH  28  29
ENDBRANCH  27  28
ENDBRANCH  26  27
ENDBRANCH  25  26
ENDBRANCH  24  25
ENDBRANCH  23  24
ENDBRANCH  22  23
ENDBRANCH  21  22
ENDBRANCH  20  21
ENDBRANCH  19  20
ENDBRANCH  18  19
ENDBRANCH  17  18
ENDBRANCH  16  17
ENDBRANCH  15  16
ENDBRANCH  14  15
ENDBRANCH  13  14
ENDBRANCH  12  13
ENDBRANCH  11  12
ENDBRANCH  10  11
ENDBRANCH   9  10
ENDBRANCH   8   9
ENDBRANCH   7   8
ENDBRANCH   6   7
ENDBRANCH   5   6
ENDBRANCH   4   5
ENDBRANCH   3   4
ENDBRANCH   2   3
TORSDOF 37
ENDMDL
MODEL       72
REMARK 921   NORMALIZED FREE ENERGY PREDICTED BY IDOCK:   -3.43 KCAL/MOL
REMARK 922        TOTAL FREE ENERGY PREDICTED BY IDOCK:  -14.48 KCAL/MOL
REMARK 923 INTER-LIGAND FREE ENERGY PREDICTED BY IDOCK:  -11.43 KCAL/MOL
REMARK 924 INTRA-LIGAND FREE ENERGY PREDICTED BY IDOCK:   -3.05 KCAL/MOL
REMARK 927      BINDING AFFINITY PREDICTED BY RF-SCORE:    0.00 PKD
ROOT
HETATM    1  C   UNL     1     -10.721  14.999  64.956  1.00  0.00    -0.448 C  
HETATM    2  C   UNL     1     -11.237  13.574  65.063  1.00  0.00    -0.334 C  
ENDROOT
BRANCH   2   3
HETATM    3  C   UNL     1     -12.231  13.435  66.212  1.00  0.00    -0.456 C  
BRANCH   3   4
HETATM    4  C   UNL     1     -11.627  12.649  67.374  1.00  0.00    -0.421 C  
BRANCH   4   5
HETATM    5  C   UNL     1     -11.116  13.593  68.459  1.00  0.00    -0.301 C  
BRANCH   5   6
HETATM    6  C   UNL     1     -11.894  14.904  68.451  1.00  0.00    -0.309 C  
BRANCH   6   7
HETATM    7  C   UNL     1     -11.219  15.938  69.346  1.00  0.00    -0.336 C  
BRANCH   7   8
HETATM    8  C   UNL     1     -11.013  15.382  70.749  1.00  0.00    -0.349 C  
BRANCH   8   9
HETATM    9  C   UNL     1     -12.036  15.960  71.721  1.00  0.00    -0.567 C  
BRANCH   9  10
HETATM   10  C   UNL     1     -13.397  15.313  71.497  1.00  0.00    -0.559 C  
BRANCH  10  11
HETATM   11  C   UNL     1     -13.554  14.055  72.337  1.00  0.00    -0.658 C  
BRANCH  11  12
HETATM   12  C   UNL     1     -13.013  12.849  71.588  1.00  0.00    -0.313 C  
BRANCH  12  13
HETATM   13  O   UNL     1     -13.500  11.676  72.228  1.00  0.00    -0.397 OA 
BRANCH  13  14
HETATM   14  C   UNL     1     -12.952  10.509  71.623  1.00  0.00    -0.476 C  
BRANCH  14  15
HETATM   15  C   UNL     1     -13.532   9.278  72.296  1.00  0.00    -0.482 C  
BRANCH  15  16
HETATM   16  O   UNL     1     -13.798   8.306  71.291  1.00  0.00    -0.264 OA 
BRANCH  16  17
HETATM   17  C   UNL     1     -13.031   7.125  71.498  1.00  0.00    -0.383 C  
BRANCH  17  18
HETATM   18  C   UNL     1     -12.099   6.941  70.311  1.00  0.00    -0.127 C  
BRANCH  18  19
HETATM   19  O   UNL     1     -11.205   5.871  70.588  1.00  0.00    -0.294 OA 
BRANCH  19  20
HETATM   20  C   UNL     1     -10.457   5.498  69.429  1.00  0.00    -0.290 C  
BRANCH  20  21
HETATM   21  C   UNL     1      -9.721   4.197  69.724  1.00  0.00    -0.208 C  
BRANCH  21  22
HETATM   22  O   UNL     1      -9.931   3.852  71.096  1.00  0.00    -0.177 OA 
BRANCH  22  23
HETATM   23  C   UNL     1      -8.698   3.674  71.784  1.00  0.00    -0.094 C  
BRANCH  23  24
HETATM   24  C   UNL     1      -8.786   4.355  73.140  1.00  0.00    -0.107 C  
BRANCH  24  25
HETATM   25  O   UNL     1     -10.158   4.459  73.512  1.00  0.00    -0.138 OA 
BRANCH  25  26
HETATM   26  C   UNL     1     -10.363   5.522  74.435  1.00  0.00    -0.260 C  
BRANCH  26  27
HETATM   27  C   UNL     1      -9.547   6.725  73.987  1.00  0.00    -0.249 C  
BRANCH  27  28
HETATM   28  O   UNL     1     -10.433   7.775  73.612  1.00  0.00    -0.256 OA 
BRANCH  28  29
HETATM   29  C   UNL     1      -9.875   8.568  72.569  1.00  0.00    -0.254 C  
BRANCH  29  30
HETATM   30  C   UNL     1      -8.565   7.942  72.119  1.00  0.00    -0.140 C  
BRANCH  30  31
HETATM   31  O   UNL     1      -7.611   8.975  71.893  1.00  0.00    -0.334 OA 
BRANCH  31  32
HETATM   32  C   UNL     1      -7.278   9.078  70.511  1.00  0.00    -0.081 C  
BRANCH  32  33
HETATM   33  C   UNL     1      -8.273  10.007  69.831  1.00  0.00    -0.159 C  
BRANCH  33  34
HETATM   34  O   UNL     1      -8.553   9.516  68.522  1.00  0.00    -0.118 OA 
BRANCH  34  35
HETATM   35  C   UNL     1      -8.924  10.571  67.639  1.00  0.00    -0.138 C  
BRANCH  35  36
HETATM   36  C   UNL     1      -7.663  11.272  67.151  1.00  0.00    -0.147 C  
BRANCH  36  37
HETATM   37  O   UNL     1      -7.856  12.687  67.183  1.00  0.00    -0.166 OA 
BRANCH  37  38
HETATM   38  C   UNL     1      -6.806  13.330  67.916  1.00  0.00    -0.140 C  
BRANCH  38  39
HETATM   39  C   UNL     1      -7.324  14.674  68.415  1.00  0.00    -0.115 C  
HETATM   40  O   UNL     1      -7.661  14.581  69.799  1.00  0.00    -0.387 OA 
HETATM   41  H   UNL     1      -7.984  15.419  70.109  1.00  0.00     0.000 HD 
ENDBRANCH  38  39
ENDBRANCH  37  38
ENDBRANCH  36  37
ENDBRANCH  35  36
ENDBRANCH  34  35
ENDBRANCH  33  34
ENDBRANCH  32  33
ENDBRANCH  31  32
ENDBRANCH  30  31
ENDBRANCH  29  30
ENDBRANCH  28  29
ENDBRANCH  27  28
ENDBRANCH  26  27
ENDBRANCH  25  26
ENDBRANCH  24  25
ENDBRANCH  23  24
ENDBRANCH  22  23
ENDBRANCH  21  22
ENDBRANCH  20  21
ENDBRANCH  19  20
ENDBRANCH  18  19
ENDBRANCH  17  18
ENDBRANCH  16  17
ENDBRANCH  15  16
ENDBRANCH  14  15
ENDBRANCH  13  14
ENDBRANCH  12  13
ENDBRANCH  11  12
ENDBRANCH  10  11
ENDBRANCH   9  10
ENDBRANCH   8   9
ENDBRANCH   7   8
ENDBRANCH   6   7
ENDBRANCH   5   6
ENDBRANCH   4   5
ENDBRANCH   3   4
ENDBRANCH   2   3
TORSDOF 37
ENDMDL
MODEL       73
REMARK 921   NORMALIZED FREE ENERGY PREDICTED BY IDOCK:   -3.43 KCAL/MOL
REMARK 922        TOTAL FREE ENERGY PREDICTED BY IDOCK:  -14.48 KCAL/MOL
REMARK 923 INTER-LIGAND FREE ENERGY PREDICTED BY IDOCK:  -11.29 KCAL/MOL
REMARK 924 INTRA-LIGAND FREE ENERGY PREDICTED BY IDOCK:   -3.19 KCAL/MOL
REMARK 927      BINDING AFFINITY PREDICTED BY RF-SCORE:    0.00 PKD
ROOT
HETATM    1  C   UNL     1      -9.596   8.967  70.873  1.00  0.00    -0.328 C  
HETATM    2  C   UNL     1      -9.222   8.441  72.248  1.00  0.00    -0.329 C  
ENDROOT
BRANCH   2   3
HETATM    3  C   UNL     1     -10.441   7.870  72.966  1.00  0.00    -0.410 C  
BRANCH   3   4
HETATM    4  C   UNL     1     -11.499   7.398  71.971  1.00  0.00    -0.310 C  
BRANCH   4   5
HETATM    5  C   UNL     1     -11.511   5.875  71.875  1.00  0.00    -0.287 C  
BRANCH   5   6
HETATM    6  C   UNL     1     -10.687   5.252  72.996  1.00  0.00    -0.305 C  
BRANCH   6   7
HETATM    7  C   UNL     1      -9.693   4.240  72.436  1.00  0.00    -0.207 C  
BRANCH   7   8
HETATM    8  C   UNL     1      -9.814   4.150  70.921  1.00  0.00    -0.247 C  
BRANCH   8   9
HETATM    9  C   UNL     1      -8.445   4.248  70.257  1.00  0.00    -0.093 C  
BRANCH   9  10
HETATM   10  C   UNL     1      -7.678   5.443  70.807  1.00  0.00    -0.090 C  
BRANCH  10  11
HETATM   11  C   UNL     1      -7.070   6.272  69.686  1.00  0.00    -0.073 C  
BRANCH  11  12
HETATM   12  C   UNL     1      -7.016   5.464  68.401  1.00  0.00    -0.061 C  
BRANCH  12  13
HETATM   13  O   UNL     1      -7.053   6.371  67.306  1.00  0.00    -0.069 OA 
BRANCH  13  14
HETATM   14  C   UNL     1      -7.181   5.668  66.075  1.00  0.00    -0.073 C  
BRANCH  14  15
HETATM   15  C   UNL     1      -8.317   4.667  66.186  1.00  0.00    -0.110 C  
BRANCH  15  16
HETATM   16  O   UNL     1      -9.544   5.365  66.000  1.00  0.00    -0.158 OA 
BRANCH  16  17
HETATM   17  C   UNL     1     -10.367   5.280  67.158  1.00  0.00    -0.216 C  
BRANCH  17  18
HETATM   18  C   UNL     1     -10.467   6.664  67.780  1.00  0.00    -0.225 C  
BRANCH  18  19
HETATM   19  O   UNL     1     -10.449   7.637  66.744  1.00  0.00    -0.314 OA 
BRANCH  19  20
HETATM   20  C   UNL     1      -9.677   8.782  67.112  1.00  0.00    -0.191 C  
BRANCH  20  21
HETATM   21  C   UNL     1      -9.909   9.877  66.079  1.00  0.00    -0.264 C  
BRANCH  21  22
HETATM   22  O   UNL     1      -9.149   9.570  64.907  1.00  0.00    -0.212 OA 
BRANCH  22  23
HETATM   23  C   UNL     1      -9.480  10.437  63.828  1.00  0.00    -0.305 C  
BRANCH  23  24
HETATM   24  C   UNL     1     -10.539  11.423  64.295  1.00  0.00    -0.355 C  
BRANCH  24  25
HETATM   25  O   UNL     1     -11.031  12.136  63.163  1.00  0.00    -0.363 OA 
BRANCH  25  26
HETATM   26  C   UNL     1     -12.379  12.545  63.357  1.00  0.00    -0.477 C  
BRANCH  26  27
HETATM   27  C   UNL     1     -12.615  12.769  64.843  1.00  0.00    -0.470 C  
BRANCH  27  28
HETATM   28  O   UNL     1     -12.739  14.166  65.090  1.00  0.00    -0.616 OA 
BRANCH  28  29
HETATM   29  C   UNL     1     -11.627  14.657  65.832  1.00  0.00    -0.327 C  
BRANCH  29  30
HETATM   30  C   UNL     1     -10.591  15.205  64.864  1.00  0.00    -0.365 C  
BRANCH  30  31
HETATM   31  O   UNL     1     -10.714  16.622  64.808  1.00  0.00    -0.721 OA 
BRANCH  31  32
HETATM   32  C   UNL     1     -10.598  17.204  66.104  1.00  0.00    -0.201 C  
BRANCH  32  33
HETATM   33  C   UNL     1     -10.581  18.720  65.967  1.00  0.00    -0.386 C  
BRANCH  33  34
HETATM   34  O   UNL     1      -9.249  19.192  66.150  1.00  0.00    -0.398 OA 
BRANCH  34  35
HETATM   35  C   UNL     1      -9.094  19.835  67.412  1.00  0.00    -0.330 C  
BRANCH  35  36
HETATM   36  C   UNL     1      -8.728  18.789  68.456  1.00  0.00    -0.346 C  
BRANCH  36  37
HETATM   37  O   UNL     1      -7.747  17.899  67.922  1.00  0.00    -0.215 OA 
BRANCH  37  38
HETATM   38  C   UNL     1      -7.426  16.868  68.865  1.00  0.00    -0.238 C  
BRANCH  38  39
HETATM   39  C   UNL     1      -8.595  15.890  68.922  1.00  0.00    -0.221 C  
HETATM   40  O   UNL     1      -8.178  14.671  69.535  1.00  0.00    -0.380 OA 
HETATM   41  H   UNL     1      -8.906  14.062  69.571  1.00  0.00     0.000 HD 
ENDBRANCH  38  39
ENDBRANCH  37  38
ENDBRANCH  36  37
ENDBRANCH  35  36
ENDBRANCH  34  35
ENDBRANCH  33  34
ENDBRANCH  32  33
ENDBRANCH  31  32
ENDBRANCH  30  31
ENDBRANCH  29  30
ENDBRANCH  28  29
ENDBRANCH  27  28
ENDBRANCH  26  27
ENDBRANCH  25  26
ENDBRANCH  24  25
ENDBRANCH  23  24
ENDBRANCH  22  23
ENDBRANCH  21  22
ENDBRANCH  20  21
ENDBRANCH  19  20
ENDBRANCH  18  19
ENDBRANCH  17  18
ENDBRANCH  16  17
ENDBRANCH  15  16
ENDBRANCH  14  15
ENDBRANCH  13  14
ENDBRANCH  12  13
ENDBRANCH  11  12
ENDBRANCH  10  11
ENDBRANCH   9  10
ENDBRANCH   8   9
ENDBRANCH   7   8
ENDBRANCH   6   7
ENDBRANCH   5   6
ENDBRANCH   4   5
ENDBRANCH   3   4
ENDBRANCH   2   3
TORSDOF 37
ENDMDL
MODEL       74
REMARK 921   NORMALIZED FREE ENERGY PREDICTED BY IDOCK:   -3.42 KCAL/MOL
REMARK 922        TOTAL FREE ENERGY PREDICTED BY IDOCK:  -14.43 KCAL/MOL
REMARK 923 INTER-LIGAND FREE ENERGY PREDICTED BY IDOCK:  -11.23 KCAL/MOL
REMARK 924 INTRA-LIGAND FREE ENERGY PREDICTED BY IDOCK:   -3.20 KCAL/MOL
REMARK 927      BINDING AFFINITY PREDICTED BY RF-SCORE:    0.00 PKD
ROOT
HETATM    1  C   UNL     1      -6.345  19.963  70.115  1.00  0.00    -0.360 C  
HETATM    2  C   UNL     1      -5.719  19.578  68.786  1.00  0.00    -0.239 C  
ENDROOT
BRANCH   2   3
HETATM    3  C   UNL     1      -6.013  18.120  68.443  1.00  0.00    -0.180 C  
BRANCH   3   4
HETATM    4  C   UNL     1      -5.888  17.869  66.941  1.00  0.00    -0.175 C  
BRANCH   4   5
HETATM    5  C   UNL     1      -7.176  17.267  66.385  1.00  0.00    -0.327 C  
BRANCH   5   6
HETATM    6  C   UNL     1      -8.343  18.235  66.543  1.00  0.00    -0.287 C  
BRANCH   6   7
HETATM    7  C   UNL     1      -9.621  17.484  66.903  1.00  0.00    -0.279 C  
BRANCH   7   8
HETATM    8  C   UNL     1     -10.454  17.216  65.657  1.00  0.00    -0.208 C  
BRANCH   8   9
HETATM    9  C   UNL     1     -10.706  15.722  65.480  1.00  0.00    -0.397 C  
BRANCH   9  10
HETATM   10  C   UNL     1     -10.848  15.048  66.838  1.00  0.00    -0.315 C  
BRANCH  10  11
HETATM   11  C   UNL     1     -12.156  14.279  66.938  1.00  0.00    -0.440 C  
BRANCH  11  12
HETATM   12  C   UNL     1     -12.726  14.023  65.553  1.00  0.00    -0.486 C  
BRANCH  12  13
HETATM   13  O   UNL     1     -12.611  12.632  65.279  1.00  0.00    -0.630 OA 
BRANCH  13  14
HETATM   14  C   UNL     1     -12.161  12.419  63.945  1.00  0.00    -0.513 C  
BRANCH  14  15
HETATM   15  C   UNL     1     -10.643  12.400  63.927  1.00  0.00    -0.437 C  
BRANCH  15  16
HETATM   16  O   UNL     1     -10.193  11.695  65.078  1.00  0.00    -0.252 OA 
BRANCH  16  17
HETATM   17  C   UNL     1      -9.934  10.328  64.780  1.00  0.00    -0.321 C  
BRANCH  17  18
HETATM   18  C   UNL     1      -8.485  10.197  64.337  1.00  0.00    -0.175 C  
BRANCH  18  19
HETATM   19  O   UNL     1      -8.077   8.844  64.491  1.00  0.00    -0.133 OA 
BRANCH  19  20
HETATM   20  C   UNL     1      -8.541   8.293  65.725  1.00  0.00    -0.161 C  
BRANCH  20  21
HETATM   21  C   UNL     1      -8.332   6.784  65.693  1.00  0.00    -0.147 C  
BRANCH  21  22
HETATM   22  O   UNL     1      -8.016   6.337  67.015  1.00  0.00    -0.106 OA 
BRANCH  22  23
HETATM   23  C   UNL     1      -8.456   7.266  67.999  1.00  0.00    -0.123 C  
BRANCH  23  24
HETATM   24  C   UNL     1      -9.278   6.527  69.043  1.00  0.00    -0.130 C  
BRANCH  24  25
HETATM   25  O   UNL     1     -10.625   6.988  68.976  1.00  0.00    -0.206 OA 
BRANCH  25  26
HETATM   26  C   UNL     1     -11.473   6.231  69.830  1.00  0.00    -0.389 C  
BRANCH  26  27
HETATM   27  C   UNL     1     -11.041   6.455  71.272  1.00  0.00    -0.282 C  
BRANCH  27  28
HETATM   28  O   UNL     1     -12.158   6.914  72.027  1.00  0.00    -0.304 OA 
BRANCH  28  29
HETATM   29  C   UNL     1     -12.012   8.287  72.376  1.00  0.00    -0.384 C  
BRANCH  29  30
HETATM   30  C   UNL     1     -13.372   8.963  72.296  1.00  0.00    -0.449 C  
BRANCH  30  31
HETATM   31  O   UNL     1     -13.459   9.683  71.070  1.00  0.00    -0.328 OA 
BRANCH  31  32
HETATM   32  C   UNL     1     -12.702  10.889  71.123  1.00  0.00    -0.429 C  
BRANCH  32  33
HETATM   33  C   UNL     1     -12.169  11.200  69.733  1.00  0.00    -0.300 C  
BRANCH  33  34
HETATM   34  O   UNL     1     -10.870  10.631  69.590  1.00  0.00    -0.246 OA 
BRANCH  34  35
HETATM   35  C   UNL     1     -10.119  11.294  68.577  1.00  0.00    -0.204 C  
BRANCH  35  36
HETATM   36  C   UNL     1      -8.673  10.823  68.646  1.00  0.00    -0.152 C  
BRANCH  36  37
HETATM   37  O   UNL     1      -7.884  11.548  67.702  1.00  0.00    -0.114 OA 
BRANCH  37  38
HETATM   38  C   UNL     1      -8.219  12.942  67.720  1.00  0.00    -0.174 C  
BRANCH  38  39
HETATM   39  C   UNL     1      -7.027  13.714  68.274  1.00  0.00    -0.109 C  
HETATM   40  O   UNL     1      -7.305  14.146  69.606  1.00  0.00    -0.342 OA 
HETATM   41  H   UNL     1      -6.562  14.626  69.951  1.00  0.00     0.000 HD 
ENDBRANCH  38  39
ENDBRANCH  37  38
ENDBRANCH  36  37
ENDBRANCH  35  36
ENDBRANCH  34  35
ENDBRANCH  33  34
ENDBRANCH  32  33
ENDBRANCH  31  32
ENDBRANCH  30  31
ENDBRANCH  29  30
ENDBRANCH  28  29
ENDBRANCH  27  28
ENDBRANCH  26  27
ENDBRANCH  25  26
ENDBRANCH  24  25
ENDBRANCH  23  24
ENDBRANCH  22  23
ENDBRANCH  21  22
ENDBRANCH  20  21
ENDBRANCH  19  20
ENDBRANCH  18  19
ENDBRANCH  17  18
ENDBRANCH  16  17
ENDBRANCH  15  16
ENDBRANCH  14  15
ENDBRANCH  13  14
ENDBRANCH  12  13
ENDBRANCH  11  12
ENDBRANCH  10  11
ENDBRANCH   9  10
ENDBRANCH   8   9
ENDBRANCH   7   8
ENDBRANCH   6   7
ENDBRANCH   5   6
ENDBRANCH   4   5
ENDBRANCH   3   4
ENDBRANCH   2   3
TORSDOF 37
ENDMDL
MODEL       75
REMARK 921   NORMALIZED FREE ENERGY PREDICTED BY IDOCK:   -3.42 KCAL/MOL
REMARK 922        TOTAL FREE ENERGY PREDICTED BY IDOCK:  -14.43 KCAL/MOL
REMARK 923 INTER-LIGAND FREE ENERGY PREDICTED BY IDOCK:  -11.22 KCAL/MOL
REMARK 924 INTRA-LIGAND FREE ENERGY PREDICTED BY IDOCK:   -3.21 KCAL/MOL
REMARK 927      BINDING AFFINITY PREDICTED BY RF-SCORE:    0.00 PKD
ROOT
HETATM    1  C   UNL     1     -10.560  19.543  67.650  1.00  0.00    -0.566 C  
HETATM    2  C   UNL     1      -9.519  19.932  66.614  1.00  0.00    -0.513 C  
ENDROOT
BRANCH   2   3
HETATM    3  C   UNL     1      -8.192  20.290  67.278  1.00  0.00    -0.393 C  
BRANCH   3   4
HETATM    4  C   UNL     1      -7.120  19.247  66.970  1.00  0.00    -0.216 C  
BRANCH   4   5
HETATM    5  C   UNL     1      -6.805  18.412  68.208  1.00  0.00    -0.245 C  
BRANCH   5   6
HETATM    6  C   UNL     1      -7.006  16.927  67.931  1.00  0.00    -0.158 C  
BRANCH   6   7
HETATM    7  C   UNL     1      -8.330  16.443  68.514  1.00  0.00    -0.202 C  
BRANCH   7   8
HETATM    8  C   UNL     1      -9.071  15.569  67.511  1.00  0.00    -0.198 C  
BRANCH   8   9
HETATM    9  C   UNL     1      -9.102  16.224  66.134  1.00  0.00    -0.377 C  
BRANCH   9  10
HETATM   10  C   UNL     1     -10.506  16.148  65.547  1.00  0.00    -0.407 C  
BRANCH  10  11
HETATM   11  C   UNL     1     -10.734  14.821  64.838  1.00  0.00    -0.438 C  
BRANCH  11  12
HETATM   12  C   UNL     1     -12.208  14.642  64.515  1.00  0.00    -0.456 C  
BRANCH  12  13
HETATM   13  O   UNL     1     -12.716  13.597  65.335  1.00  0.00    -0.547 OA 
BRANCH  13  14
HETATM   14  C   UNL     1     -11.708  12.626  65.595  1.00  0.00    -0.412 C  
BRANCH  14  15
HETATM   15  C   UNL     1     -11.778  12.211  67.054  1.00  0.00    -0.303 C  
BRANCH  15  16
HETATM   16  O   UNL     1     -12.070  13.366  67.832  1.00  0.00    -0.338 OA 
BRANCH  16  17
HETATM   17  C   UNL     1     -11.870  13.119  69.219  1.00  0.00    -0.323 C  
BRANCH  17  18
HETATM   18  C   UNL     1     -12.072  11.635  69.479  1.00  0.00    -0.270 C  
BRANCH  18  19
HETATM   19  O   UNL     1     -11.819  11.369  70.853  1.00  0.00    -0.258 OA 
BRANCH  19  20
HETATM   20  C   UNL     1     -13.032  11.171  71.581  1.00  0.00    -0.443 C  
BRANCH  20  21
HETATM   21  C   UNL     1     -13.079   9.726  72.062  1.00  0.00    -0.452 C  
BRANCH  21  22
HETATM   22  O   UNL     1     -11.775   9.155  71.927  1.00  0.00    -0.357 OA 
BRANCH  22  23
HETATM   23  C   UNL     1     -11.803   7.743  72.092  1.00  0.00    -0.324 C  
BRANCH  23  24
HETATM   24  C   UNL     1     -10.897   7.362  73.253  1.00  0.00    -0.368 C  
BRANCH  24  25
HETATM   25  O   UNL     1     -10.705   5.950  73.241  1.00  0.00    -0.238 OA 
BRANCH  25  26
HETATM   26  C   UNL     1      -9.550   5.593  72.493  1.00  0.00    -0.151 C  
BRANCH  26  27
HETATM   27  C   UNL     1      -9.847   4.323  71.709  1.00  0.00    -0.180 C  
BRANCH  27  28
HETATM   28  O   UNL     1      -9.105   4.342  70.493  1.00  0.00    -0.099 OA 
BRANCH  28  29
HETATM   29  C   UNL     1      -9.505   3.281  69.632  1.00  0.00    -0.139 C  
BRANCH  29  30
HETATM   30  C   UNL     1      -8.707   3.367  68.341  1.00  0.00    -0.102 C  
BRANCH  30  31
HETATM   31  O   UNL     1      -9.607   3.336  67.237  1.00  0.00    -0.193 OA 
BRANCH  31  32
HETATM   32  C   UNL     1      -9.269   4.323  66.266  1.00  0.00    -0.146 C  
BRANCH  32  33
HETATM   33  C   UNL     1     -10.033   5.603  66.575  1.00  0.00    -0.176 C  
BRANCH  33  34
HETATM   34  O   UNL     1      -9.246   6.725  66.185  1.00  0.00    -0.154 OA 
BRANCH  34  35
HETATM   35  C   UNL     1      -9.351   7.787  67.129  1.00  0.00    -0.150 C  
BRANCH  35  36
HETATM   36  C   UNL     1      -8.797   7.316  68.466  1.00  0.00    -0.129 C  
BRANCH  36  37
HETATM   37  O   UNL     1      -9.584   7.853  69.530  1.00  0.00    -0.160 OA 
BRANCH  37  38
HETATM   38  C   UNL     1      -9.090   9.137  69.933  1.00  0.00    -0.178 C  
BRANCH  38  39
HETATM   39  C   UNL     1      -8.281   8.959  71.212  1.00  0.00    -0.157 C  
HETATM   40  O   UNL     1      -7.034   9.642  71.097  1.00  0.00    -0.304 OA 
HETATM   41  H   UNL     1      -6.530   9.532  71.895  1.00  0.00     0.000 HD 
ENDBRANCH  38  39
ENDBRANCH  37  38
ENDBRANCH  36  37
ENDBRANCH  35  36
ENDBRANCH  34  35
ENDBRANCH  33  34
ENDBRANCH  32  33
ENDBRANCH  31  32
ENDBRANCH  30  31
ENDBRANCH  29  30
ENDBRANCH  28  29
ENDBRANCH  27  28
ENDBRANCH  26  27
ENDBRANCH  25  26
ENDBRANCH  24  25
ENDBRANCH  23  24
ENDBRANCH  22  23
ENDBRANCH  21  22
ENDBRANCH  20  21
ENDBRANCH  19  20
ENDBRANCH  18  19
ENDBRANCH  17  18
ENDBRANCH  16  17
ENDBRANCH  15  16
ENDBRANCH  14  15
ENDBRANCH  13  14
ENDBRANCH  12  13
ENDBRANCH  11  12
ENDBRANCH  10  11
ENDBRANCH   9  10
ENDBRANCH   8   9
ENDBRANCH   7   8
ENDBRANCH   6   7
ENDBRANCH   5   6
ENDBRANCH   4   5
ENDBRANCH   3   4
ENDBRANCH   2   3
TORSDOF 37
ENDMDL
MODEL       76
REMARK 921   NORMALIZED FREE ENERGY PREDICTED BY IDOCK:   -3.41 KCAL/MOL
REMARK 922        TOTAL FREE ENERGY PREDICTED BY IDOCK:  -14.40 KCAL/MOL
REMARK 923 INTER-LIGAND FREE ENERGY PREDICTED BY IDOCK:  -11.18 KCAL/MOL
REMARK 924 INTRA-LIGAND FREE ENERGY PREDICTED BY IDOCK:   -3.21 KCAL/MOL
REMARK 927      BINDING AFFINITY PREDICTED BY RF-SCORE:    0.00 PKD
ROOT
HETATM    1  C   UNL     1      -7.084   4.622  65.273  1.00  0.00    -0.063 C  
HETATM    2  C   UNL     1      -8.241   5.456  65.794  1.00  0.00    -0.121 C  
ENDROOT
BRANCH   2   3
HETATM    3  C   UNL     1      -9.303   4.575  66.446  1.00  0.00    -0.152 C  
BRANCH   3   4
HETATM    4  C   UNL     1     -10.686   5.215  66.353  1.00  0.00    -0.275 C  
BRANCH   4   5
HETATM    5  C   UNL     1     -10.649   6.659  66.847  1.00  0.00    -0.376 C  
BRANCH   5   6
HETATM    6  C   UNL     1     -10.873   6.725  68.353  1.00  0.00    -0.284 C  
BRANCH   6   7
HETATM    7  C   UNL     1      -9.623   7.235  69.062  1.00  0.00    -0.147 C  
BRANCH   7   8
HETATM    8  C   UNL     1      -9.329   6.397  70.300  1.00  0.00    -0.165 C  
BRANCH   8   9
HETATM    9  C   UNL     1     -10.498   5.473  70.624  1.00  0.00    -0.342 C  
BRANCH   9  10
HETATM   10  C   UNL     1     -11.016   5.753  72.029  1.00  0.00    -0.317 C  
BRANCH  10  11
HETATM   11  C   UNL     1     -11.448   7.203  72.179  1.00  0.00    -0.306 C  
BRANCH  11  12
HETATM   12  C   UNL     1     -12.763   7.440  71.456  1.00  0.00    -0.372 C  
BRANCH  12  13
HETATM   13  O   UNL     1     -12.762   8.774  70.962  1.00  0.00    -0.193 OA 
BRANCH  13  14
HETATM   14  C   UNL     1     -13.250   9.676  71.949  1.00  0.00    -0.446 C  
BRANCH  14  15
HETATM   15  C   UNL     1     -12.942  11.100  71.522  1.00  0.00    -0.437 C  
BRANCH  15  16
HETATM   16  O   UNL     1     -11.691  11.100  70.842  1.00  0.00    -0.246 OA 
BRANCH  16  17
HETATM   17  C   UNL     1     -11.717  11.965  69.712  1.00  0.00    -0.331 C  
BRANCH  17  18
HETATM   18  C   UNL     1     -11.635  11.117  68.453  1.00  0.00    -0.306 C  
BRANCH  18  19
HETATM   19  O   UNL     1     -10.670  11.685  67.577  1.00  0.00    -0.198 OA 
BRANCH  19  20
HETATM   20  C   UNL     1      -9.453  10.934  67.580  1.00  0.00    -0.159 C  
BRANCH  20  21
HETATM   21  C   UNL     1      -8.320  11.844  67.124  1.00  0.00    -0.174 C  
BRANCH  21  22
HETATM   22  O   UNL     1      -7.398  11.073  66.348  1.00  0.00    -0.142 OA 
BRANCH  22  23
HETATM   23  C   UNL     1      -7.881   9.755  66.121  1.00  0.00    -0.107 C  
BRANCH  23  24
HETATM   24  C   UNL     1      -7.367   9.265  64.776  1.00  0.00    -0.103 C  
BRANCH  24  25
HETATM   25  O   UNL     1      -7.788  10.177  63.765  1.00  0.00    -0.152 OA 
BRANCH  25  26
HETATM   26  C   UNL     1      -8.984   9.733  63.136  1.00  0.00    -0.251 C  
BRANCH  26  27
HETATM   27  C   UNL     1      -9.911  10.926  62.950  1.00  0.00    -0.277 C  
BRANCH  27  28
HETATM   28  O   UNL     1     -10.281  11.432  64.228  1.00  0.00    -0.264 OA 
BRANCH  28  29
HETATM   29  C   UNL     1     -10.435  12.847  64.195  1.00  0.00    -0.406 C  
BRANCH  29  30
HETATM   30  C   UNL     1     -11.821  13.204  64.707  1.00  0.00    -0.369 C  
BRANCH  30  31
HETATM   31  O   UNL     1     -11.844  14.585  65.055  1.00  0.00    -0.372 OA 
BRANCH  31  32
HETATM   32  C   UNL     1     -10.905  14.874  66.088  1.00  0.00    -0.327 C  
BRANCH  32  33
HETATM   33  C   UNL     1     -10.417  16.307  65.926  1.00  0.00    -0.345 C  
BRANCH  33  34
HETATM   34  O   UNL     1     -10.125  16.850  67.211  1.00  0.00    -0.272 OA 
BRANCH  34  35
HETATM   35  C   UNL     1     -10.742  18.122  67.390  1.00  0.00    -0.335 C  
BRANCH  35  36
HETATM   36  C   UNL     1     -10.011  18.874  68.494  1.00  0.00    -0.406 C  
BRANCH  36  37
HETATM   37  O   UNL     1      -9.728  20.206  68.064  1.00  0.00    -0.367 OA 
BRANCH  37  38
HETATM   38  C   UNL     1      -9.609  20.268  66.637  1.00  0.00    -0.388 C  
BRANCH  38  39
HETATM   39  C   UNL     1      -8.127  20.330  66.282  1.00  0.00    -0.155 C  
HETATM   40  O   UNL     1      -7.464  21.266  67.131  1.00  0.00    -0.736 OA 
HETATM   41  H   UNL     1      -6.541  21.304  66.910  1.00  0.00     0.000 HD 
ENDBRANCH  38  39
ENDBRANCH  37  38
ENDBRANCH  36  37
ENDBRANCH  35  36
ENDBRANCH  34  35
ENDBRANCH  33  34
ENDBRANCH  32  33
ENDBRANCH  31  32
ENDBRANCH  30  31
ENDBRANCH  29  30
ENDBRANCH  28  29
ENDBRANCH  27  28
ENDBRANCH  26  27
ENDBRANCH  25  26
ENDBRANCH  24  25
ENDBRANCH  23  24
ENDBRANCH  22  23
ENDBRANCH  21  22
ENDBRANCH  20  21
ENDBRANCH  19  20
ENDBRANCH  18  19
ENDBRANCH  17  18
ENDBRANCH  16  17
ENDBRANCH  15  16
ENDBRANCH  14  15
ENDBRANCH  13  14
ENDBRANCH  12  13
ENDBRANCH  11  12
ENDBRANCH  10  11
ENDBRANCH   9  10
ENDBRANCH   8   9
ENDBRANCH   7   8
ENDBRANCH   6   7
ENDBRANCH   5   6
ENDBRANCH   4   5
ENDBRANCH   3   4
ENDBRANCH   2   3
TORSDOF 37
ENDMDL
MODEL       77
REMARK 921   NORMALIZED FREE ENERGY PREDICTED BY IDOCK:   -3.40 KCAL/MOL
REMARK 922        TOTAL FREE ENERGY PREDICTED BY IDOCK:  -14.39 KCAL/MOL
REMARK 923 INTER-LIGAND FREE ENERGY PREDICTED BY IDOCK:  -10.91 KCAL/MOL
REMARK 924 INTRA-LIGAND FREE ENERGY PREDICTED BY IDOCK:   -3.48 KCAL/MOL
REMARK 927      BINDING AFFINITY PREDICTED BY RF-SCORE:    0.00 PKD
ROOT
HETATM    1  C   UNL     1     -14.298   8.757  72.191  1.00  0.00    -0.481 C  
HETATM    2  C   UNL     1     -14.181   7.306  71.757  1.00  0.00    -0.526 C  
ENDROOT
BRANCH   2   3
HETATM    3  C   UNL     1     -12.729   6.837  71.800  1.00  0.00    -0.342 C  
BRANCH   3   4
HETATM    4  C   UNL     1     -11.804   7.943  72.303  1.00  0.00    -0.404 C  
BRANCH   4   5
HETATM    5  C   UNL     1     -10.495   7.952  71.518  1.00  0.00    -0.251 C  
BRANCH   5   6
HETATM    6  C   UNL     1     -10.142   9.362  71.062  1.00  0.00    -0.353 C  
BRANCH   6   7
HETATM    7  C   UNL     1     -10.977   9.762  69.850  1.00  0.00    -0.299 C  
BRANCH   7   8
HETATM    8  C   UNL     1     -11.843  10.974  70.171  1.00  0.00    -0.441 C  
BRANCH   8   9
HETATM    9  C   UNL     1     -11.753  12.017  69.061  1.00  0.00    -0.382 C  
BRANCH   9  10
HETATM   10  C   UNL     1     -10.327  12.105  68.536  1.00  0.00    -0.233 C  
BRANCH  10  11
HETATM   11  C   UNL     1     -10.307  12.347  67.034  1.00  0.00    -0.235 C  
BRANCH  11  12
HETATM   12  C   UNL     1     -11.695  12.718  66.540  1.00  0.00    -0.400 C  
BRANCH  12  13
HETATM   13  O   UNL     1     -11.765  12.418  65.151  1.00  0.00    -0.355 OA 
BRANCH  13  14
HETATM   14  C   UNL     1     -11.304  13.520  64.376  1.00  0.00    -0.382 C  
BRANCH  14  15
HETATM   15  C   UNL     1     -12.009  14.784  64.834  1.00  0.00    -0.358 C  
BRANCH  15  16
HETATM   16  O   UNL     1     -11.201  15.899  64.476  1.00  0.00    -0.454 OA 
BRANCH  16  17
HETATM   17  C   UNL     1     -10.396  16.327  65.569  1.00  0.00    -0.338 C  
BRANCH  17  18
HETATM   18  C   UNL     1     -10.637  17.811  65.792  1.00  0.00    -0.175 C  
BRANCH  18  19
HETATM   19  O   UNL     1      -9.743  18.276  66.796  1.00  0.00    -0.294 OA 
BRANCH  19  20
HETATM   20  C   UNL     1     -10.438  18.961  67.841  1.00  0.00    -0.388 C  
BRANCH  20  21
HETATM   21  C   UNL     1      -9.424  19.414  68.883  1.00  0.00    -0.389 C  
BRANCH  21  22
HETATM   22  O   UNL     1      -8.149  19.556  68.251  1.00  0.00    -0.316 OA 
BRANCH  22  23
HETATM   23  C   UNL     1      -7.088  19.500  69.197  1.00  0.00    -0.357 C  
BRANCH  23  24
HETATM   24  C   UNL     1      -6.348  18.181  69.030  1.00  0.00    -0.242 C  
BRANCH  24  25
HETATM   25  O   UNL     1      -6.610  17.671  67.726  1.00  0.00    -0.175 OA 
BRANCH  25  26
HETATM   26  C   UNL     1      -6.687  16.251  67.733  1.00  0.00    -0.142 C  
BRANCH  26  27
HETATM   27  C   UNL     1      -7.851  15.828  68.617  1.00  0.00    -0.156 C  
BRANCH  27  28
HETATM   28  O   UNL     1      -7.523  14.602  69.264  1.00  0.00    -0.146 OA 
BRANCH  28  29
HETATM   29  C   UNL     1      -6.275  14.096  68.801  1.00  0.00    -0.086 C  
BRANCH  29  30
HETATM   30  C   UNL     1      -5.752  13.081  69.804  1.00  0.00    -0.114 C  
BRANCH  30  31
HETATM   31  O   UNL     1      -6.595  11.934  69.785  1.00  0.00    -0.109 OA 
BRANCH  31  32
HETATM   32  C   UNL     1      -6.517  11.254  68.534  1.00  0.00    -0.051 C  
BRANCH  32  33
HETATM   33  C   UNL     1      -6.842   9.783  68.749  1.00  0.00    -0.051 C  
BRANCH  33  34
HETATM   34  O   UNL     1      -8.069   9.474  68.094  1.00  0.00    -0.101 OA 
BRANCH  34  35
HETATM   35  C   UNL     1      -7.912   9.455  66.677  1.00  0.00    -0.108 C  
BRANCH  35  36
HETATM   36  C   UNL     1      -8.517   8.169  66.132  1.00  0.00    -0.136 C  
BRANCH  36  37
HETATM   37  O   UNL     1      -8.973   7.354  67.213  1.00  0.00    -0.122 OA 
BRANCH  37  38
HETATM   38  C   UNL     1      -9.526   6.124  66.728  1.00  0.00    -0.146 C  
BRANCH  38  39
HETATM   39  C   UNL     1     -11.032   6.149  66.967  1.00  0.00    -0.330 C  
HETATM   40  O   UNL     1     -11.303   6.493  68.325  1.00  0.00    -0.541 OA 
HETATM   41  H   UNL     1     -12.241   6.508  68.473  1.00  0.00     0.000 HD 
ENDBRANCH  38  39
ENDBRANCH  37  38
ENDBRANCH  36  37
ENDBRANCH  35  36
ENDBRANCH  34  35
ENDBRANCH  33  34
ENDBRANCH  32  33
ENDBRANCH  31  32
ENDBRANCH  30  31
ENDBRANCH  29  30
ENDBRANCH  28  29
ENDBRANCH  27  28
ENDBRANCH  26  27
ENDBRANCH  25  26
ENDBRANCH  24  25
ENDBRANCH  23  24
ENDBRANCH  22  23
ENDBRANCH  21  22
ENDBRANCH  20  21
ENDBRANCH  19  20
ENDBRANCH  18  19
ENDBRANCH  17  18
ENDBRANCH  16  17
ENDBRANCH  15  16
ENDBRANCH  14  15
ENDBRANCH  13  14
ENDBRANCH  12  13
ENDBRANCH  11  12
ENDBRANCH  10  11
ENDBRANCH   9  10
ENDBRANCH   8   9
ENDBRANCH   7   8
ENDBRANCH   6   7
ENDBRANCH   5   6
ENDBRANCH   4   5
ENDBRANCH   3   4
ENDBRANCH   2   3
TORSDOF 37
ENDMDL
MODEL       78
REMARK 921   NORMALIZED FREE ENERGY PREDICTED BY IDOCK:   -3.37 KCAL/MOL
REMARK 922        TOTAL FREE ENERGY PREDICTED BY IDOCK:  -14.28 KCAL/MOL
REMARK 923 INTER-LIGAND FREE ENERGY PREDICTED BY IDOCK:  -11.29 KCAL/MOL
REMARK 924 INTRA-LIGAND FREE ENERGY PREDICTED BY IDOCK:   -3.00 KCAL/MOL
REMARK 927      BINDING AFFINITY PREDICTED BY RF-SCORE:    0.00 PKD
ROOT
HETATM    1  C   UNL     1      -8.058   5.283  72.186  1.00  0.00    -0.114 C  
HETATM    2  C   UNL     1      -7.923   6.514  73.065  1.00  0.00    -0.104 C  
ENDROOT
BRANCH   2   3
HETATM    3  C   UNL     1      -8.821   7.644  72.568  1.00  0.00    -0.183 C  
BRANCH   3   4
HETATM    4  C   UNL     1     -10.058   7.797  73.450  1.00  0.00    -0.327 C  
BRANCH   4   5
HETATM    5  C   UNL     1     -11.326   7.836  72.601  1.00  0.00    -0.449 C  
BRANCH   5   6
HETATM    6  C   UNL     1     -11.562   6.497  71.911  1.00  0.00    -0.357 C  
BRANCH   6   7
HETATM    7  C   UNL     1     -11.796   6.694  70.417  1.00  0.00    -0.407 C  
BRANCH   7   8
HETATM    8  C   UNL     1     -10.841   5.827  69.606  1.00  0.00    -0.418 C  
BRANCH   8   9
HETATM    9  C   UNL     1     -11.080   6.006  68.110  1.00  0.00    -0.246 C  
BRANCH   9  10
HETATM   10  C   UNL     1      -9.751   6.051  67.367  1.00  0.00    -0.124 C  
BRANCH  10  11
HETATM   11  C   UNL     1      -9.492   4.750  66.622  1.00  0.00    -0.161 C  
BRANCH  11  12
HETATM   12  C   UNL     1      -8.177   4.828  65.865  1.00  0.00    -0.112 C  
BRANCH  12  13
HETATM   13  O   UNL     1      -7.929   6.192  65.548  1.00  0.00    -0.104 OA 
BRANCH  13  14
HETATM   14  C   UNL     1      -7.611   6.338  64.168  1.00  0.00    -0.098 C  
BRANCH  14  15
HETATM   15  C   UNL     1      -7.821   7.784  63.757  1.00  0.00    -0.132 C  
BRANCH  15  16
HETATM   16  O   UNL     1      -7.230   8.619  64.747  1.00  0.00    -0.085 OA 
BRANCH  16  17
HETATM   17  C   UNL     1      -7.767   9.937  64.700  1.00  0.00    -0.142 C  
BRANCH  17  18
HETATM   18  C   UNL     1      -9.201   9.856  64.203  1.00  0.00    -0.262 C  
BRANCH  18  19
HETATM   19  O   UNL     1     -10.062  10.406  65.192  1.00  0.00    -0.303 OA 
BRANCH  19  20
HETATM   20  C   UNL     1     -10.325   9.469  66.239  1.00  0.00    -0.156 C  
BRANCH  20  21
HETATM   21  C   UNL     1     -10.765  10.237  67.479  1.00  0.00    -0.294 C  
BRANCH  21  22
HETATM   22  O   UNL     1     -10.202   9.606  68.633  1.00  0.00    -0.176 OA 
BRANCH  22  23
HETATM   23  C   UNL     1     -10.534  10.307  69.825  1.00  0.00    -0.259 C  
BRANCH  23  24
HETATM   24  C   UNL     1     -11.884  10.983  69.642  1.00  0.00    -0.342 C  
BRANCH  24  25
HETATM   25  O   UNL     1     -12.431  11.269  70.926  1.00  0.00    -0.365 OA 
BRANCH  25  26
HETATM   26  C   UNL     1     -12.952  12.591  70.982  1.00  0.00    -0.068 C  
BRANCH  26  27
HETATM   27  C   UNL     1     -13.634  12.792  72.328  1.00  0.00    -0.465 C  
BRANCH  27  28
HETATM   28  O   UNL     1     -13.961  14.169  72.483  1.00  0.00    -0.562 OA 
BRANCH  28  29
HETATM   29  C   UNL     1     -12.955  14.854  73.223  1.00  0.00    -0.519 C  
BRANCH  29  30
HETATM   30  C   UNL     1     -12.360  15.948  72.350  1.00  0.00    -0.482 C  
BRANCH  30  31
HETATM   31  O   UNL     1     -11.181  15.452  71.725  1.00  0.00    -0.398 OA 
BRANCH  31  32
HETATM   32  C   UNL     1     -10.992  16.038  70.439  1.00  0.00    -0.336 C  
BRANCH  32  33
HETATM   33  C   UNL     1     -12.116  15.585  69.519  1.00  0.00    -0.302 C  
BRANCH  33  34
HETATM   34  O   UNL     1     -11.654  15.601  68.171  1.00  0.00    -0.353 OA 
BRANCH  34  35
HETATM   35  C   UNL     1     -10.859  16.754  67.907  1.00  0.00    -0.311 C  
BRANCH  35  36
HETATM   36  C   UNL     1      -9.787  16.392  66.889  1.00  0.00    -0.261 C  
BRANCH  36  37
HETATM   37  O   UNL     1      -9.988  15.054  66.433  1.00  0.00    -0.255 OA 
BRANCH  37  38
HETATM   38  C   UNL     1     -10.594  15.043  65.134  1.00  0.00    -0.418 C  
BRANCH  38  39
HETATM   39  C   UNL     1     -11.155  13.648  64.879  1.00  0.00    -0.351 C  
HETATM   40  O   UNL     1     -10.615  13.121  63.669  1.00  0.00    -0.489 OA 
HETATM   41  H   UNL     1     -10.964  12.252  63.510  1.00  0.00     0.000 HD 
ENDBRANCH  38  39
ENDBRANCH  37  38
ENDBRANCH  36  37
ENDBRANCH  35  36
ENDBRANCH  34  35
ENDBRANCH  33  34
ENDBRANCH  32  33
ENDBRANCH  31  32
ENDBRANCH  30  31
ENDBRANCH  29  30
ENDBRANCH  28  29
ENDBRANCH  27  28
ENDBRANCH  26  27
ENDBRANCH  25  26
ENDBRANCH  24  25
ENDBRANCH  23  24
ENDBRANCH  22  23
ENDBRANCH  21  22
ENDBRANCH  20  21
ENDBRANCH  19  20
ENDBRANCH  18  19
ENDBRANCH  17  18
ENDBRANCH  16  17
ENDBRANCH  15  16
ENDBRANCH  14  15
ENDBRANCH  13  14
ENDBRANCH  12  13
ENDBRANCH  11  12
ENDBRANCH  10  11
ENDBRANCH   9  10
ENDBRANCH   8   9
ENDBRANCH   7   8
ENDBRANCH   6   7
ENDBRANCH   5   6
ENDBRANCH   4   5
ENDBRANCH   3   4
ENDBRANCH   2   3
TORSDOF 37
ENDMDL
MODEL       79
REMARK 921   NORMALIZED FREE ENERGY PREDICTED BY IDOCK:   -3.37 KCAL/MOL
REMARK 922        TOTAL FREE ENERGY PREDICTED BY IDOCK:  -14.28 KCAL/MOL
REMARK 923 INTER-LIGAND FREE ENERGY PREDICTED BY IDOCK:  -11.08 KCAL/MOL
REMARK 924 INTRA-LIGAND FREE ENERGY PREDICTED BY IDOCK:   -3.20 KCAL/MOL
REMARK 927      BINDING AFFINITY PREDICTED BY RF-SCORE:    0.00 PKD
ROOT
HETATM    1  C   UNL     1      -8.442   6.157  66.793  1.00  0.00    -0.111 C  
HETATM    2  C   UNL     1      -7.077   6.802  66.621  1.00  0.00    -0.072 C  
ENDROOT
BRANCH   2   3
HETATM    3  C   UNL     1      -6.580   6.659  65.186  1.00  0.00    -0.046 C  
BRANCH   3   4
HETATM    4  C   UNL     1      -6.367   8.025  64.536  1.00  0.00    -0.056 C  
BRANCH   4   5
HETATM    5  C   UNL     1      -7.691   8.603  64.044  1.00  0.00    -0.134 C  
BRANCH   5   6
HETATM    6  C   UNL     1      -8.092   9.822  64.866  1.00  0.00    -0.140 C  
BRANCH   6   7
HETATM    7  C   UNL     1      -9.264   9.493  65.784  1.00  0.00    -0.267 C  
BRANCH   7   8
HETATM    8  C   UNL     1     -10.278  10.630  65.790  1.00  0.00    -0.317 C  
BRANCH   8   9
HETATM    9  C   UNL     1     -10.025  11.592  64.634  1.00  0.00    -0.305 C  
BRANCH   9  10
HETATM   10  C   UNL     1     -11.131  11.468  63.594  1.00  0.00    -0.469 C  
BRANCH  10  11
HETATM   11  C   UNL     1     -12.395  12.182  64.047  1.00  0.00    -0.550 C  
BRANCH  11  12
HETATM   12  C   UNL     1     -12.374  13.632  63.595  1.00  0.00    -0.265 C  
BRANCH  12  13
HETATM   13  O   UNL     1     -12.665  14.450  64.722  1.00  0.00    -0.635 OA 
BRANCH  13  14
HETATM   14  C   UNL     1     -12.632  13.684  65.921  1.00  0.00    -0.425 C  
BRANCH  14  15
HETATM   15  C   UNL     1     -11.894  14.466  66.993  1.00  0.00    -0.412 C  
BRANCH  15  16
HETATM   16  O   UNL     1     -10.704  13.757  67.321  1.00  0.00    -0.279 OA 
BRANCH  16  17
HETATM   17  C   UNL     1      -9.570  14.616  67.306  1.00  0.00    -0.221 C  
BRANCH  17  18
HETATM   18  C   UNL     1      -8.315  13.759  67.349  1.00  0.00    -0.193 C  
BRANCH  18  19
HETATM   19  O   UNL     1      -8.309  13.013  68.560  1.00  0.00    -0.139 OA 
BRANCH  19  20
HETATM   20  C   UNL     1      -7.770  11.704  68.367  1.00  0.00    -0.130 C  
BRANCH  20  21
HETATM   21  C   UNL     1      -6.788  11.411  69.495  1.00  0.00    -0.097 C  
BRANCH  21  22
HETATM   22  O   UNL     1      -7.289  10.316  70.267  1.00  0.00    -0.198 OA 
BRANCH  22  23
HETATM   23  C   UNL     1      -6.351   9.899  71.252  1.00  0.00     0.126 C  
BRANCH  23  24
HETATM   24  C   UNL     1      -6.788   8.553  71.810  1.00  0.00    -0.086 C  
BRANCH  24  25
HETATM   25  O   UNL     1      -7.769   8.773  72.820  1.00  0.00    -0.369 OA 
BRANCH  25  26
HETATM   26  C   UNL     1      -8.704   7.703  72.872  1.00  0.00    -0.153 C  
BRANCH  26  27
HETATM   27  C   UNL     1      -9.012   7.250  71.453  1.00  0.00    -0.138 C  
BRANCH  27  28
HETATM   28  O   UNL     1     -10.408   7.395  71.210  1.00  0.00    -0.194 OA 
BRANCH  28  29
HETATM   29  C   UNL     1     -10.943   8.495  71.938  1.00  0.00    -0.324 C  
BRANCH  29  30
HETATM   30  C   UNL     1     -11.665   9.422  70.972  1.00  0.00    -0.323 C  
BRANCH  30  31
HETATM   31  O   UNL     1     -10.707  10.250  70.322  1.00  0.00    -0.288 OA 
BRANCH  31  32
HETATM   32  C   UNL     1     -11.337  11.178  69.442  1.00  0.00    -0.283 C  
BRANCH  32  33
HETATM   33  C   UNL     1     -12.370  11.977  70.224  1.00  0.00    -0.195 C  
BRANCH  33  34
HETATM   34  O   UNL     1     -11.829  13.255  70.545  1.00  0.00    -0.271 OA 
BRANCH  34  35
HETATM   35  C   UNL     1     -12.853  14.176  70.913  1.00  0.00    -0.334 C  
BRANCH  35  36
HETATM   36  C   UNL     1     -13.824  13.482  71.858  1.00  0.00    -0.335 C  
BRANCH  36  37
HETATM   37  O   UNL     1     -14.017  14.284  73.024  1.00  0.00    -0.497 OA 
BRANCH  37  38
HETATM   38  C   UNL     1     -13.654  15.648  72.772  1.00  0.00    -0.593 C  
BRANCH  38  39
HETATM   39  C   UNL     1     -12.456  15.994  73.648  1.00  0.00    -0.589 C  
HETATM   40  O   UNL     1     -12.146  14.895  74.504  1.00  0.00    -0.773 OA 
HETATM   41  H   UNL     1     -11.399  15.111  75.049  1.00  0.00     0.000 HD 
ENDBRANCH  38  39
ENDBRANCH  37  38
ENDBRANCH  36  37
ENDBRANCH  35  36
ENDBRANCH  34  35
ENDBRANCH  33  34
ENDBRANCH  32  33
ENDBRANCH  31  32
ENDBRANCH  30  31
ENDBRANCH  29  30
ENDBRANCH  28  29
ENDBRANCH  27  28
ENDBRANCH  26  27
ENDBRANCH  25  26
ENDBRANCH  24  25
ENDBRANCH  23  24
ENDBRANCH  22  23
ENDBRANCH  21  22
ENDBRANCH  20  21
ENDBRANCH  19  20
ENDBRANCH  18  19
ENDBRANCH  17  18
ENDBRANCH  16  17
ENDBRANCH  15  16
ENDBRANCH  14  15
ENDBRANCH  13  14
ENDBRANCH  12  13
ENDBRANCH  11  12
ENDBRANCH  10  11
ENDBRANCH   9  10
ENDBRANCH   8   9
ENDBRANCH   7   8
ENDBRANCH   6   7
ENDBRANCH   5   6
ENDBRANCH   4   5
ENDBRANCH   3   4
ENDBRANCH   2   3
TORSDOF 37
ENDMDL
MODEL       80
REMARK 921   NORMALIZED FREE ENERGY PREDICTED BY IDOCK:   -3.36 KCAL/MOL
REMARK 922        TOTAL FREE ENERGY PREDICTED BY IDOCK:  -14.24 KCAL/MOL
REMARK 923 INTER-LIGAND FREE ENERGY PREDICTED BY IDOCK:  -11.63 KCAL/MOL
REMARK 924 INTRA-LIGAND FREE ENERGY PREDICTED BY IDOCK:   -2.61 KCAL/MOL
REMARK 927      BINDING AFFINITY PREDICTED BY RF-SCORE:    0.00 PKD
ROOT
HETATM    1  C   UNL     1      -9.556   4.376  70.023  1.00  0.00    -0.273 C  
HETATM    2  C   UNL     1      -9.005   3.636  71.230  1.00  0.00    -0.159 C  
ENDROOT
BRANCH   2   3
HETATM    3  C   UNL     1     -10.020   2.630  71.767  1.00  0.00    -0.188 C  
BRANCH   3   4
HETATM    4  C   UNL     1     -10.299   2.863  73.250  1.00  0.00    -0.233 C  
BRANCH   4   5
HETATM    5  C   UNL     1     -11.086   4.154  73.457  1.00  0.00    -0.359 C  
BRANCH   5   6
HETATM    6  C   UNL     1     -10.330   5.115  74.367  1.00  0.00    -0.313 C  
BRANCH   6   7
HETATM    7  C   UNL     1      -9.741   6.269  73.563  1.00  0.00    -0.177 C  
BRANCH   7   8
HETATM    8  C   UNL     1     -10.833   7.245  73.145  1.00  0.00    -0.401 C  
BRANCH   8   9
HETATM    9  C   UNL     1     -10.662   7.664  71.689  1.00  0.00    -0.243 C  
BRANCH   9  10
HETATM   10  C   UNL     1     -10.970   9.147  71.528  1.00  0.00    -0.434 C  
BRANCH  10  11
HETATM   11  C   UNL     1     -12.376   9.362  70.987  1.00  0.00    -0.332 C  
BRANCH  11  12
HETATM   12  C   UNL     1     -13.149  10.310  71.886  1.00  0.00    -0.463 C  
BRANCH  12  13
HETATM   13  O   UNL     1     -12.735  11.638  71.589  1.00  0.00    -0.340 OA 
BRANCH  13  14
HETATM   14  C   UNL     1     -13.579  12.585  72.235  1.00  0.00    -0.342 C  
BRANCH  14  15
HETATM   15  C   UNL     1     -13.034  13.983  72.002  1.00  0.00    -0.363 C  
BRANCH  15  16
HETATM   16  O   UNL     1     -12.468  14.027  70.697  1.00  0.00    -0.326 OA 
BRANCH  16  17
HETATM   17  C   UNL     1     -12.610  15.319  70.115  1.00  0.00    -0.296 C  
BRANCH  17  18
HETATM   18  C   UNL     1     -11.421  16.169  70.531  1.00  0.00    -0.343 C  
BRANCH  18  19
HETATM   19  O   UNL     1     -10.448  16.139  69.494  1.00  0.00    -0.254 OA 
BRANCH  19  20
HETATM   20  C   UNL     1     -10.890  16.857  68.340  1.00  0.00    -0.347 C  
BRANCH  20  21
HETATM   21  C   UNL     1     -10.417  18.301  68.456  1.00  0.00    -0.216 C  
BRANCH  21  22
HETATM   22  O   UNL     1     -10.604  18.948  67.194  1.00  0.00    -0.422 OA 
BRANCH  22  23
HETATM   23  C   UNL     1      -9.642  19.974  66.986  1.00  0.00    -0.411 C  
BRANCH  23  24
HETATM   24  C   UNL     1      -8.393  19.363  66.370  1.00  0.00    -0.331 C  
BRANCH  24  25
HETATM   25  O   UNL     1      -7.282  19.636  67.221  1.00  0.00    -0.214 OA 
BRANCH  25  26
HETATM   26  C   UNL     1      -6.700  18.434  67.710  1.00  0.00    -0.207 C  
BRANCH  26  27
HETATM   27  C   UNL     1      -7.078  17.291  66.779  1.00  0.00    -0.212 C  
BRANCH  27  28
HETATM   28  O   UNL     1      -7.497  16.175  67.558  1.00  0.00    -0.131 OA 
BRANCH  28  29
HETATM   29  C   UNL     1      -8.167  15.210  66.753  1.00  0.00    -0.137 C  
BRANCH  29  30
HETATM   30  C   UNL     1      -8.867  14.211  67.660  1.00  0.00    -0.194 C  
BRANCH  30  31
HETATM   31  O   UNL     1      -9.660  13.338  66.862  1.00  0.00    -0.234 OA 
BRANCH  31  32
HETATM   32  C   UNL     1     -11.041  13.439  67.202  1.00  0.00    -0.286 C  
BRANCH  32  33
HETATM   33  C   UNL     1     -11.872  12.842  66.076  1.00  0.00    -0.439 C  
BRANCH  33  34
HETATM   34  O   UNL     1     -11.084  12.786  64.890  1.00  0.00    -0.279 OA 
BRANCH  34  35
HETATM   35  C   UNL     1     -11.026  11.462  64.366  1.00  0.00    -0.302 C  
BRANCH  35  36
HETATM   36  C   UNL     1      -9.591  10.961  64.447  1.00  0.00    -0.265 C  
BRANCH  36  37
HETATM   37  O   UNL     1      -9.340  10.427  65.747  1.00  0.00    -0.168 OA 
BRANCH  37  38
HETATM   38  C   UNL     1      -9.860   9.096  65.862  1.00  0.00    -0.235 C  
BRANCH  38  39
HETATM   39  C   UNL     1     -10.376   8.904  67.284  1.00  0.00    -0.280 C  
HETATM   40  O   UNL     1     -11.333   9.915  67.595  1.00  0.00    -0.480 OA 
HETATM   41  H   UNL     1     -11.654   9.795  68.480  1.00  0.00     0.000 HD 
ENDBRANCH  38  39
ENDBRANCH  37  38
ENDBRANCH  36  37
ENDBRANCH  35  36
ENDBRANCH  34  35
ENDBRANCH  33  34
ENDBRANCH  32  33
ENDBRANCH  31  32
ENDBRANCH  30  31
ENDBRANCH  29  30
ENDBRANCH  28  29
ENDBRANCH  27  28
ENDBRANCH  26  27
ENDBRANCH  25  26
ENDBRANCH  24  25
ENDBRANCH  23  24
ENDBRANCH  22  23
ENDBRANCH  21  22
ENDBRANCH  20  21
ENDBRANCH  19  20
ENDBRANCH  18  19
ENDBRANCH  17  18
ENDBRANCH  16  17
ENDBRANCH  15  16
ENDBRANCH  14  15
ENDBRANCH  13  14
ENDBRANCH  12  13
ENDBRANCH  11  12
ENDBRANCH  10  11
ENDBRANCH   9  10
ENDBRANCH   8   9
ENDBRANCH   7   8
ENDBRANCH   6   7
ENDBRANCH   5   6
ENDBRANCH   4   5
ENDBRANCH   3   4
ENDBRANCH   2   3
TORSDOF 37
ENDMDL
MODEL       81
REMARK 921   NORMALIZED FREE ENERGY PREDICTED BY IDOCK:   -3.36 KCAL/MOL
REMARK 922        TOTAL FREE ENERGY PREDICTED BY IDOCK:  -14.23 KCAL/MOL
REMARK 923 INTER-LIGAND FREE ENERGY PREDICTED BY IDOCK:  -11.30 KCAL/MOL
REMARK 924 INTRA-LIGAND FREE ENERGY PREDICTED BY IDOCK:   -2.94 KCAL/MOL
REMARK 927      BINDING AFFINITY PREDICTED BY RF-SCORE:    0.00 PKD
ROOT
HETATM    1  C   UNL     1     -14.411  15.233  72.088  1.00  0.00    -0.651 C  
HETATM    2  C   UNL     1     -13.107  15.723  72.694  1.00  0.00    -0.579 C  
ENDROOT
BRANCH   2   3
HETATM    3  C   UNL     1     -11.908  15.049  72.034  1.00  0.00    -0.462 C  
BRANCH   3   4
HETATM    4  C   UNL     1     -12.232  14.619  70.605  1.00  0.00    -0.394 C  
BRANCH   4   5
HETATM    5  C   UNL     1     -10.992  14.705  69.719  1.00  0.00    -0.232 C  
BRANCH   5   6
HETATM    6  C   UNL     1     -11.357  15.170  68.314  1.00  0.00    -0.338 C  
BRANCH   6   7
HETATM    7  C   UNL     1     -11.821  13.994  67.460  1.00  0.00    -0.442 C  
BRANCH   7   8
HETATM    8  C   UNL     1     -12.205  14.464  66.063  1.00  0.00    -0.352 C  
BRANCH   8   9
HETATM    9  C   UNL     1     -12.436  13.277  65.133  1.00  0.00    -0.525 C  
BRANCH   9  10
HETATM   10  C   UNL     1     -11.291  13.159  64.136  1.00  0.00    -0.440 C  
BRANCH  10  11
HETATM   11  C   UNL     1     -11.195  11.749  63.572  1.00  0.00    -0.494 C  
BRANCH  11  12
HETATM   12  C   UNL     1      -9.777  11.460  63.111  1.00  0.00    -0.393 C  
BRANCH  12  13
HETATM   13  O   UNL     1      -9.525  10.073  63.298  1.00  0.00    -0.295 OA 
BRANCH  13  14
HETATM   14  C   UNL     1      -8.464   9.637  62.455  1.00  0.00    -0.170 C  
BRANCH  14  15
HETATM   15  C   UNL     1      -7.428   8.908  63.291  1.00  0.00    -0.101 C  
BRANCH  15  16
HETATM   16  O   UNL     1      -6.186   9.589  63.154  1.00  0.00    -0.097 OA 
BRANCH  16  17
HETATM   17  C   UNL     1      -5.482   9.636  64.391  1.00  0.00    -0.066 C  
BRANCH  17  18
HETATM   18  C   UNL     1      -6.216  10.582  65.327  1.00  0.00    -0.095 C  
BRANCH  18  19
HETATM   19  O   UNL     1      -6.403   9.936  66.580  1.00  0.00    -0.067 OA 
BRANCH  19  20
HETATM   20  C   UNL     1      -7.379  10.610  67.377  1.00  0.00    -0.093 C  
BRANCH  20  21
HETATM   21  C   UNL     1      -8.137  11.591  66.491  1.00  0.00    -0.112 C  
BRANCH  21  22
HETATM   22  O   UNL     1      -9.535  11.471  66.767  1.00  0.00    -0.182 OA 
BRANCH  22  23
HETATM   23  C   UNL     1      -9.993  10.138  66.576  1.00  0.00    -0.224 C  
BRANCH  23  24
HETATM   24  C   UNL     1     -11.012   9.806  67.655  1.00  0.00    -0.162 C  
BRANCH  24  25
HETATM   25  O   UNL     1     -11.009  10.851  68.624  1.00  0.00    -0.193 OA 
BRANCH  25  26
HETATM   26  C   UNL     1     -12.191  10.825  69.414  1.00  0.00    -0.171 C  
BRANCH  26  27
HETATM   27  C   UNL     1     -11.801  10.893  70.883  1.00  0.00    -0.258 C  
BRANCH  27  28
HETATM   28  O   UNL     1     -12.958  10.674  71.684  1.00  0.00    -0.420 OA 
BRANCH  28  29
HETATM   29  C   UNL     1     -13.327   9.298  71.688  1.00  0.00    -0.394 C  
BRANCH  29  30
HETATM   30  C   UNL     1     -12.237   8.498  72.383  1.00  0.00    -0.366 C  
BRANCH  30  31
HETATM   31  O   UNL     1     -12.408   7.118  72.076  1.00  0.00    -0.304 OA 
BRANCH  31  32
HETATM   32  C   UNL     1     -11.159   6.493  71.792  1.00  0.00    -0.257 C  
BRANCH  32  33
HETATM   33  C   UNL     1     -11.124   6.102  70.321  1.00  0.00    -0.366 C  
BRANCH  33  34
HETATM   34  O   UNL     1      -9.775   5.861  69.932  1.00  0.00    -0.156 OA 
BRANCH  34  35
HETATM   35  C   UNL     1      -9.616   4.551  69.392  1.00  0.00    -0.194 C  
BRANCH  35  36
HETATM   36  C   UNL     1      -8.375   4.529  68.510  1.00  0.00    -0.085 C  
BRANCH  36  37
HETATM   37  O   UNL     1      -8.752   4.710  67.144  1.00  0.00    -0.105 OA 
BRANCH  37  38
HETATM   38  C   UNL     1      -9.781   3.785  66.771  1.00  0.00    -0.120 C  
BRANCH  38  39
HETATM   39  C   UNL     1     -10.512   4.345  65.556  1.00  0.00    -0.199 C  
HETATM   40  O   UNL     1     -11.197   5.545  65.911  1.00  0.00    -0.743 OA 
HETATM   41  H   UNL     1     -11.651   5.894  65.154  1.00  0.00     0.000 HD 
ENDBRANCH  38  39
ENDBRANCH  37  38
ENDBRANCH  36  37
ENDBRANCH  35  36
ENDBRANCH  34  35
ENDBRANCH  33  34
ENDBRANCH  32  33
ENDBRANCH  31  32
ENDBRANCH  30  31
ENDBRANCH  29  30
ENDBRANCH  28  29
ENDBRANCH  27  28
ENDBRANCH  26  27
ENDBRANCH  25  26
ENDBRANCH  24  25
ENDBRANCH  23  24
ENDBRANCH  22  23
ENDBRANCH  21  22
ENDBRANCH  20  21
ENDBRANCH  19  20
ENDBRANCH  18  19
ENDBRANCH  17  18
ENDBRANCH  16  17
ENDBRANCH  15  16
ENDBRANCH  14  15
ENDBRANCH  13  14
ENDBRANCH  12  13
ENDBRANCH  11  12
ENDBRANCH  10  11
ENDBRANCH   9  10
ENDBRANCH   8   9
ENDBRANCH   7   8
ENDBRANCH   6   7
ENDBRANCH   5   6
ENDBRANCH   4   5
ENDBRANCH   3   4
ENDBRANCH   2   3
TORSDOF 37
ENDMDL
MODEL       82
REMARK 921   NORMALIZED FREE ENERGY PREDICTED BY IDOCK:   -3.34 KCAL/MOL
REMARK 922        TOTAL FREE ENERGY PREDICTED BY IDOCK:  -14.20 KCAL/MOL
REMARK 923 INTER-LIGAND FREE ENERGY PREDICTED BY IDOCK:  -10.71 KCAL/MOL
REMARK 924 INTRA-LIGAND FREE ENERGY PREDICTED BY IDOCK:   -3.49 KCAL/MOL
REMARK 927      BINDING AFFINITY PREDICTED BY RF-SCORE:    0.00 PKD
ROOT
HETATM    1  C   UNL     1     -12.447  13.557  67.198  1.00  0.00    -0.056 C  
HETATM    2  C   UNL     1     -11.017  13.061  67.069  1.00  0.00    -0.289 C  
ENDROOT
BRANCH   2   3
HETATM    3  C   UNL     1     -10.220  13.350  68.338  1.00  0.00    -0.251 C  
BRANCH   3   4
HETATM    4  C   UNL     1      -9.859  14.830  68.440  1.00  0.00    -0.220 C  
BRANCH   4   5
HETATM    5  C   UNL     1     -10.139  15.360  69.844  1.00  0.00    -0.253 C  
BRANCH   5   6
HETATM    6  C   UNL     1     -11.577  15.848  69.966  1.00  0.00    -0.346 C  
BRANCH   6   7
HETATM    7  C   UNL     1     -11.906  16.205  71.412  1.00  0.00    -0.490 C  
BRANCH   7   8
HETATM    8  C   UNL     1     -11.803  14.975  72.305  1.00  0.00    -0.441 C  
BRANCH   8   9
HETATM    9  C   UNL     1     -13.185  14.507  72.749  1.00  0.00    -0.600 C  
BRANCH   9  10
HETATM   10  C   UNL     1     -13.749  13.506  71.749  1.00  0.00    -0.379 C  
BRANCH  10  11
HETATM   11  C   UNL     1     -13.273  12.094  72.054  1.00  0.00    -0.496 C  
BRANCH  11  12
HETATM   12  C   UNL     1     -12.550  11.509  70.852  1.00  0.00    -0.341 C  
BRANCH  12  13
HETATM   13  O   UNL     1     -13.102  10.225  70.586  1.00  0.00    -0.365 OA 
BRANCH  13  14
HETATM   14  C   UNL     1     -13.217   9.469  71.787  1.00  0.00    -0.422 C  
BRANCH  14  15
HETATM   15  C   UNL     1     -14.296   8.415  71.613  1.00  0.00    -0.448 C  
BRANCH  15  16
HETATM   16  O   UNL     1     -13.666   7.184  71.277  1.00  0.00    -0.343 OA 
BRANCH  16  17
HETATM   17  C   UNL     1     -12.337   7.129  71.784  1.00  0.00    -0.350 C  
BRANCH  17  18
HETATM   18  C   UNL     1     -11.515   6.220  70.883  1.00  0.00    -0.312 C  
BRANCH  18  19
HETATM   19  O   UNL     1     -10.704   5.379  71.694  1.00  0.00    -0.236 OA 
BRANCH  19  20
HETATM   20  C   UNL     1      -9.659   4.769  70.935  1.00  0.00    -0.177 C  
BRANCH  20  21
HETATM   21  C   UNL     1      -8.616   4.219  71.900  1.00  0.00    -0.107 C  
BRANCH  21  22
HETATM   22  O   UNL     1      -9.114   4.346  73.235  1.00  0.00    -0.114 OA 
BRANCH  22  23
HETATM   23  C   UNL     1      -8.062   4.582  74.164  1.00  0.00    -0.096 C  
BRANCH  23  24
HETATM   24  C   UNL     1      -7.583   6.018  74.013  1.00  0.00    -0.091 C  
BRANCH  24  25
HETATM   25  O   UNL     1      -8.703   6.890  74.138  1.00  0.00    -0.144 OA 
BRANCH  25  26
HETATM   26  C   UNL     1      -8.409   8.184  73.626  1.00  0.00    -0.242 C  
BRANCH  26  27
HETATM   27  C   UNL     1      -8.595   8.167  72.116  1.00  0.00    -0.168 C  
BRANCH  27  28
HETATM   28  O   UNL     1      -9.605   9.105  71.760  1.00  0.00    -0.283 OA 
BRANCH  28  29
HETATM   29  C   UNL     1      -9.561   9.403  70.368  1.00  0.00    -0.266 C  
BRANCH  29  30
HETATM   30  C   UNL     1      -8.117   9.347  69.897  1.00  0.00    -0.138 C  
BRANCH  30  31
HETATM   31  O   UNL     1      -7.757  10.615  69.358  1.00  0.00    -0.139 OA 
BRANCH  31  32
HETATM   32  C   UNL     1      -8.090  10.703  67.975  1.00  0.00    -0.112 C  
BRANCH  32  33
HETATM   33  C   UNL     1      -7.323   9.633  67.212  1.00  0.00    -0.087 C  
BRANCH  33  34
HETATM   34  O   UNL     1      -8.127   9.158  66.135  1.00  0.00    -0.105 OA 
BRANCH  34  35
HETATM   35  C   UNL     1      -9.494   9.040  66.520  1.00  0.00    -0.206 C  
BRANCH  35  36
HETATM   36  C   UNL     1      -9.795   7.581  66.831  1.00  0.00    -0.226 C  
BRANCH  36  37
HETATM   37  O   UNL     1      -8.629   6.789  66.601  1.00  0.00    -0.116 OA 
BRANCH  37  38
HETATM   38  C   UNL     1      -8.968   5.401  66.486  1.00  0.00    -0.120 C  
BRANCH  38  39
HETATM   39  C   UNL     1     -10.471   5.256  66.698  1.00  0.00    -0.290 C  
HETATM   40  O   UNL     1     -11.063   4.625  65.563  1.00  0.00    -0.852 OA 
HETATM   41  H   UNL     1     -11.999   4.535  65.695  1.00  0.00     0.000 HD 
ENDBRANCH  38  39
ENDBRANCH  37  38
ENDBRANCH  36  37
ENDBRANCH  35  36
ENDBRANCH  34  35
ENDBRANCH  33  34
ENDBRANCH  32  33
ENDBRANCH  31  32
ENDBRANCH  30  31
ENDBRANCH  29  30
ENDBRANCH  28  29
ENDBRANCH  27  28
ENDBRANCH  26  27
ENDBRANCH  25  26
ENDBRANCH  24  25
ENDBRANCH  23  24
ENDBRANCH  22  23
ENDBRANCH  21  22
ENDBRANCH  20  21
ENDBRANCH  19  20
ENDBRANCH  18  19
ENDBRANCH  17  18
ENDBRANCH  16  17
ENDBRANCH  15  16
ENDBRANCH  14  15
ENDBRANCH  13  14
ENDBRANCH  12  13
ENDBRANCH  11  12
ENDBRANCH  10  11
ENDBRANCH   9  10
ENDBRANCH   8   9
ENDBRANCH   7   8
ENDBRANCH   6   7
ENDBRANCH   5   6
ENDBRANCH   4   5
ENDBRANCH   3   4
ENDBRANCH   2   3
TORSDOF 37
ENDMDL
MODEL       83
REMARK 921   NORMALIZED FREE ENERGY PREDICTED BY IDOCK:   -3.32 KCAL/MOL
REMARK 922        TOTAL FREE ENERGY PREDICTED BY IDOCK:  -14.13 KCAL/MOL
REMARK 923 INTER-LIGAND FREE ENERGY PREDICTED BY IDOCK:  -11.04 KCAL/MOL
REMARK 924 INTRA-LIGAND FREE ENERGY PREDICTED BY IDOCK:   -3.09 KCAL/MOL
REMARK 927      BINDING AFFINITY PREDICTED BY RF-SCORE:    0.00 PKD
ROOT
HETATM    1  C   UNL     1      -9.832  20.352  67.105  1.00  0.00    -0.601 C  
HETATM    2  C   UNL     1      -8.498  19.743  67.502  1.00  0.00    -0.366 C  
ENDROOT
BRANCH   2   3
HETATM    3  C   UNL     1      -8.000  18.772  66.435  1.00  0.00    -0.300 C  
BRANCH   3   4
HETATM    4  C   UNL     1      -7.836  17.364  67.001  1.00  0.00    -0.238 C  
BRANCH   4   5
HETATM    5  C   UNL     1      -9.156  16.852  67.570  1.00  0.00    -0.222 C  
BRANCH   5   6
HETATM    6  C   UNL     1      -8.944  16.183  68.923  1.00  0.00    -0.247 C  
BRANCH   6   7
HETATM    7  C   UNL     1      -9.748  14.891  69.019  1.00  0.00    -0.212 C  
BRANCH   7   8
HETATM    8  C   UNL     1      -9.828  14.206  67.660  1.00  0.00    -0.229 C  
BRANCH   8   9
HETATM    9  C   UNL     1     -11.065  13.320  67.568  1.00  0.00    -0.292 C  
BRANCH   9  10
HETATM   10  C   UNL     1     -12.108  13.963  66.663  1.00  0.00    -0.485 C  
BRANCH  10  11
HETATM   11  C   UNL     1     -11.455  14.863  65.624  1.00  0.00    -0.290 C  
BRANCH  11  12
HETATM   12  C   UNL     1     -11.834  14.413  64.223  1.00  0.00    -0.364 C  
BRANCH  12  13
HETATM   13  O   UNL     1     -12.694  13.286  64.338  1.00  0.00    -0.643 OA 
BRANCH  13  14
HETATM   14  C   UNL     1     -12.375  12.308  63.353  1.00  0.00    -0.517 C  
BRANCH  14  15
HETATM   15  C   UNL     1     -10.915  11.918  63.490  1.00  0.00    -0.432 C  
BRANCH  15  16
HETATM   16  O   UNL     1     -10.757  11.208  64.714  1.00  0.00    -0.314 OA 
BRANCH  16  17
HETATM   17  C   UNL     1      -9.717  10.241  64.620  1.00  0.00    -0.333 C  
BRANCH  17  18
HETATM   18  C   UNL     1      -9.304  10.116  63.163  1.00  0.00    -0.298 C  
BRANCH  18  19
HETATM   19  O   UNL     1      -8.558   8.917  62.997  1.00  0.00    -0.197 OA 
BRANCH  19  20
HETATM   20  C   UNL     1      -7.343   8.947  63.748  1.00  0.00    -0.101 C  
BRANCH  20  21
HETATM   21  C   UNL     1      -7.205   7.629  64.501  1.00  0.00    -0.076 C  
BRANCH  21  22
HETATM   22  O   UNL     1      -7.440   7.870  65.892  1.00  0.00    -0.074 OA 
BRANCH  22  23
HETATM   23  C   UNL     1      -7.795   6.674  66.575  1.00  0.00    -0.104 C  
BRANCH  23  24
HETATM   24  C   UNL     1      -8.762   7.015  67.698  1.00  0.00    -0.121 C  
BRANCH  24  25
HETATM   25  O   UNL     1      -8.971   8.424  67.710  1.00  0.00    -0.136 OA 
BRANCH  25  26
HETATM   26  C   UNL     1     -10.348   8.741  67.873  1.00  0.00    -0.224 C  
BRANCH  26  27
HETATM   27  C   UNL     1     -10.464  10.013  68.701  1.00  0.00    -0.204 C  
BRANCH  27  28
HETATM   28  O   UNL     1     -11.719  10.019  69.372  1.00  0.00    -0.099 OA 
BRANCH  28  29
HETATM   29  C   UNL     1     -11.813  11.116  70.275  1.00  0.00    -0.366 C  
BRANCH  29  30
HETATM   30  C   UNL     1     -12.981  10.879  71.219  1.00  0.00    -0.392 C  
BRANCH  30  31
HETATM   31  O   UNL     1     -13.622   9.658  70.865  1.00  0.00    -0.253 OA 
BRANCH  31  32
HETATM   32  C   UNL     1     -13.751   8.795  71.993  1.00  0.00    -0.443 C  
BRANCH  32  33
HETATM   33  C   UNL     1     -13.602   7.353  71.531  1.00  0.00    -0.370 C  
BRANCH  33  34
HETATM   34  O   UNL     1     -12.343   6.848  71.969  1.00  0.00    -0.315 OA 
BRANCH  34  35
HETATM   35  C   UNL     1     -11.362   6.933  70.940  1.00  0.00    -0.304 C  
BRANCH  35  36
HETATM   36  C   UNL     1     -10.999   5.526  70.487  1.00  0.00    -0.125 C  
BRANCH  36  37
HETATM   37  O   UNL     1      -9.699   5.184  70.970  1.00  0.00    -0.164 OA 
BRANCH  37  38
HETATM   38  C   UNL     1      -9.789   4.312  72.104  1.00  0.00    -0.167 C  
BRANCH  38  39
HETATM   39  C   UNL     1      -9.502   5.128  73.360  1.00  0.00    -0.137 C  
HETATM   40  O   UNL     1     -10.712   5.347  74.083  1.00  0.00    -0.281 OA 
HETATM   41  H   UNL     1     -10.533   5.855  74.865  1.00  0.00     0.000 HD 
ENDBRANCH  38  39
ENDBRANCH  37  38
ENDBRANCH  36  37
ENDBRANCH  35  36
ENDBRANCH  34  35
ENDBRANCH  33  34
ENDBRANCH  32  33
ENDBRANCH  31  32
ENDBRANCH  30  31
ENDBRANCH  29  30
ENDBRANCH  28  29
ENDBRANCH  27  28
ENDBRANCH  26  27
ENDBRANCH  25  26
ENDBRANCH  24  25
ENDBRANCH  23  24
ENDBRANCH  22  23
ENDBRANCH  21  22
ENDBRANCH  20  21
ENDBRANCH  19  20
ENDBRANCH  18  19
ENDBRANCH  17  18
ENDBRANCH  16  17
ENDBRANCH  15  16
ENDBRANCH  14  15
ENDBRANCH  13  14
ENDBRANCH  12  13
ENDBRANCH  11  12
ENDBRANCH  10  11
ENDBRANCH   9  10
ENDBRANCH   8   9
ENDBRANCH   7   8
ENDBRANCH   6   7
ENDBRANCH   5   6
ENDBRANCH   4   5
ENDBRANCH   3   4
ENDBRANCH   2   3
TORSDOF 37
ENDMDL
MODEL       84
REMARK 921   NORMALIZED FREE ENERGY PREDICTED BY IDOCK:   -3.32 KCAL/MOL
REMARK 922        TOTAL FREE ENERGY PREDICTED BY IDOCK:  -14.12 KCAL/MOL
REMARK 923 INTER-LIGAND FREE ENERGY PREDICTED BY IDOCK:  -11.09 KCAL/MOL
REMARK 924 INTRA-LIGAND FREE ENERGY PREDICTED BY IDOCK:   -3.03 KCAL/MOL
REMARK 927      BINDING AFFINITY PREDICTED BY RF-SCORE:    0.00 PKD
ROOT
HETATM    1  C   UNL     1     -12.712  13.859  65.417  1.00  0.00    -0.525 C  
HETATM    2  C   UNL     1     -12.562  12.473  64.812  1.00  0.00    -0.493 C  
ENDROOT
BRANCH   2   3
HETATM    3  C   UNL     1     -11.879  12.542  63.449  1.00  0.00    -0.587 C  
BRANCH   3   4
HETATM    4  C   UNL     1     -10.384  12.252  63.563  1.00  0.00    -0.443 C  
BRANCH   4   5
HETATM    5  C   UNL     1     -10.146  10.841  64.094  1.00  0.00    -0.418 C  
BRANCH   5   6
HETATM    6  C   UNL     1      -8.993  10.821  65.090  1.00  0.00    -0.215 C  
BRANCH   6   7
HETATM    7  C   UNL     1      -7.862   9.929  64.589  1.00  0.00    -0.142 C  
BRANCH   7   8
HETATM    8  C   UNL     1      -6.661  10.007  65.523  1.00  0.00    -0.105 C  
BRANCH   8   9
HETATM    9  C   UNL     1      -6.957   9.319  66.851  1.00  0.00    -0.081 C  
BRANCH   9  10
HETATM   10  C   UNL     1      -6.071   9.891  67.949  1.00  0.00    -0.050 C  
BRANCH  10  11
HETATM   11  C   UNL     1      -5.319  11.121  67.465  1.00  0.00    -0.043 C  
BRANCH  11  12
HETATM   12  C   UNL     1      -5.874  12.373  68.123  1.00  0.00    -0.066 C  
BRANCH  12  13
HETATM   13  O   UNL     1      -6.431  13.197  67.107  1.00  0.00    -0.227 OA 
BRANCH  13  14
HETATM   14  C   UNL     1      -7.399  14.086  67.654  1.00  0.00    -0.175 C  
BRANCH  14  15
HETATM   15  C   UNL     1      -6.913  14.583  69.004  1.00  0.00    -0.121 C  
BRANCH  15  16
HETATM   16  O   UNL     1      -7.761  15.649  69.417  1.00  0.00    -0.211 OA 
BRANCH  16  17
HETATM   17  C   UNL     1      -8.908  15.752  68.579  1.00  0.00    -0.193 C  
BRANCH  17  18
HETATM   18  C   UNL     1      -9.675  17.006  68.965  1.00  0.00    -0.216 C  
BRANCH  18  19
HETATM   19  O   UNL     1     -11.024  16.652  69.244  1.00  0.00    -0.311 OA 
BRANCH  19  20
HETATM   20  C   UNL     1     -11.101  15.483  70.061  1.00  0.00    -0.315 C  
BRANCH  20  21
HETATM   21  C   UNL     1     -12.537  15.324  70.548  1.00  0.00    -0.399 C  
BRANCH  21  22
HETATM   22  O   UNL     1     -12.562  15.507  71.967  1.00  0.00    -0.344 OA 
BRANCH  22  23
HETATM   23  C   UNL     1     -13.381  14.534  72.603  1.00  0.00    -0.495 C  
BRANCH  23  24
HETATM   24  C   UNL     1     -13.557  13.347  71.668  1.00  0.00    -0.233 C  
BRANCH  24  25
HETATM   25  O   UNL     1     -13.377  12.146  72.413  1.00  0.00    -0.427 OA 
BRANCH  25  26
HETATM   26  C   UNL     1     -13.016  11.062  71.566  1.00  0.00    -0.448 C  
BRANCH  26  27
HETATM   27  C   UNL     1     -12.104  11.583  70.465  1.00  0.00    -0.378 C  
BRANCH  27  28
HETATM   28  O   UNL     1     -12.411  10.910  69.249  1.00  0.00    -0.392 OA 
BRANCH  28  29
HETATM   29  C   UNL     1     -11.555  11.338  68.195  1.00  0.00    -0.289 C  
BRANCH  29  30
HETATM   30  C   UNL     1     -10.113  11.274  68.673  1.00  0.00    -0.208 C  
BRANCH  30  31
HETATM   31  O   UNL     1      -9.666   9.923  68.615  1.00  0.00    -0.150 OA 
BRANCH  31  32
HETATM   32  C   UNL     1      -9.177   9.485  69.880  1.00  0.00    -0.220 C  
BRANCH  32  33
HETATM   33  C   UNL     1      -9.336   7.974  69.975  1.00  0.00    -0.156 C  
BRANCH  33  34
HETATM   34  O   UNL     1     -10.293   7.542  69.012  1.00  0.00    -0.204 OA 
BRANCH  34  35
HETATM   35  C   UNL     1     -11.341   6.792  69.620  1.00  0.00    -0.272 C  
BRANCH  35  36
HETATM   36  C   UNL     1     -11.731   7.462  70.930  1.00  0.00    -0.296 C  
BRANCH  36  37
HETATM   37  O   UNL     1     -11.470   6.576  72.020  1.00  0.00    -0.270 OA 
BRANCH  37  38
HETATM   38  C   UNL     1     -11.035   7.303  73.176  1.00  0.00    -0.340 C  
BRANCH  38  39
HETATM   39  C   UNL     1      -9.600   6.895  73.487  1.00  0.00    -0.192 C  
HETATM   40  O   UNL     1      -9.034   7.794  74.440  1.00  0.00    -0.437 OA 
HETATM   41  H   UNL     1      -8.140   7.539  74.633  1.00  0.00     0.000 HD 
ENDBRANCH  38  39
ENDBRANCH  37  38
ENDBRANCH  36  37
ENDBRANCH  35  36
ENDBRANCH  34  35
ENDBRANCH  33  34
ENDBRANCH  32  33
ENDBRANCH  31  32
ENDBRANCH  30  31
ENDBRANCH  29  30
ENDBRANCH  28  29
ENDBRANCH  27  28
ENDBRANCH  26  27
ENDBRANCH  25  26
ENDBRANCH  24  25
ENDBRANCH  23  24
ENDBRANCH  22  23
ENDBRANCH  21  22
ENDBRANCH  20  21
ENDBRANCH  19  20
ENDBRANCH  18  19
ENDBRANCH  17  18
ENDBRANCH  16  17
ENDBRANCH  15  16
ENDBRANCH  14  15
ENDBRANCH  13  14
ENDBRANCH  12  13
ENDBRANCH  11  12
ENDBRANCH  10  11
ENDBRANCH   9  10
ENDBRANCH   8   9
ENDBRANCH   7   8
ENDBRANCH   6   7
ENDBRANCH   5   6
ENDBRANCH   4   5
ENDBRANCH   3   4
ENDBRANCH   2   3
TORSDOF 37
ENDMDL
MODEL       85
REMARK 921   NORMALIZED FREE ENERGY PREDICTED BY IDOCK:   -3.32 KCAL/MOL
REMARK 922        TOTAL FREE ENERGY PREDICTED BY IDOCK:  -14.11 KCAL/MOL
REMARK 923 INTER-LIGAND FREE ENERGY PREDICTED BY IDOCK:  -10.83 KCAL/MOL
REMARK 924 INTRA-LIGAND FREE ENERGY PREDICTED BY IDOCK:   -3.28 KCAL/MOL
REMARK 927      BINDING AFFINITY PREDICTED BY RF-SCORE:    0.00 PKD
ROOT
HETATM    1  C   UNL     1     -10.855  19.538  67.169  1.00  0.00    -0.555 C  
HETATM    2  C   UNL     1      -9.415  20.012  67.256  1.00  0.00    -0.509 C  
ENDROOT
BRANCH   2   3
HETATM    3  C   UNL     1      -8.702  19.385  68.450  1.00  0.00    -0.397 C  
BRANCH   3   4
HETATM    4  C   UNL     1      -7.431  18.658  68.017  1.00  0.00    -0.268 C  
BRANCH   4   5
HETATM    5  C   UNL     1      -7.591  18.078  66.614  1.00  0.00    -0.264 C  
BRANCH   5   6
HETATM    6  C   UNL     1      -7.095  16.637  66.560  1.00  0.00    -0.212 C  
BRANCH   6   7
HETATM    7  C   UNL     1      -6.772  16.125  67.960  1.00  0.00    -0.143 C  
BRANCH   7   8
HETATM    8  C   UNL     1      -6.493  14.628  67.932  1.00  0.00    -0.177 C  
BRANCH   8   9
HETATM    9  C   UNL     1      -7.767  13.841  67.641  1.00  0.00    -0.187 C  
BRANCH   9  10
HETATM   10  C   UNL     1      -7.435  12.374  67.400  1.00  0.00    -0.157 C  
BRANCH  10  11
HETATM   11  C   UNL     1      -7.834  11.516  68.591  1.00  0.00    -0.137 C  
BRANCH  11  12
HETATM   12  C   UNL     1      -6.637  11.278  69.495  1.00  0.00    -0.129 C  
BRANCH  12  13
HETATM   13  O   UNL     1      -7.072  10.511  70.612  1.00  0.00    -0.250 OA 
BRANCH  13  14
HETATM   14  C   UNL     1      -8.073   9.577  70.221  1.00  0.00    -0.181 C  
BRANCH  14  15
HETATM   15  C   UNL     1      -8.175   8.485  71.270  1.00  0.00    -0.142 C  
BRANCH  15  16
HETATM   16  O   UNL     1      -9.018   8.952  72.318  1.00  0.00    -0.388 OA 
BRANCH  16  17
HETATM   17  C   UNL     1      -9.064   8.026  73.397  1.00  0.00    -0.273 C  
BRANCH  17  18
HETATM   18  C   UNL     1     -10.057   6.929  73.049  1.00  0.00    -0.201 C  
BRANCH  18  19
HETATM   19  O   UNL     1     -11.328   7.519  72.806  1.00  0.00    -0.337 OA 
BRANCH  19  20
HETATM   20  C   UNL     1     -12.103   6.737  71.895  1.00  0.00    -0.334 C  
BRANCH  20  21
HETATM   21  C   UNL     1     -11.708   7.114  70.473  1.00  0.00    -0.272 C  
BRANCH  21  22
HETATM   22  O   UNL     1     -11.111   5.975  69.846  1.00  0.00    -0.362 OA 
BRANCH  22  23
HETATM   23  C   UNL     1     -11.050   6.129  68.433  1.00  0.00    -0.248 C  
BRANCH  23  24
HETATM   24  C   UNL     1     -10.052   7.227  68.099  1.00  0.00    -0.173 C  
BRANCH  24  25
HETATM   25  O   UNL     1      -9.556   7.010  66.781  1.00  0.00    -0.158 OA 
BRANCH  25  26
HETATM   26  C   UNL     1      -8.296   7.642  66.594  1.00  0.00    -0.127 C  
BRANCH  26  27
HETATM   27  C   UNL     1      -8.180   8.083  65.142  1.00  0.00    -0.144 C  
BRANCH  27  28
HETATM   28  O   UNL     1      -7.926   9.483  65.099  1.00  0.00    -0.110 OA 
BRANCH  28  29
HETATM   29  C   UNL     1      -8.831  10.142  64.218  1.00  0.00    -0.222 C  
BRANCH  29  30
HETATM   30  C   UNL     1     -10.156  10.345  64.934  1.00  0.00    -0.312 C  
BRANCH  30  31
HETATM   31  O   UNL     1     -10.737  11.569  64.494  1.00  0.00    -0.299 OA 
BRANCH  31  32
HETATM   32  C   UNL     1     -11.472  12.198  65.540  1.00  0.00    -0.343 C  
BRANCH  32  33
HETATM   33  C   UNL     1     -11.156  11.501  66.856  1.00  0.00    -0.307 C  
BRANCH  33  34
HETATM   34  O   UNL     1     -12.197  11.772  67.791  1.00  0.00    -0.536 OA 
BRANCH  34  35
HETATM   35  C   UNL     1     -11.970  11.104  69.030  1.00  0.00    -0.320 C  
BRANCH  35  36
HETATM   36  C   UNL     1     -12.000  12.128  70.155  1.00  0.00    -0.314 C  
BRANCH  36  37
HETATM   37  O   UNL     1     -11.295  13.304  69.756  1.00  0.00    -0.183 OA 
BRANCH  37  38
HETATM   38  C   UNL     1     -12.032  14.484  70.098  1.00  0.00    -0.315 C  
BRANCH  38  39
HETATM   39  C   UNL     1     -11.981  15.442  68.913  1.00  0.00    -0.273 C  
HETATM   40  O   UNL     1     -12.335  14.752  67.715  1.00  0.00    -0.570 OA 
HETATM   41  H   UNL     1     -12.303  15.348  66.977  1.00  0.00     0.000 HD 
ENDBRANCH  38  39
ENDBRANCH  37  38
ENDBRANCH  36  37
ENDBRANCH  35  36
ENDBRANCH  34  35
ENDBRANCH  33  34
ENDBRANCH  32  33
ENDBRANCH  31  32
ENDBRANCH  30  31
ENDBRANCH  29  30
ENDBRANCH  28  29
ENDBRANCH  27  28
ENDBRANCH  26  27
ENDBRANCH  25  26
ENDBRANCH  24  25
ENDBRANCH  23  24
ENDBRANCH  22  23
ENDBRANCH  21  22
ENDBRANCH  20  21
ENDBRANCH  19  20
ENDBRANCH  18  19
ENDBRANCH  17  18
ENDBRANCH  16  17
ENDBRANCH  15  16
ENDBRANCH  14  15
ENDBRANCH  13  14
ENDBRANCH  12  13
ENDBRANCH  11  12
ENDBRANCH  10  11
ENDBRANCH   9  10
ENDBRANCH   8   9
ENDBRANCH   7   8
ENDBRANCH   6   7
ENDBRANCH   5   6
ENDBRANCH   4   5
ENDBRANCH   3   4
ENDBRANCH   2   3
TORSDOF 37
ENDMDL
MODEL       86
REMARK 921   NORMALIZED FREE ENERGY PREDICTED BY IDOCK:   -3.30 KCAL/MOL
REMARK 922        TOTAL FREE ENERGY PREDICTED BY IDOCK:  -14.07 KCAL/MOL
REMARK 923 INTER-LIGAND FREE ENERGY PREDICTED BY IDOCK:  -10.85 KCAL/MOL
REMARK 924 INTRA-LIGAND FREE ENERGY PREDICTED BY IDOCK:   -3.22 KCAL/MOL
REMARK 927      BINDING AFFINITY PREDICTED BY RF-SCORE:    0.00 PKD
ROOT
HETATM    1  C   UNL     1      -9.753   6.831  70.472  1.00  0.00    -0.184 C  
HETATM    2  C   UNL     1      -8.796   7.139  71.610  1.00  0.00    -0.121 C  
ENDROOT
BRANCH   2   3
HETATM    3  C   UNL     1      -9.244   6.463  72.902  1.00  0.00    -0.140 C  
BRANCH   3   4
HETATM    4  C   UNL     1     -10.760   6.276  72.932  1.00  0.00    -0.274 C  
BRANCH   4   5
HETATM    5  C   UNL     1     -11.121   4.843  73.315  1.00  0.00    -0.410 C  
BRANCH   5   6
HETATM    6  C   UNL     1      -9.914   3.923  73.180  1.00  0.00    -0.189 C  
BRANCH   6   7
HETATM    7  C   UNL     1     -10.138   2.898  72.073  1.00  0.00    -0.184 C  
BRANCH   7   8
HETATM    8  C   UNL     1      -9.471   3.350  70.780  1.00  0.00    -0.240 C  
BRANCH   8   9
HETATM    9  C   UNL     1      -8.104   2.693  70.613  1.00  0.00    -0.058 C  
BRANCH   9  10
HETATM   10  C   UNL     1      -6.998   3.716  70.838  1.00  0.00    -0.033 C  
BRANCH  10  11
HETATM   11  C   UNL     1      -6.957   4.739  69.713  1.00  0.00    -0.053 C  
BRANCH  11  12
HETATM   12  C   UNL     1      -6.572   4.070  68.404  1.00  0.00    -0.045 C  
BRANCH  12  13
HETATM   13  O   UNL     1      -7.428   4.569  67.384  1.00  0.00    -0.073 OA 
BRANCH  13  14
HETATM   14  C   UNL     1      -8.387   3.586  67.008  1.00  0.00    -0.096 C  
BRANCH  14  15
HETATM   15  C   UNL     1      -9.783   4.138  67.233  1.00  0.00    -0.170 C  
BRANCH  15  16
HETATM   16  O   UNL     1     -10.028   5.142  66.254  1.00  0.00    -0.173 OA 
BRANCH  16  17
HETATM   17  C   UNL     1     -10.641   6.290  66.832  1.00  0.00    -0.305 C  
BRANCH  17  18
HETATM   18  C   UNL     1      -9.664   7.451  66.746  1.00  0.00    -0.207 C  
BRANCH  18  19
HETATM   19  O   UNL     1     -10.388   8.641  66.459  1.00  0.00    -0.282 OA 
BRANCH  19  20
HETATM   20  C   UNL     1      -9.512   9.754  66.264  1.00  0.00    -0.195 C  
BRANCH  20  21
HETATM   21  C   UNL     1     -10.310  10.898  65.652  1.00  0.00    -0.242 C  
BRANCH  21  22
HETATM   22  O   UNL     1     -10.478  10.644  64.254  1.00  0.00    -0.349 OA 
BRANCH  22  23
HETATM   23  C   UNL     1     -11.143  11.720  63.604  1.00  0.00    -0.439 C  
BRANCH  23  24
HETATM   24  C   UNL     1     -11.707  12.661  64.658  1.00  0.00    -0.357 C  
BRANCH  24  25
HETATM   25  O   UNL     1     -12.437  13.695  64.004  1.00  0.00    -0.659 OA 
BRANCH  25  26
HETATM   26  C   UNL     1     -12.239  14.951  64.642  1.00  0.00    -0.341 C  
BRANCH  26  27
HETATM   27  C   UNL     1     -11.052  14.837  65.588  1.00  0.00    -0.342 C  
BRANCH  27  28
HETATM   28  O   UNL     1     -10.726  16.132  66.083  1.00  0.00    -0.296 OA 
BRANCH  28  29
HETATM   29  C   UNL     1     -10.091  16.050  67.355  1.00  0.00    -0.258 C  
BRANCH  29  30
HETATM   30  C   UNL     1     -10.544  17.223  68.209  1.00  0.00    -0.383 C  
BRANCH  30  31
HETATM   31  O   UNL     1     -10.991  16.734  69.469  1.00  0.00    -0.297 OA 
BRANCH  31  32
HETATM   32  C   UNL     1     -10.922  15.311  69.526  1.00  0.00    -0.277 C  
BRANCH  32  33
HETATM   33  C   UNL     1     -12.190  14.780  70.180  1.00  0.00    -0.337 C  
BRANCH  33  34
HETATM   34  O   UNL     1     -12.017  13.399  70.485  1.00  0.00    -0.326 OA 
BRANCH  34  35
HETATM   35  C   UNL     1     -11.435  12.694  69.391  1.00  0.00    -0.266 C  
BRANCH  35  36
HETATM   36  C   UNL     1     -11.835  11.228  69.481  1.00  0.00    -0.357 C  
BRANCH  36  37
HETATM   37  O   UNL     1     -12.861  11.068  70.462  1.00  0.00    -0.266 OA 
BRANCH  37  38
HETATM   38  C   UNL     1     -12.397  10.277  71.563  1.00  0.00    -0.390 C  
BRANCH  38  39
HETATM   39  C   UNL     1     -13.378   9.131  71.778  1.00  0.00    -0.406 C  
HETATM   40  O   UNL     1     -13.227   8.601  73.094  1.00  0.00    -0.826 OA 
HETATM   41  H   UNL     1     -13.838   7.887  73.228  1.00  0.00     0.000 HD 
ENDBRANCH  38  39
ENDBRANCH  37  38
ENDBRANCH  36  37
ENDBRANCH  35  36
ENDBRANCH  34  35
ENDBRANCH  33  34
ENDBRANCH  32  33
ENDBRANCH  31  32
ENDBRANCH  30  31
ENDBRANCH  29  30
ENDBRANCH  28  29
ENDBRANCH  27  28
ENDBRANCH  26  27
ENDBRANCH  25  26
ENDBRANCH  24  25
ENDBRANCH  23  24
ENDBRANCH  22  23
ENDBRANCH  21  22
ENDBRANCH  20  21
ENDBRANCH  19  20
ENDBRANCH  18  19
ENDBRANCH  17  18
ENDBRANCH  16  17
ENDBRANCH  15  16
ENDBRANCH  14  15
ENDBRANCH  13  14
ENDBRANCH  12  13
ENDBRANCH  11  12
ENDBRANCH  10  11
ENDBRANCH   9  10
ENDBRANCH   8   9
ENDBRANCH   7   8
ENDBRANCH   6   7
ENDBRANCH   5   6
ENDBRANCH   4   5
ENDBRANCH   3   4
ENDBRANCH   2   3
TORSDOF 37
ENDMDL
MODEL       87
REMARK 921   NORMALIZED FREE ENERGY PREDICTED BY IDOCK:   -3.30 KCAL/MOL
REMARK 922        TOTAL FREE ENERGY PREDICTED BY IDOCK:  -14.06 KCAL/MOL
REMARK 923 INTER-LIGAND FREE ENERGY PREDICTED BY IDOCK:  -10.82 KCAL/MOL
REMARK 924 INTRA-LIGAND FREE ENERGY PREDICTED BY IDOCK:   -3.24 KCAL/MOL
REMARK 927      BINDING AFFINITY PREDICTED BY RF-SCORE:    0.00 PKD
ROOT
HETATM    1  C   UNL     1      -6.043  17.585  69.541  1.00  0.00    -0.252 C  
HETATM    2  C   UNL     1      -6.857  18.827  69.221  1.00  0.00    -0.266 C  
ENDROOT
BRANCH   2   3
HETATM    3  C   UNL     1      -5.992  19.894  68.556  1.00  0.00    -0.277 C  
BRANCH   3   4
HETATM    4  C   UNL     1      -5.981  19.731  67.037  1.00  0.00    -0.184 C  
BRANCH   4   5
HETATM    5  C   UNL     1      -7.038  20.622  66.390  1.00  0.00    -0.242 C  
BRANCH   5   6
HETATM    6  C   UNL     1      -8.273  19.814  66.008  1.00  0.00    -0.327 C  
BRANCH   6   7
HETATM    7  C   UNL     1      -9.509  20.345  66.725  1.00  0.00    -0.478 C  
BRANCH   7   8
HETATM    8  C   UNL     1     -10.489  19.216  67.014  1.00  0.00    -0.530 C  
BRANCH   8   9
HETATM    9  C   UNL     1     -10.574  18.252  65.834  1.00  0.00    -0.274 C  
BRANCH   9  10
HETATM   10  C   UNL     1     -10.657  16.816  66.333  1.00  0.00    -0.192 C  
BRANCH  10  11
HETATM   11  C   UNL     1     -10.373  15.826  65.213  1.00  0.00    -0.387 C  
BRANCH  11  12
HETATM   12  C   UNL     1     -11.668  15.205  64.717  1.00  0.00    -0.331 C  
BRANCH  12  13
HETATM   13  O   UNL     1     -11.564  13.793  64.862  1.00  0.00    -0.327 OA 
BRANCH  13  14
HETATM   14  C   UNL     1     -12.148  13.130  63.746  1.00  0.00    -0.495 C  
BRANCH  14  15
HETATM   15  C   UNL     1     -11.524  11.753  63.600  1.00  0.00    -0.431 C  
BRANCH  15  16
HETATM   16  O   UNL     1     -10.211  11.914  63.076  1.00  0.00    -0.365 OA 
BRANCH  16  17
HETATM   17  C   UNL     1      -9.491  10.686  63.098  1.00  0.00    -0.332 C  
BRANCH  17  18
HETATM   18  C   UNL     1      -9.579  10.101  64.498  1.00  0.00    -0.311 C  
BRANCH  18  19
HETATM   19  O   UNL     1      -8.519  10.631  65.285  1.00  0.00    -0.169 OA 
BRANCH  19  20
HETATM   20  C   UNL     1      -8.995  11.129  66.538  1.00  0.00    -0.178 C  
BRANCH  20  21
HETATM   21  C   UNL     1      -7.794  11.478  67.408  1.00  0.00    -0.143 C  
BRANCH  21  22
HETATM   22  O   UNL     1      -8.205  12.429  68.395  1.00  0.00    -0.164 OA 
BRANCH  22  23
HETATM   23  C   UNL     1      -8.681  13.629  67.798  1.00  0.00    -0.184 C  
BRANCH  23  24
HETATM   24  C   UNL     1      -9.774  14.218  68.676  1.00  0.00    -0.213 C  
BRANCH  24  25
HETATM   25  O   UNL     1     -11.041  13.868  68.126  1.00  0.00    -0.242 OA 
BRANCH  25  26
HETATM   26  C   UNL     1     -12.067  13.938  69.108  1.00  0.00    -0.338 C  
BRANCH  26  27
HETATM   27  C   UNL     1     -11.656  13.094  70.306  1.00  0.00    -0.002 C  
BRANCH  27  28
HETATM   28  O   UNL     1     -12.285  11.819  70.216  1.00  0.00    -0.324 OA 
BRANCH  28  29
HETATM   29  C   UNL     1     -11.375  10.832  69.742  1.00  0.00    -0.300 C  
BRANCH  29  30
HETATM   30  C   UNL     1     -11.699   9.503  70.407  1.00  0.00    -0.170 C  
BRANCH  30  31
HETATM   31  O   UNL     1     -12.117   9.746  71.746  1.00  0.00    -0.390 OA 
BRANCH  31  32
HETATM   32  C   UNL     1     -13.006   8.729  72.203  1.00  0.00    -0.406 C  
BRANCH  32  33
HETATM   33  C   UNL     1     -12.574   7.393  71.615  1.00  0.00    -0.358 C  
BRANCH  33  34
HETATM   34  O   UNL     1     -11.592   6.804  72.462  1.00  0.00    -0.260 OA 
BRANCH  34  35
HETATM   35  C   UNL     1     -11.183   5.528  71.976  1.00  0.00    -0.156 C  
BRANCH  35  36
HETATM   36  C   UNL     1      -9.691   5.360  72.228  1.00  0.00    -0.157 C  
BRANCH  36  37
HETATM   37  O   UNL     1      -8.993   6.522  71.778  1.00  0.00    -0.139 OA 
BRANCH  37  38
HETATM   38  C   UNL     1      -7.862   6.795  72.616  1.00  0.00    -0.100 C  
BRANCH  38  39
HETATM   39  C   UNL     1      -8.113   8.109  73.346  1.00  0.00    -0.194 C  
HETATM   40  O   UNL     1      -9.322   8.703  72.875  1.00  0.00    -0.241 OA 
HETATM   41  H   UNL     1      -9.479   9.521  73.330  1.00  0.00     0.000 HD 
ENDBRANCH  38  39
ENDBRANCH  37  38
ENDBRANCH  36  37
ENDBRANCH  35  36
ENDBRANCH  34  35
ENDBRANCH  33  34
ENDBRANCH  32  33
ENDBRANCH  31  32
ENDBRANCH  30  31
ENDBRANCH  29  30
ENDBRANCH  28  29
ENDBRANCH  27  28
ENDBRANCH  26  27
ENDBRANCH  25  26
ENDBRANCH  24  25
ENDBRANCH  23  24
ENDBRANCH  22  23
ENDBRANCH  21  22
ENDBRANCH  20  21
ENDBRANCH  19  20
ENDBRANCH  18  19
ENDBRANCH  17  18
ENDBRANCH  16  17
ENDBRANCH  15  16
ENDBRANCH  14  15
ENDBRANCH  13  14
ENDBRANCH  12  13
ENDBRANCH  11  12
ENDBRANCH  10  11
ENDBRANCH   9  10
ENDBRANCH   8   9
ENDBRANCH   7   8
ENDBRANCH   6   7
ENDBRANCH   5   6
ENDBRANCH   4   5
ENDBRANCH   3   4
ENDBRANCH   2   3
TORSDOF 37
ENDMDL
MODEL       88
REMARK 921   NORMALIZED FREE ENERGY PREDICTED BY IDOCK:   -3.30 KCAL/MOL
REMARK 922        TOTAL FREE ENERGY PREDICTED BY IDOCK:  -14.06 KCAL/MOL
REMARK 923 INTER-LIGAND FREE ENERGY PREDICTED BY IDOCK:  -11.14 KCAL/MOL
REMARK 924 INTRA-LIGAND FREE ENERGY PREDICTED BY IDOCK:   -2.92 KCAL/MOL
REMARK 927      BINDING AFFINITY PREDICTED BY RF-SCORE:    0.00 PKD
ROOT
HETATM    1  C   UNL     1      -9.976   4.310  69.717  1.00  0.00    -0.167 C  
HETATM    2  C   UNL     1      -9.518   5.739  69.953  1.00  0.00    -0.185 C  
ENDROOT
BRANCH   2   3
HETATM    3  C   UNL     1      -8.067   5.779  70.424  1.00  0.00    -0.106 C  
BRANCH   3   4
HETATM    4  C   UNL     1      -7.860   6.856  71.486  1.00  0.00    -0.100 C  
BRANCH   4   5
HETATM    5  C   UNL     1      -8.881   7.979  71.325  1.00  0.00    -0.163 C  
BRANCH   5   6
HETATM    6  C   UNL     1      -9.531   8.321  72.660  1.00  0.00    -0.354 C  
BRANCH   6   7
HETATM    7  C   UNL     1     -10.817   7.524  72.854  1.00  0.00    -0.425 C  
BRANCH   7   8
HETATM    8  C   UNL     1     -12.035   8.429  72.723  1.00  0.00    -0.214 C  
BRANCH   8   9
HETATM    9  C   UNL     1     -12.307   8.771  71.262  1.00  0.00    -0.313 C  
BRANCH   9  10
HETATM   10  C   UNL     1     -13.082  10.078  71.162  1.00  0.00    -0.472 C  
BRANCH  10  11
HETATM   11  C   UNL     1     -12.218  11.188  70.584  1.00  0.00    -0.492 C  
BRANCH  11  12
HETATM   12  C   UNL     1     -11.060  10.601  69.796  1.00  0.00    -0.295 C  
BRANCH  12  13
HETATM   13  O   UNL     1     -11.315  10.810  68.412  1.00  0.00    -0.268 OA 
BRANCH  13  14
HETATM   14  C   UNL     1     -10.729   9.774  67.631  1.00  0.00    -0.274 C  
BRANCH  14  15
HETATM   15  C   UNL     1      -9.217   9.890  67.702  1.00  0.00    -0.133 C  
BRANCH  15  16
HETATM   16  O   UNL     1      -8.689   8.611  68.038  1.00  0.00    -0.139 OA 
BRANCH  16  17
HETATM   17  C   UNL     1      -8.406   7.846  66.871  1.00  0.00    -0.116 C  
BRANCH  17  18
HETATM   18  C   UNL     1      -7.588   8.702  65.919  1.00  0.00    -0.089 C  
BRANCH  18  19
HETATM   19  O   UNL     1      -8.182   8.651  64.628  1.00  0.00    -0.151 OA 
BRANCH  19  20
HETATM   20  C   UNL     1      -7.936   9.850  63.890  1.00  0.00    -0.149 C  
BRANCH  20  21
HETATM   21  C   UNL     1      -8.963   9.950  62.769  1.00  0.00    -0.262 C  
BRANCH  21  22
HETATM   22  O   UNL     1      -9.551  11.254  62.801  1.00  0.00    -0.342 OA 
BRANCH  22  23
HETATM   23  C   UNL     1     -10.585  11.337  63.774  1.00  0.00    -0.392 C  
BRANCH  23  24
HETATM   24  C   UNL     1     -10.818  12.799  64.123  1.00  0.00    -0.406 C  
BRANCH  24  25
HETATM   25  O   UNL     1     -12.154  12.950  64.593  1.00  0.00    -0.372 OA 
BRANCH  25  26
HETATM   26  C   UNL     1     -12.402  14.281  65.028  1.00  0.00    -0.428 C  
BRANCH  26  27
HETATM   27  C   UNL     1     -11.699  14.501  66.360  1.00  0.00    -0.363 C  
BRANCH  27  28
HETATM   28  O   UNL     1     -12.523  14.003  67.409  1.00  0.00    -0.217 OA 
BRANCH  28  29
HETATM   29  C   UNL     1     -11.908  14.194  68.679  1.00  0.00    -0.348 C  
BRANCH  29  30
HETATM   30  C   UNL     1     -10.415  14.396  68.478  1.00  0.00    -0.254 C  
BRANCH  30  31
HETATM   31  O   UNL     1      -9.959  15.401  69.377  1.00  0.00    -0.239 OA 
BRANCH  31  32
HETATM   32  C   UNL     1     -10.846  16.516  69.401  1.00  0.00    -0.311 C  
BRANCH  32  33
HETATM   33  C   UNL     1     -10.159  17.710  68.753  1.00  0.00    -0.377 C  
BRANCH  33  34
HETATM   34  O   UNL     1     -10.666  17.882  67.433  1.00  0.00    -0.370 OA 
BRANCH  34  35
HETATM   35  C   UNL     1      -9.939  18.882  66.723  1.00  0.00    -0.360 C  
BRANCH  35  36
HETATM   36  C   UNL     1      -8.825  19.409  67.617  1.00  0.00    -0.308 C  
BRANCH  36  37
HETATM   37  O   UNL     1      -8.105  20.436  66.933  1.00  0.00    -0.308 OA 
BRANCH  37  38
HETATM   38  C   UNL     1      -6.910  20.783  67.646  1.00  0.00    -0.336 C  
BRANCH  38  39
HETATM   39  C   UNL     1      -6.403  19.539  68.366  1.00  0.00    -0.243 C  
HETATM   40  O   UNL     1      -6.072  19.860  69.716  1.00  0.00    -0.296 OA 
HETATM   41  H   UNL     1      -5.756  19.085  70.164  1.00  0.00     0.000 HD 
ENDBRANCH  38  39
ENDBRANCH  37  38
ENDBRANCH  36  37
ENDBRANCH  35  36
ENDBRANCH  34  35
ENDBRANCH  33  34
ENDBRANCH  32  33
ENDBRANCH  31  32
ENDBRANCH  30  31
ENDBRANCH  29  30
ENDBRANCH  28  29
ENDBRANCH  27  28
ENDBRANCH  26  27
ENDBRANCH  25  26
ENDBRANCH  24  25
ENDBRANCH  23  24
ENDBRANCH  22  23
ENDBRANCH  21  22
ENDBRANCH  20  21
ENDBRANCH  19  20
ENDBRANCH  18  19
ENDBRANCH  17  18
ENDBRANCH  16  17
ENDBRANCH  15  16
ENDBRANCH  14  15
ENDBRANCH  13  14
ENDBRANCH  12  13
ENDBRANCH  11  12
ENDBRANCH  10  11
ENDBRANCH   9  10
ENDBRANCH   8   9
ENDBRANCH   7   8
ENDBRANCH   6   7
ENDBRANCH   5   6
ENDBRANCH   4   5
ENDBRANCH   3   4
ENDBRANCH   2   3
TORSDOF 37
ENDMDL
MODEL       89
REMARK 921   NORMALIZED FREE ENERGY PREDICTED BY IDOCK:   -3.30 KCAL/MOL
REMARK 922        TOTAL FREE ENERGY PREDICTED BY IDOCK:  -14.05 KCAL/MOL
REMARK 923 INTER-LIGAND FREE ENERGY PREDICTED BY IDOCK:  -11.50 KCAL/MOL
REMARK 924 INTRA-LIGAND FREE ENERGY PREDICTED BY IDOCK:   -2.55 KCAL/MOL
REMARK 927      BINDING AFFINITY PREDICTED BY RF-SCORE:    0.00 PKD
ROOT
HETATM    1  C   UNL     1     -12.720  11.974  63.507  1.00  0.00    -0.567 C  
HETATM    2  C   UNL     1     -11.844  13.049  64.126  1.00  0.00    -0.478 C  
ENDROOT
BRANCH   2   3
HETATM    3  C   UNL     1     -12.461  13.584  65.415  1.00  0.00    -0.540 C  
BRANCH   3   4
HETATM    4  C   UNL     1     -11.878  12.883  66.640  1.00  0.00    -0.461 C  
BRANCH   4   5
HETATM    5  C   UNL     1     -10.442  13.335  66.891  1.00  0.00    -0.261 C  
BRANCH   5   6
HETATM    6  C   UNL     1      -9.448  12.288  66.403  1.00  0.00    -0.240 C  
BRANCH   6   7
HETATM    7  C   UNL     1      -9.732  10.934  67.046  1.00  0.00    -0.203 C  
BRANCH   7   8
HETATM    8  C   UNL     1     -10.301   9.962  66.022  1.00  0.00    -0.202 C  
BRANCH   8   9
HETATM    9  C   UNL     1      -9.310   9.720  64.889  1.00  0.00    -0.327 C  
BRANCH   9  10
HETATM   10  C   UNL     1      -8.468   8.484  65.180  1.00  0.00    -0.193 C  
BRANCH  10  11
HETATM   11  C   UNL     1      -9.155   7.576  66.190  1.00  0.00    -0.179 C  
BRANCH  11  12
HETATM   12  C   UNL     1      -8.879   6.119  65.862  1.00  0.00    -0.143 C  
BRANCH  12  13
HETATM   13  O   UNL     1      -8.971   5.369  67.068  1.00  0.00    -0.114 OA 
BRANCH  13  14
HETATM   14  C   UNL     1      -8.413   4.071  66.897  1.00  0.00    -0.101 C  
BRANCH  14  15
HETATM   15  C   UNL     1      -8.594   3.276  68.178  1.00  0.00    -0.095 C  
BRANCH  15  16
HETATM   16  O   UNL     1      -9.481   3.996  69.027  1.00  0.00    -0.158 OA 
BRANCH  16  17
HETATM   17  C   UNL     1      -8.886   4.259  70.293  1.00  0.00    -0.084 C  
BRANCH  17  18
HETATM   18  C   UNL     1      -9.964   4.170  71.360  1.00  0.00    -0.153 C  
BRANCH  18  19
HETATM   19  O   UNL     1     -10.501   5.468  71.581  1.00  0.00    -0.218 OA 
BRANCH  19  20
HETATM   20  C   UNL     1      -9.656   6.249  72.428  1.00  0.00    -0.150 C  
BRANCH  20  21
HETATM   21  C   UNL     1     -10.531   7.040  73.392  1.00  0.00    -0.347 C  
BRANCH  21  22
HETATM   22  O   UNL     1     -11.223   8.053  72.656  1.00  0.00    -0.358 OA 
BRANCH  22  23
HETATM   23  C   UNL     1     -10.355   8.727  71.753  1.00  0.00    -0.343 C  
BRANCH  23  24
HETATM   24  C   UNL     1     -11.187   9.356  70.645  1.00  0.00    -0.284 C  
BRANCH  24  25
HETATM   25  O   UNL     1     -11.723  10.588  71.119  1.00  0.00    -0.329 OA 
BRANCH  25  26
HETATM   26  C   UNL     1     -12.178  11.400  70.043  1.00  0.00    -0.301 C  
BRANCH  26  27
HETATM   27  C   UNL     1     -12.598  12.755  70.595  1.00  0.00    -0.168 C  
BRANCH  27  28
HETATM   28  O   UNL     1     -11.675  13.745  70.152  1.00  0.00    -0.279 OA 
BRANCH  28  29
HETATM   29  C   UNL     1     -12.292  15.026  70.082  1.00  0.00    -0.333 C  
BRANCH  29  30
HETATM   30  C   UNL     1     -11.271  16.087  70.460  1.00  0.00    -0.378 C  
BRANCH  30  31
HETATM   31  O   UNL     1     -10.233  16.099  69.486  1.00  0.00    -0.248 OA 
BRANCH  31  32
HETATM   32  C   UNL     1     -10.582  16.911  68.368  1.00  0.00    -0.365 C  
BRANCH  32  33
HETATM   33  C   UNL     1     -10.102  18.333  68.620  1.00  0.00    -0.385 C  
BRANCH  33  34
HETATM   34  O   UNL     1     -10.955  19.245  67.933  1.00  0.00    -0.320 OA 
BRANCH  34  35
HETATM   35  C   UNL     1     -10.499  19.484  66.605  1.00  0.00    -0.488 C  
BRANCH  35  36
HETATM   36  C   UNL     1      -9.062  19.986  66.660  1.00  0.00    -0.363 C  
BRANCH  36  37
HETATM   37  O   UNL     1      -8.267  19.276  65.710  1.00  0.00    -0.445 OA 
BRANCH  37  38
HETATM   38  C   UNL     1      -7.120  18.690  66.340  1.00  0.00    -0.235 C  
BRANCH  38  39
HETATM   39  C   UNL     1      -7.273  17.174  66.300  1.00  0.00    -0.273 C  
HETATM   40  O   UNL     1      -8.484  16.826  65.629  1.00  0.00    -0.387 OA 
HETATM   41  H   UNL     1      -8.579  15.881  65.604  1.00  0.00     0.000 HD 
ENDBRANCH  38  39
ENDBRANCH  37  38
ENDBRANCH  36  37
ENDBRANCH  35  36
ENDBRANCH  34  35
ENDBRANCH  33  34
ENDBRANCH  32  33
ENDBRANCH  31  32
ENDBRANCH  30  31
ENDBRANCH  29  30
ENDBRANCH  28  29
ENDBRANCH  27  28
ENDBRANCH  26  27
ENDBRANCH  25  26
ENDBRANCH  24  25
ENDBRANCH  23  24
ENDBRANCH  22  23
ENDBRANCH  21  22
ENDBRANCH  20  21
ENDBRANCH  19  20
ENDBRANCH  18  19
ENDBRANCH  17  18
ENDBRANCH  16  17
ENDBRANCH  15  16
ENDBRANCH  14  15
ENDBRANCH  13  14
ENDBRANCH  12  13
ENDBRANCH  11  12
ENDBRANCH  10  11
ENDBRANCH   9  10
ENDBRANCH   8   9
ENDBRANCH   7   8
ENDBRANCH   6   7
ENDBRANCH   5   6
ENDBRANCH   4   5
ENDBRANCH   3   4
ENDBRANCH   2   3
TORSDOF 37
ENDMDL
MODEL       90
REMARK 921   NORMALIZED FREE ENERGY PREDICTED BY IDOCK:   -3.28 KCAL/MOL
REMARK 922        TOTAL FREE ENERGY PREDICTED BY IDOCK:  -13.99 KCAL/MOL
REMARK 923 INTER-LIGAND FREE ENERGY PREDICTED BY IDOCK:  -10.77 KCAL/MOL
REMARK 924 INTRA-LIGAND FREE ENERGY PREDICTED BY IDOCK:   -3.22 KCAL/MOL
REMARK 927      BINDING AFFINITY PREDICTED BY RF-SCORE:    0.00 PKD
ROOT
HETATM    1  C   UNL     1     -11.211  15.465  64.862  1.00  0.00    -0.410 C  
HETATM    2  C   UNL     1     -10.868  13.998  65.055  1.00  0.00    -0.401 C  
ENDROOT
BRANCH   2   3
HETATM    3  C   UNL     1     -11.375  13.489  66.401  1.00  0.00    -0.335 C  
BRANCH   3   4
HETATM    4  C   UNL     1     -10.218  13.216  67.361  1.00  0.00    -0.232 C  
BRANCH   4   5
HETATM    5  C   UNL     1     -10.463  13.889  68.709  1.00  0.00    -0.229 C  
BRANCH   5   6
HETATM    6  C   UNL     1     -11.765  14.682  68.693  1.00  0.00    -0.362 C  
BRANCH   6   7
HETATM    7  C   UNL     1     -11.705  15.836  69.689  1.00  0.00    -0.363 C  
BRANCH   7   8
HETATM    8  C   UNL     1     -11.451  15.317  71.098  1.00  0.00    -0.414 C  
BRANCH   8   9
HETATM    9  C   UNL     1     -12.658  15.564  71.996  1.00  0.00    -0.481 C  
BRANCH   9  10
HETATM   10  C   UNL     1     -13.753  14.547  71.698  1.00  0.00    -0.486 C  
BRANCH  10  11
HETATM   11  C   UNL     1     -13.509  13.242  72.441  1.00  0.00    -0.670 C  
BRANCH  11  12
HETATM   12  C   UNL     1     -12.987  12.181  71.486  1.00  0.00    -0.295 C  
BRANCH  12  13
HETATM   13  O   UNL     1     -13.170  10.909  72.097  1.00  0.00    -0.474 OA 
BRANCH  13  14
HETATM   14  C   UNL     1     -12.301   9.943  71.515  1.00  0.00    -0.412 C  
BRANCH  14  15
HETATM   15  C   UNL     1     -12.221   8.730  72.425  1.00  0.00    -0.326 C  
BRANCH  15  16
HETATM   16  O   UNL     1     -12.722   7.606  71.711  1.00  0.00    -0.318 OA 
BRANCH  16  17
HETATM   17  C   UNL     1     -11.663   6.795  71.213  1.00  0.00    -0.336 C  
BRANCH  17  18
HETATM   18  C   UNL     1     -11.765   6.746  69.697  1.00  0.00    -0.104 C  
BRANCH  18  19
HETATM   19  O   UNL     1     -10.860   5.765  69.206  1.00  0.00    -0.311 OA 
BRANCH  19  20
HETATM   20  C   UNL     1     -10.682   5.877  67.793  1.00  0.00    -0.265 C  
BRANCH  20  21
HETATM   21  C   UNL     1      -9.676   4.823  67.345  1.00  0.00    -0.176 C  
BRANCH  21  22
HETATM   22  O   UNL     1      -9.152   4.168  68.504  1.00  0.00    -0.114 OA 
BRANCH  22  23
HETATM   23  C   UNL     1      -7.748   3.964  68.399  1.00  0.00    -0.065 C  
BRANCH  23  24
HETATM   24  C   UNL     1      -7.032   5.254  68.769  1.00  0.00    -0.060 C  
BRANCH  24  25
HETATM   25  O   UNL     1      -7.745   5.885  69.829  1.00  0.00    -0.085 OA 
BRANCH  25  26
HETATM   26  C   UNL     1      -7.298   7.220  70.028  1.00  0.00    -0.083 C  
BRANCH  26  27
HETATM   27  C   UNL     1      -8.015   8.129  69.040  1.00  0.00    -0.113 C  
BRANCH  27  28
HETATM   28  O   UNL     1      -9.064   8.816  69.716  1.00  0.00    -0.145 OA 
BRANCH  28  29
HETATM   29  C   UNL     1      -9.043  10.208  69.417  1.00  0.00    -0.203 C  
BRANCH  29  30
HETATM   30  C   UNL     1      -7.919  10.483  68.431  1.00  0.00    -0.116 C  
BRANCH  30  31
HETATM   31  O   UNL     1      -7.136  11.571  68.912  1.00  0.00    -0.097 OA 
BRANCH  31  32
HETATM   32  C   UNL     1      -6.528  12.285  67.839  1.00  0.00    -0.088 C  
BRANCH  32  33
HETATM   33  C   UNL     1      -6.341  13.737  68.255  1.00  0.00    -0.108 C  
BRANCH  33  34
HETATM   34  O   UNL     1      -6.602  14.582  67.137  1.00  0.00    -0.219 OA 
BRANCH  34  35
HETATM   35  C   UNL     1      -7.207  15.807  67.541  1.00  0.00    -0.184 C  
BRANCH  35  36
HETATM   36  C   UNL     1      -8.064  16.334  66.398  1.00  0.00    -0.299 C  
BRANCH  36  37
HETATM   37  O   UNL     1      -8.858  17.429  66.856  1.00  0.00    -0.227 OA 
BRANCH  37  38
HETATM   38  C   UNL     1      -8.719  17.603  68.272  1.00  0.00    -0.276 C  
BRANCH  38  39
HETATM   39  C   UNL     1      -8.933  19.078  68.597  1.00  0.00    -0.363 C  
HETATM   40  O   UNL     1     -10.314  19.322  68.859  1.00  0.00    -0.524 OA 
HETATM   41  H   UNL     1     -10.447  20.240  69.061  1.00  0.00     0.000 HD 
ENDBRANCH  38  39
ENDBRANCH  37  38
ENDBRANCH  36  37
ENDBRANCH  35  36
ENDBRANCH  34  35
ENDBRANCH  33  34
ENDBRANCH  32  33
ENDBRANCH  31  32
ENDBRANCH  30  31
ENDBRANCH  29  30
ENDBRANCH  28  29
ENDBRANCH  27  28
ENDBRANCH  26  27
ENDBRANCH  25  26
ENDBRANCH  24  25
ENDBRANCH  23  24
ENDBRANCH  22  23
ENDBRANCH  21  22
ENDBRANCH  20  21
ENDBRANCH  19  20
ENDBRANCH  18  19
ENDBRANCH  17  18
ENDBRANCH  16  17
ENDBRANCH  15  16
ENDBRANCH  14  15
ENDBRANCH  13  14
ENDBRANCH  12  13
ENDBRANCH  11  12
ENDBRANCH  10  11
ENDBRANCH   9  10
ENDBRANCH   8   9
ENDBRANCH   7   8
ENDBRANCH   6   7
ENDBRANCH   5   6
ENDBRANCH   4   5
ENDBRANCH   3   4
ENDBRANCH   2   3
TORSDOF 37
ENDMDL
MODEL       91
REMARK 921   NORMALIZED FREE ENERGY PREDICTED BY IDOCK:   -3.27 KCAL/MOL
REMARK 922        TOTAL FREE ENERGY PREDICTED BY IDOCK:  -13.98 KCAL/MOL
REMARK 923 INTER-LIGAND FREE ENERGY PREDICTED BY IDOCK:  -10.86 KCAL/MOL
REMARK 924 INTRA-LIGAND FREE ENERGY PREDICTED BY IDOCK:   -3.12 KCAL/MOL
REMARK 927      BINDING AFFINITY PREDICTED BY RF-SCORE:    0.00 PKD
ROOT
HETATM    1  C   UNL     1      -9.856  17.667  66.998  1.00  0.00    -0.307 C  
HETATM    2  C   UNL     1      -9.913  17.732  68.515  1.00  0.00    -0.370 C  
ENDROOT
BRANCH   2   3
HETATM    3  C   UNL     1     -10.107  16.343  69.117  1.00  0.00    -0.278 C  
BRANCH   3   4
HETATM    4  C   UNL     1     -11.531  16.158  69.636  1.00  0.00    -0.290 C  
BRANCH   4   5
HETATM    5  C   UNL     1     -11.545  16.076  71.160  1.00  0.00    -0.492 C  
BRANCH   5   6
HETATM    6  C   UNL     1     -12.148  14.757  71.629  1.00  0.00    -0.414 C  
BRANCH   6   7
HETATM    7  C   UNL     1     -12.776  14.005  70.460  1.00  0.00    -0.347 C  
BRANCH   7   8
HETATM    8  C   UNL     1     -12.066  12.676  70.234  1.00  0.00    -0.372 C  
BRANCH   8   9
HETATM    9  C   UNL     1     -11.076  12.776  69.078  1.00  0.00    -0.285 C  
BRANCH   9  10
HETATM   10  C   UNL     1     -11.778  12.493  67.757  1.00  0.00    -0.419 C  
BRANCH  10  11
HETATM   11  C   UNL     1     -11.800  13.727  66.868  1.00  0.00    -0.447 C  
BRANCH  11  12
HETATM   12  C   UNL     1     -10.454  13.911  66.187  1.00  0.00    -0.297 C  
BRANCH  12  13
HETATM   13  O   UNL     1     -10.666  13.915  64.781  1.00  0.00    -0.382 OA 
BRANCH  13  14
HETATM   14  C   UNL     1     -11.885  13.255  64.455  1.00  0.00    -0.399 C  
BRANCH  14  15
HETATM   15  C   UNL     1     -11.592  12.105  63.507  1.00  0.00    -0.474 C  
BRANCH  15  16
HETATM   16  O   UNL     1     -10.193  12.087  63.248  1.00  0.00    -0.438 OA 
BRANCH  16  17
HETATM   17  C   UNL     1      -9.651  10.783  63.421  1.00  0.00    -0.338 C  
BRANCH  17  18
HETATM   18  C   UNL     1      -9.225  10.627  64.872  1.00  0.00    -0.217 C  
BRANCH  18  19
HETATM   19  O   UNL     1      -9.546   9.311  65.307  1.00  0.00    -0.242 OA 
BRANCH  19  20
HETATM   20  C   UNL     1     -10.449   9.331  66.414  1.00  0.00    -0.087 C  
BRANCH  20  21
HETATM   21  C   UNL     1      -9.804   8.590  67.580  1.00  0.00    -0.177 C  
BRANCH  21  22
HETATM   22  O   UNL     1      -9.369   9.550  68.547  1.00  0.00    -0.137 OA 
BRANCH  22  23
HETATM   23  C   UNL     1      -9.815   9.212  69.855  1.00  0.00    -0.190 C  
BRANCH  23  24
HETATM   24  C   UNL     1     -11.336   9.185  69.866  1.00  0.00    -0.030 C  
BRANCH  24  25
HETATM   25  O   UNL     1     -11.770   8.239  70.838  1.00  0.00    -0.280 OA 
BRANCH  25  26
HETATM   26  C   UNL     1     -11.315   8.589  72.139  1.00  0.00    -0.372 C  
BRANCH  26  27
HETATM   27  C   UNL     1     -11.323   7.344  73.013  1.00  0.00    -0.234 C  
BRANCH  27  28
HETATM   28  O   UNL     1     -10.102   7.278  73.743  1.00  0.00    -0.326 OA 
BRANCH  28  29
HETATM   29  C   UNL     1      -9.017   6.917  72.895  1.00  0.00    -0.126 C  
BRANCH  29  30
HETATM   30  C   UNL     1      -8.790   5.417  72.996  1.00  0.00    -0.120 C  
BRANCH  30  31
HETATM   31  O   UNL     1      -9.090   4.818  71.740  1.00  0.00    -0.131 OA 
BRANCH  31  32
HETATM   32  C   UNL     1      -8.854   5.724  70.665  1.00  0.00    -0.140 C  
BRANCH  32  33
HETATM   33  C   UNL     1      -9.809   5.398  69.525  1.00  0.00    -0.196 C  
BRANCH  33  34
HETATM   34  O   UNL     1      -9.068   5.269  68.315  1.00  0.00    -0.108 OA 
BRANCH  34  35
HETATM   35  C   UNL     1      -9.842   4.643  67.295  1.00  0.00    -0.180 C  
BRANCH  35  36
HETATM   36  C   UNL     1      -9.159   4.864  65.952  1.00  0.00    -0.147 C  
BRANCH  36  37
HETATM   37  O   UNL     1      -9.230   3.669  65.174  1.00  0.00    -0.136 OA 
BRANCH  37  38
HETATM   38  C   UNL     1      -9.335   3.974  63.777  1.00  0.00    -0.143 C  
BRANCH  38  39
HETATM   39  C   UNL     1     -10.782   3.762  63.348  1.00  0.00    -0.194 C  
HETATM   40  O   UNL     1     -11.233   2.478  63.777  1.00  0.00    -0.598 OA 
HETATM   41  H   UNL     1     -12.135   2.346  63.510  1.00  0.00     0.000 HD 
ENDBRANCH  38  39
ENDBRANCH  37  38
ENDBRANCH  36  37
ENDBRANCH  35  36
ENDBRANCH  34  35
ENDBRANCH  33  34
ENDBRANCH  32  33
ENDBRANCH  31  32
ENDBRANCH  30  31
ENDBRANCH  29  30
ENDBRANCH  28  29
ENDBRANCH  27  28
ENDBRANCH  26  27
ENDBRANCH  25  26
ENDBRANCH  24  25
ENDBRANCH  23  24
ENDBRANCH  22  23
ENDBRANCH  21  22
ENDBRANCH  20  21
ENDBRANCH  19  20
ENDBRANCH  18  19
ENDBRANCH  17  18
ENDBRANCH  16  17
ENDBRANCH  15  16
ENDBRANCH  14  15
ENDBRANCH  13  14
ENDBRANCH  12  13
ENDBRANCH  11  12
ENDBRANCH  10  11
ENDBRANCH   9  10
ENDBRANCH   8   9
ENDBRANCH   7   8
ENDBRANCH   6   7
ENDBRANCH   5   6
ENDBRANCH   4   5
ENDBRANCH   3   4
ENDBRANCH   2   3
TORSDOF 37
ENDMDL
MODEL       92
REMARK 921   NORMALIZED FREE ENERGY PREDICTED BY IDOCK:   -3.27 KCAL/MOL
REMARK 922        TOTAL FREE ENERGY PREDICTED BY IDOCK:  -13.98 KCAL/MOL
REMARK 923 INTER-LIGAND FREE ENERGY PREDICTED BY IDOCK:  -10.58 KCAL/MOL
REMARK 924 INTRA-LIGAND FREE ENERGY PREDICTED BY IDOCK:   -3.40 KCAL/MOL
REMARK 927      BINDING AFFINITY PREDICTED BY RF-SCORE:    0.00 PKD
ROOT
HETATM    1  C   UNL     1     -11.531   8.243  72.604  1.00  0.00    -0.423 C  
HETATM    2  C   UNL     1     -11.200   9.030  71.347  1.00  0.00    -0.394 C  
ENDROOT
BRANCH   2   3
HETATM    3  C   UNL     1     -12.443   9.716  70.787  1.00  0.00    -0.246 C  
BRANCH   3   4
HETATM    4  C   UNL     1     -13.082  10.636  71.824  1.00  0.00    -0.571 C  
BRANCH   4   5
HETATM    5  C   UNL     1     -12.822  12.101  71.482  1.00  0.00    -0.394 C  
BRANCH   5   6
HETATM    6  C   UNL     1     -13.749  13.018  72.273  1.00  0.00    -0.608 C  
BRANCH   6   7
HETATM    7  C   UNL     1     -13.304  14.471  72.148  1.00  0.00    -0.471 C  
BRANCH   7   8
HETATM    8  C   UNL     1     -12.006  14.570  71.357  1.00  0.00    -0.382 C  
BRANCH   8   9
HETATM    9  C   UNL     1     -11.921  15.899  70.613  1.00  0.00    -0.379 C  
BRANCH   9  10
HETATM   10  C   UNL     1     -11.587  15.660  69.146  1.00  0.00    -0.393 C  
BRANCH  10  11
HETATM   11  C   UNL     1     -11.766  14.197  68.771  1.00  0.00    -0.380 C  
BRANCH  11  12
HETATM   12  C   UNL     1     -12.079  14.065  67.291  1.00  0.00    -0.370 C  
BRANCH  12  13
HETATM   13  O   UNL     1     -10.971  14.572  66.558  1.00  0.00    -0.309 OA 
BRANCH  13  14
HETATM   14  C   UNL     1     -11.330  14.806  65.200  1.00  0.00    -0.379 C  
BRANCH  14  15
HETATM   15  C   UNL     1     -12.561  13.985  64.860  1.00  0.00    -0.342 C  
BRANCH  15  16
HETATM   16  O   UNL     1     -12.425  13.512  63.524  1.00  0.00    -0.745 OA 
BRANCH  16  17
HETATM   17  C   UNL     1     -12.300  12.095  63.487  1.00  0.00    -0.574 C  
BRANCH  17  18
HETATM   18  C   UNL     1     -10.867  11.746  63.120  1.00  0.00    -0.223 C  
BRANCH  18  19
HETATM   19  O   UNL     1     -10.078  11.732  64.303  1.00  0.00    -0.264 OA 
BRANCH  19  20
HETATM   20  C   UNL     1     -10.627  10.853  65.288  1.00  0.00    -0.189 C  
BRANCH  20  21
HETATM   21  C   UNL     1      -9.885  11.072  66.601  1.00  0.00    -0.200 C  
BRANCH  21  22
HETATM   22  O   UNL     1      -8.493  11.243  66.317  1.00  0.00    -0.170 OA 
BRANCH  22  23
HETATM   23  C   UNL     1      -7.684  10.850  67.419  1.00  0.00    -0.108 C  
BRANCH  23  24
HETATM   24  C   UNL     1      -8.509  10.934  68.693  1.00  0.00    -0.152 C  
BRANCH  24  25
HETATM   25  O   UNL     1      -8.581   9.637  69.279  1.00  0.00    -0.132 OA 
BRANCH  25  26
HETATM   26  C   UNL     1      -7.327   9.248  69.827  1.00  0.00    -0.072 C  
BRANCH  26  27
HETATM   27  C   UNL     1      -7.512   8.949  71.308  1.00  0.00    -0.103 C  
BRANCH  27  28
HETATM   28  O   UNL     1      -7.084   7.616  71.570  1.00  0.00    -0.059 OA 
BRANCH  28  29
HETATM   29  C   UNL     1      -8.189   6.720  71.605  1.00  0.00    -0.110 C  
BRANCH  29  30
HETATM   30  C   UNL     1      -7.748   5.371  71.058  1.00  0.00    -0.098 C  
BRANCH  30  31
HETATM   31  O   UNL     1      -7.584   5.475  69.648  1.00  0.00    -0.068 OA 
BRANCH  31  32
HETATM   32  C   UNL     1      -6.977   4.303  69.110  1.00  0.00    -0.050 C  
BRANCH  32  33
HETATM   33  C   UNL     1      -7.574   4.021  67.739  1.00  0.00    -0.068 C  
BRANCH  33  34
HETATM   34  O   UNL     1      -8.741   4.818  67.563  1.00  0.00    -0.104 OA 
BRANCH  34  35
HETATM   35  C   UNL     1      -8.731   5.486  66.304  1.00  0.00    -0.128 C  
BRANCH  35  36
HETATM   36  C   UNL     1      -9.670   6.682  66.371  1.00  0.00    -0.070 C  
BRANCH  36  37
HETATM   37  O   UNL     1      -8.947   7.879  66.081  1.00  0.00    -0.168 OA 
BRANCH  37  38
HETATM   38  C   UNL     1      -7.853   7.613  65.195  1.00  0.00    -0.124 C  
BRANCH  38  39
HETATM   39  C   UNL     1      -7.984   8.530  63.984  1.00  0.00    -0.159 C  
HETATM   40  O   UNL     1      -8.710   7.867  62.949  1.00  0.00    -0.398 OA 
HETATM   41  H   UNL     1      -8.792   8.439  62.195  1.00  0.00     0.000 HD 
ENDBRANCH  38  39
ENDBRANCH  37  38
ENDBRANCH  36  37
ENDBRANCH  35  36
ENDBRANCH  34  35
ENDBRANCH  33  34
ENDBRANCH  32  33
ENDBRANCH  31  32
ENDBRANCH  30  31
ENDBRANCH  29  30
ENDBRANCH  28  29
ENDBRANCH  27  28
ENDBRANCH  26  27
ENDBRANCH  25  26
ENDBRANCH  24  25
ENDBRANCH  23  24
ENDBRANCH  22  23
ENDBRANCH  21  22
ENDBRANCH  20  21
ENDBRANCH  19  20
ENDBRANCH  18  19
ENDBRANCH  17  18
ENDBRANCH  16  17
ENDBRANCH  15  16
ENDBRANCH  14  15
ENDBRANCH  13  14
ENDBRANCH  12  13
ENDBRANCH  11  12
ENDBRANCH  10  11
ENDBRANCH   9  10
ENDBRANCH   8   9
ENDBRANCH   7   8
ENDBRANCH   6   7
ENDBRANCH   5   6
ENDBRANCH   4   5
ENDBRANCH   3   4
ENDBRANCH   2   3
TORSDOF 37
ENDMDL
MODEL       93
REMARK 921   NORMALIZED FREE ENERGY PREDICTED BY IDOCK:   -3.27 KCAL/MOL
REMARK 922        TOTAL FREE ENERGY PREDICTED BY IDOCK:  -13.97 KCAL/MOL
REMARK 923 INTER-LIGAND FREE ENERGY PREDICTED BY IDOCK:  -10.26 KCAL/MOL
REMARK 924 INTRA-LIGAND FREE ENERGY PREDICTED BY IDOCK:   -3.71 KCAL/MOL
REMARK 927      BINDING AFFINITY PREDICTED BY RF-SCORE:    0.00 PKD
ROOT
HETATM    1  C   UNL     1     -12.491   6.600  71.555  1.00  0.00    -0.326 C  
HETATM    2  C   UNL     1     -12.620   8.102  71.743  1.00  0.00    -0.360 C  
ENDROOT
BRANCH   2   3
HETATM    3  C   UNL     1     -11.386   8.676  72.433  1.00  0.00    -0.353 C  
BRANCH   3   4
HETATM    4  C   UNL     1     -10.600   7.586  73.159  1.00  0.00    -0.442 C  
BRANCH   4   5
HETATM    5  C   UNL     1      -9.149   8.012  73.367  1.00  0.00    -0.340 C  
BRANCH   5   6
HETATM    6  C   UNL     1      -8.294   7.636  72.162  1.00  0.00    -0.134 C  
BRANCH   6   7
HETATM    7  C   UNL     1      -7.820   8.885  71.426  1.00  0.00    -0.141 C  
BRANCH   7   8
HETATM    8  C   UNL     1      -8.630   9.097  70.153  1.00  0.00    -0.195 C  
BRANCH   8   9
HETATM    9  C   UNL     1      -9.042   7.763  69.540  1.00  0.00    -0.146 C  
BRANCH   9  10
HETATM   10  C   UNL     1     -10.364   7.911  68.798  1.00  0.00    -0.220 C  
BRANCH  10  11
HETATM   11  C   UNL     1     -10.876   6.564  68.311  1.00  0.00    -0.359 C  
BRANCH  11  12
HETATM   12  C   UNL     1     -11.063   6.584  66.803  1.00  0.00    -0.159 C  
BRANCH  12  13
HETATM   13  O   UNL     1     -10.825   5.271  66.311  1.00  0.00    -0.285 OA 
BRANCH  13  14
HETATM   14  C   UNL     1     -10.077   4.509  67.252  1.00  0.00    -0.087 C  
BRANCH  14  15
HETATM   15  C   UNL     1      -9.367   3.379  66.530  1.00  0.00    -0.155 C  
BRANCH  15  16
HETATM   16  O   UNL     1      -9.498   3.594  65.129  1.00  0.00    -0.149 OA 
BRANCH  16  17
HETATM   17  C   UNL     1      -8.331   3.174  64.430  1.00  0.00    -0.093 C  
BRANCH  17  18
HETATM   18  C   UNL     1      -7.172   3.126  65.411  1.00  0.00    -0.067 C  
BRANCH  18  19
HETATM   19  O   UNL     1      -6.101   3.907  64.897  1.00  0.00    -0.022 OA 
BRANCH  19  20
HETATM   20  C   UNL     1      -6.452   5.290  64.817  1.00  0.00    -0.038 C  
BRANCH  20  21
HETATM   21  C   UNL     1      -6.531   5.855  66.230  1.00  0.00    -0.046 C  
BRANCH  21  22
HETATM   22  O   UNL     1      -7.568   6.839  66.272  1.00  0.00    -0.082 OA 
BRANCH  22  23
HETATM   23  C   UNL     1      -8.014   7.185  64.966  1.00  0.00    -0.129 C  
BRANCH  23  24
HETATM   24  C   UNL     1      -8.553   8.607  64.989  1.00  0.00    -0.158 C  
BRANCH  24  25
HETATM   25  O   UNL     1      -8.188   9.216  66.225  1.00  0.00    -0.109 OA 
BRANCH  25  26
HETATM   26  C   UNL     1      -8.545  10.592  66.248  1.00  0.00    -0.147 C  
BRANCH  26  27
HETATM   27  C   UNL     1     -10.030  10.718  65.936  1.00  0.00    -0.250 C  
BRANCH  27  28
HETATM   28  O   UNL     1     -10.193  11.505  64.761  1.00  0.00    -0.251 OA 
BRANCH  28  29
HETATM   29  C   UNL     1     -11.572  11.732  64.484  1.00  0.00    -0.223 C  
BRANCH  29  30
HETATM   30  C   UNL     1     -11.693  12.879  63.493  1.00  0.00    -0.512 C  
BRANCH  30  31
HETATM   31  O   UNL     1     -12.675  13.796  63.965  1.00  0.00    -0.669 OA 
BRANCH  31  32
HETATM   32  C   UNL     1     -12.536  14.029  65.364  1.00  0.00    -0.505 C  
BRANCH  32  33
HETATM   33  C   UNL     1     -11.294  14.874  65.604  1.00  0.00    -0.325 C  
BRANCH  33  34
HETATM   34  O   UNL     1     -10.805  14.626  66.919  1.00  0.00    -0.293 OA 
BRANCH  34  35
HETATM   35  C   UNL     1     -10.013  15.712  67.393  1.00  0.00    -0.232 C  
BRANCH  35  36
HETATM   36  C   UNL     1     -10.886  16.623  68.245  1.00  0.00    -0.356 C  
BRANCH  36  37
HETATM   37  O   UNL     1     -11.937  15.863  68.842  1.00  0.00    -0.370 OA 
BRANCH  37  38
HETATM   38  C   UNL     1     -11.686  15.649  70.237  1.00  0.00    -0.357 C  
BRANCH  38  39
HETATM   39  C   UNL     1     -12.784  14.748  70.789  1.00  0.00    -0.362 C  
HETATM   40  O   UNL     1     -14.047  15.406  70.693  1.00  0.00    -0.818 OA 
HETATM   41  H   UNL     1     -14.731  14.844  71.036  1.00  0.00     0.000 HD 
ENDBRANCH  38  39
ENDBRANCH  37  38
ENDBRANCH  36  37
ENDBRANCH  35  36
ENDBRANCH  34  35
ENDBRANCH  33  34
ENDBRANCH  32  33
ENDBRANCH  31  32
ENDBRANCH  30  31
ENDBRANCH  29  30
ENDBRANCH  28  29
ENDBRANCH  27  28
ENDBRANCH  26  27
ENDBRANCH  25  26
ENDBRANCH  24  25
ENDBRANCH  23  24
ENDBRANCH  22  23
ENDBRANCH  21  22
ENDBRANCH  20  21
ENDBRANCH  19  20
ENDBRANCH  18  19
ENDBRANCH  17  18
ENDBRANCH  16  17
ENDBRANCH  15  16
ENDBRANCH  14  15
ENDBRANCH  13  14
ENDBRANCH  12  13
ENDBRANCH  11  12
ENDBRANCH  10  11
ENDBRANCH   9  10
ENDBRANCH   8   9
ENDBRANCH   7   8
ENDBRANCH   6   7
ENDBRANCH   5   6
ENDBRANCH   4   5
ENDBRANCH   3   4
ENDBRANCH   2   3
TORSDOF 37
ENDMDL
MODEL       94
REMARK 921   NORMALIZED FREE ENERGY PREDICTED BY IDOCK:   -3.26 KCAL/MOL
REMARK 922        TOTAL FREE ENERGY PREDICTED BY IDOCK:  -13.95 KCAL/MOL
REMARK 923 INTER-LIGAND FREE ENERGY PREDICTED BY IDOCK:  -10.83 KCAL/MOL
REMARK 924 INTRA-LIGAND FREE ENERGY PREDICTED BY IDOCK:   -3.11 KCAL/MOL
REMARK 927      BINDING AFFINITY PREDICTED BY RF-SCORE:    0.00 PKD
ROOT
HETATM    1  C   UNL     1      -9.798  19.972  67.012  1.00  0.00    -0.566 C  
HETATM    2  C   UNL     1      -8.326  20.078  66.653  1.00  0.00    -0.363 C  
ENDROOT
BRANCH   2   3
HETATM    3  C   UNL     1      -7.447  19.940  67.893  1.00  0.00    -0.328 C  
BRANCH   3   4
HETATM    4  C   UNL     1      -6.672  18.624  67.878  1.00  0.00    -0.222 C  
BRANCH   4   5
HETATM    5  C   UNL     1      -6.776  17.919  69.228  1.00  0.00    -0.213 C  
BRANCH   5   6
HETATM    6  C   UNL     1      -7.277  16.490  69.060  1.00  0.00    -0.219 C  
BRANCH   6   7
HETATM    7  C   UNL     1      -8.663  16.476  68.422  1.00  0.00    -0.218 C  
BRANCH   7   8
HETATM    8  C   UNL     1      -8.731  15.438  67.309  1.00  0.00    -0.215 C  
BRANCH   8   9
HETATM    9  C   UNL     1      -9.091  16.088  65.977  1.00  0.00    -0.361 C  
BRANCH   9  10
HETATM   10  C   UNL     1     -10.571  15.890  65.678  1.00  0.00    -0.393 C  
BRANCH  10  11
HETATM   11  C   UNL     1     -10.864  14.454  65.271  1.00  0.00    -0.370 C  
BRANCH  11  12
HETATM   12  C   UNL     1     -12.290  14.081  65.638  1.00  0.00    -0.479 C  
BRANCH  12  13
HETATM   13  O   UNL     1     -12.251  12.879  66.398  1.00  0.00    -0.453 OA 
BRANCH  13  14
HETATM   14  C   UNL     1     -10.913  12.558  66.762  1.00  0.00    -0.265 C  
BRANCH  14  15
HETATM   15  C   UNL     1     -10.877  12.147  68.223  1.00  0.00    -0.223 C  
BRANCH  15  16
HETATM   16  O   UNL     1     -11.480  13.182  68.992  1.00  0.00    -0.260 OA 
BRANCH  16  17
HETATM   17  C   UNL     1     -12.268  12.648  70.050  1.00  0.00    -0.197 C  
BRANCH  17  18
HETATM   18  C   UNL     1     -12.295  11.135  69.915  1.00  0.00    -0.261 C  
BRANCH  18  19
HETATM   19  O   UNL     1     -11.983  10.554  71.175  1.00  0.00    -0.352 OA 
BRANCH  19  20
HETATM   20  C   UNL     1     -13.159  10.325  71.954  1.00  0.00    -0.463 C  
BRANCH  20  21
HETATM   21  C   UNL     1     -13.276   8.831  72.229  1.00  0.00    -0.412 C  
BRANCH  21  22
HETATM   22  O   UNL     1     -12.085   8.186  71.769  1.00  0.00    -0.286 OA 
BRANCH  22  23
HETATM   23  C   UNL     1     -12.185   6.771  71.875  1.00  0.00    -0.335 C  
BRANCH  23  24
HETATM   24  C   UNL     1     -10.865   6.220  72.392  1.00  0.00    -0.243 C  
BRANCH  24  25
HETATM   25  O   UNL     1     -10.503   5.087  71.607  1.00  0.00    -0.207 OA 
BRANCH  25  26
HETATM   26  C   UNL     1     -10.563   5.381  70.217  1.00  0.00    -0.259 C  
BRANCH  26  27
HETATM   27  C   UNL     1      -9.160   5.702  69.723  1.00  0.00    -0.138 C  
BRANCH  27  28
HETATM   28  O   UNL     1      -9.208   6.871  68.912  1.00  0.00    -0.134 OA 
BRANCH  28  29
HETATM   29  C   UNL     1     -10.547   7.190  68.550  1.00  0.00    -0.187 C  
BRANCH  29  30
HETATM   30  C   UNL     1     -10.623   7.358  67.041  1.00  0.00    -0.344 C  
BRANCH  30  31
HETATM   31  O   UNL     1     -10.642   8.748  66.730  1.00  0.00    -0.258 OA 
BRANCH  31  32
HETATM   32  C   UNL     1      -9.370   9.191  66.263  1.00  0.00    -0.216 C  
BRANCH  32  33
HETATM   33  C   UNL     1      -9.569  10.026  65.006  1.00  0.00    -0.297 C  
BRANCH  33  34
HETATM   34  O   UNL     1      -8.867   9.419  63.925  1.00  0.00    -0.217 OA 
BRANCH  34  35
HETATM   35  C   UNL     1      -7.796  10.242  63.472  1.00  0.00    -0.130 C  
BRANCH  35  36
HETATM   36  C   UNL     1      -6.528   9.403  63.392  1.00  0.00    -0.094 C  
BRANCH  36  37
HETATM   37  O   UNL     1      -5.479  10.044  64.119  1.00  0.00    -0.084 OA 
BRANCH  37  38
HETATM   38  C   UNL     1      -5.781  10.087  65.520  1.00  0.00    -0.071 C  
BRANCH  38  39
HETATM   39  C   UNL     1      -5.264  11.408  66.080  1.00  0.00    -0.062 C  
HETATM   40  O   UNL     1      -6.352  12.182  66.581  1.00  0.00    -0.438 OA 
HETATM   41  H   UNL     1      -6.030  13.004  66.931  1.00  0.00     0.000 HD 
ENDBRANCH  38  39
ENDBRANCH  37  38
ENDBRANCH  36  37
ENDBRANCH  35  36
ENDBRANCH  34  35
ENDBRANCH  33  34
ENDBRANCH  32  33
ENDBRANCH  31  32
ENDBRANCH  30  31
ENDBRANCH  29  30
ENDBRANCH  28  29
ENDBRANCH  27  28
ENDBRANCH  26  27
ENDBRANCH  25  26
ENDBRANCH  24  25
ENDBRANCH  23  24
ENDBRANCH  22  23
ENDBRANCH  21  22
ENDBRANCH  20  21
ENDBRANCH  19  20
ENDBRANCH  18  19
ENDBRANCH  17  18
ENDBRANCH  16  17
ENDBRANCH  15  16
ENDBRANCH  14  15
ENDBRANCH  13  14
ENDBRANCH  12  13
ENDBRANCH  11  12
ENDBRANCH  10  11
ENDBRANCH   9  10
ENDBRANCH   8   9
ENDBRANCH   7   8
ENDBRANCH   6   7
ENDBRANCH   5   6
ENDBRANCH   4   5
ENDBRANCH   3   4
ENDBRANCH   2   3
TORSDOF 37
ENDMDL
MODEL       95
REMARK 921   NORMALIZED FREE ENERGY PREDICTED BY IDOCK:   -3.25 KCAL/MOL
REMARK 922        TOTAL FREE ENERGY PREDICTED BY IDOCK:  -13.90 KCAL/MOL
REMARK 923 INTER-LIGAND FREE ENERGY PREDICTED BY IDOCK:  -10.65 KCAL/MOL
REMARK 924 INTRA-LIGAND FREE ENERGY PREDICTED BY IDOCK:   -3.25 KCAL/MOL
REMARK 927      BINDING AFFINITY PREDICTED BY RF-SCORE:    0.00 PKD
ROOT
HETATM    1  C   UNL     1      -9.531   4.658  68.109  1.00  0.00    -0.195 C  
HETATM    2  C   UNL     1     -10.186   5.689  67.205  1.00  0.00    -0.250 C  
ENDROOT
BRANCH   2   3
HETATM    3  C   UNL     1     -11.022   6.675  68.015  1.00  0.00    -0.332 C  
BRANCH   3   4
HETATM    4  C   UNL     1     -11.090   6.267  69.485  1.00  0.00    -0.476 C  
BRANCH   4   5
HETATM    5  C   UNL     1     -11.162   7.497  70.386  1.00  0.00    -0.270 C  
BRANCH   5   6
HETATM    6  C   UNL     1     -10.585   7.197  71.765  1.00  0.00    -0.230 C  
BRANCH   6   7
HETATM    7  C   UNL     1      -9.570   8.261  72.169  1.00  0.00    -0.338 C  
BRANCH   7   8
HETATM    8  C   UNL     1      -8.649   8.596  71.002  1.00  0.00    -0.211 C  
BRANCH   8   9
HETATM    9  C   UNL     1      -7.732   7.421  70.678  1.00  0.00    -0.091 C  
BRANCH   9  10
HETATM   10  C   UNL     1      -7.082   7.622  69.315  1.00  0.00    -0.076 C  
BRANCH  10  11
HETATM   11  C   UNL     1      -7.696   8.805  68.581  1.00  0.00    -0.098 C  
BRANCH  11  12
HETATM   12  C   UNL     1      -7.765   8.523  67.090  1.00  0.00    -0.097 C  
BRANCH  12  13
HETATM   13  O   UNL     1      -7.175   9.621  66.405  1.00  0.00    -0.091 OA 
BRANCH  13  14
HETATM   14  C   UNL     1      -8.177  10.504  65.913  1.00  0.00    -0.152 C  
BRANCH  14  15
HETATM   15  C   UNL     1      -9.193   9.711  65.110  1.00  0.00    -0.246 C  
BRANCH  15  16
HETATM   16  O   UNL     1     -10.478  10.279  65.333  1.00  0.00    -0.217 OA 
BRANCH  16  17
HETATM   17  C   UNL     1     -10.573  11.582  64.769  1.00  0.00    -0.305 C  
BRANCH  17  18
HETATM   18  C   UNL     1     -11.663  12.347  65.502  1.00  0.00    -0.407 C  
BRANCH  18  19
HETATM   19  O   UNL     1     -12.203  13.331  64.629  1.00  0.00    -0.383 OA 
BRANCH  19  20
HETATM   20  C   UNL     1     -12.411  14.573  65.303  1.00  0.00    -0.279 C  
BRANCH  20  21
HETATM   21  C   UNL     1     -12.373  15.697  64.274  1.00  0.00     0.087 C  
BRANCH  21  22
HETATM   22  O   UNL     1     -11.138  16.405  64.415  1.00  0.00    -0.825 OA 
BRANCH  22  23
HETATM   23  C   UNL     1     -10.744  16.501  65.779  1.00  0.00    -0.225 C  
BRANCH  23  24
HETATM   24  C   UNL     1      -9.924  17.768  65.968  1.00  0.00    -0.209 C  
BRANCH  24  25
HETATM   25  O   UNL     1      -8.556  17.471  65.707  1.00  0.00    -0.521 OA 
BRANCH  25  26
HETATM   26  C   UNL     1      -7.697  18.457  66.266  1.00  0.00    -0.247 C  
BRANCH  26  27
HETATM   27  C   UNL     1      -8.139  18.738  67.695  1.00  0.00    -0.251 C  
BRANCH  27  28
HETATM   28  O   UNL     1      -7.700  17.677  68.536  1.00  0.00    -0.262 OA 
BRANCH  28  29
HETATM   29  C   UNL     1      -6.406  17.222  68.155  1.00  0.00    -0.155 C  
BRANCH  29  30
HETATM   30  C   UNL     1      -6.434  15.707  68.023  1.00  0.00    -0.138 C  
BRANCH  30  31
HETATM   31  O   UNL     1      -7.643  15.216  68.593  1.00  0.00    -0.115 OA 
BRANCH  31  32
HETATM   32  C   UNL     1      -8.378  14.434  67.654  1.00  0.00    -0.179 C  
BRANCH  32  33
HETATM   33  C   UNL     1      -9.519  13.734  68.378  1.00  0.00    -0.198 C  
BRANCH  33  34
HETATM   34  O   UNL     1     -10.544  14.682  68.664  1.00  0.00    -0.237 OA 
BRANCH  34  35
HETATM   35  C   UNL     1     -11.816  14.052  68.786  1.00  0.00    -0.361 C  
BRANCH  35  36
HETATM   36  C   UNL     1     -11.910  13.391  70.154  1.00  0.00    -0.272 C  
BRANCH  36  37
HETATM   37  O   UNL     1     -11.574  14.337  71.170  1.00  0.00    -0.198 OA 
BRANCH  37  38
HETATM   38  C   UNL     1     -12.556  15.378  71.244  1.00  0.00    -0.412 C  
BRANCH  38  39
HETATM   39  C   UNL     1     -12.452  16.038  72.615  1.00  0.00    -0.481 C  
HETATM   40  O   UNL     1     -13.738  16.078  73.233  1.00  0.00    -0.707 OA 
HETATM   41  H   UNL     1     -13.673  16.489  74.087  1.00  0.00     0.000 HD 
ENDBRANCH  38  39
ENDBRANCH  37  38
ENDBRANCH  36  37
ENDBRANCH  35  36
ENDBRANCH  34  35
ENDBRANCH  33  34
ENDBRANCH  32  33
ENDBRANCH  31  32
ENDBRANCH  30  31
ENDBRANCH  29  30
ENDBRANCH  28  29
ENDBRANCH  27  28
ENDBRANCH  26  27
ENDBRANCH  25  26
ENDBRANCH  24  25
ENDBRANCH  23  24
ENDBRANCH  22  23
ENDBRANCH  21  22
ENDBRANCH  20  21
ENDBRANCH  19  20
ENDBRANCH  18  19
ENDBRANCH  17  18
ENDBRANCH  16  17
ENDBRANCH  15  16
ENDBRANCH  14  15
ENDBRANCH  13  14
ENDBRANCH  12  13
ENDBRANCH  11  12
ENDBRANCH  10  11
ENDBRANCH   9  10
ENDBRANCH   8   9
ENDBRANCH   7   8
ENDBRANCH   6   7
ENDBRANCH   5   6
ENDBRANCH   4   5
ENDBRANCH   3   4
ENDBRANCH   2   3
TORSDOF 37
ENDMDL
MODEL       96
REMARK 921   NORMALIZED FREE ENERGY PREDICTED BY IDOCK:   -3.25 KCAL/MOL
REMARK 922        TOTAL FREE ENERGY PREDICTED BY IDOCK:  -13.89 KCAL/MOL
REMARK 923 INTER-LIGAND FREE ENERGY PREDICTED BY IDOCK:  -10.35 KCAL/MOL
REMARK 924 INTRA-LIGAND FREE ENERGY PREDICTED BY IDOCK:   -3.54 KCAL/MOL
REMARK 927      BINDING AFFINITY PREDICTED BY RF-SCORE:    0.00 PKD
ROOT
HETATM    1  C   UNL     1     -11.938  12.287  69.699  1.00  0.00    -0.347 C  
HETATM    2  C   UNL     1     -11.637  12.573  68.238  1.00  0.00    -0.376 C  
ENDROOT
BRANCH   2   3
HETATM    3  C   UNL     1     -12.165  13.945  67.828  1.00  0.00    -0.217 C  
BRANCH   3   4
HETATM    4  C   UNL     1     -11.644  14.350  66.451  1.00  0.00    -0.383 C  
BRANCH   4   5
HETATM    5  C   UNL     1     -12.590  13.870  65.352  1.00  0.00    -0.538 C  
BRANCH   5   6
HETATM    6  C   UNL     1     -11.850  13.012  64.333  1.00  0.00    -0.443 C  
BRANCH   6   7
HETATM    7  C   UNL     1     -10.347  13.047  64.588  1.00  0.00    -0.374 C  
BRANCH   7   8
HETATM    8  C   UNL     1      -9.839  11.669  64.991  1.00  0.00    -0.280 C  
BRANCH   8   9
HETATM    9  C   UNL     1     -10.231  10.619  63.957  1.00  0.00    -0.334 C  
BRANCH   9  10
HETATM   10  C   UNL     1      -9.152  10.502  62.889  1.00  0.00    -0.290 C  
BRANCH  10  11
HETATM   11  C   UNL     1      -8.949   9.054  62.468  1.00  0.00    -0.058 C  
BRANCH  11  12
HETATM   12  C   UNL     1      -7.646   8.517  63.036  1.00  0.00    -0.114 C  
BRANCH  12  13
HETATM   13  O   UNL     1      -7.961   7.648  64.117  1.00  0.00    -0.134 OA 
BRANCH  13  14
HETATM   14  C   UNL     1      -7.649   8.263  65.363  1.00  0.00    -0.096 C  
BRANCH  14  15
HETATM   15  C   UNL     1      -8.285   7.466  66.487  1.00  0.00    -0.120 C  
BRANCH  15  16
HETATM   16  O   UNL     1      -9.687   7.403  66.249  1.00  0.00    -0.131 OA 
BRANCH  16  17
HETATM   17  C   UNL     1     -10.409   7.211  67.461  1.00  0.00    -0.236 C  
BRANCH  17  18
HETATM   18  C   UNL     1      -9.903   5.942  68.128  1.00  0.00    -0.133 C  
BRANCH  18  19
HETATM   19  O   UNL     1     -10.859   5.516  69.091  1.00  0.00    -0.251 OA 
BRANCH  19  20
HETATM   20  C   UNL     1     -11.522   6.626  69.699  1.00  0.00    -0.298 C  
BRANCH  20  21
HETATM   21  C   UNL     1     -11.896   6.246  71.126  1.00  0.00    -0.168 C  
BRANCH  21  22
HETATM   22  O   UNL     1     -11.434   7.272  72.010  1.00  0.00    -0.255 OA 
BRANCH  22  23
HETATM   23  C   UNL     1     -10.073   7.072  72.375  1.00  0.00    -0.174 C  
BRANCH  23  24
HETATM   24  C   UNL     1      -9.400   8.426  72.532  1.00  0.00    -0.275 C  
BRANCH  24  25
HETATM   25  O   UNL     1      -9.573   9.166  71.326  1.00  0.00    -0.275 OA 
BRANCH  25  26
HETATM   26  C   UNL     1      -8.574   8.834  70.369  1.00  0.00    -0.163 C  
BRANCH  26  27
HETATM   27  C   UNL     1      -7.932  10.119  69.866  1.00  0.00    -0.135 C  
BRANCH  27  28
HETATM   28  O   UNL     1      -8.429  10.409  68.564  1.00  0.00    -0.117 OA 
BRANCH  28  29
HETATM   29  C   UNL     1      -7.525  11.238  67.842  1.00  0.00    -0.094 C  
BRANCH  29  30
HETATM   30  C   UNL     1      -7.338  12.542  68.601  1.00  0.00    -0.099 C  
BRANCH  30  31
HETATM   31  O   UNL     1      -8.217  13.523  68.060  1.00  0.00    -0.140 OA 
BRANCH  31  32
HETATM   32  C   UNL     1      -7.881  14.829  68.521  1.00  0.00    -0.130 C  
BRANCH  32  33
HETATM   33  C   UNL     1      -9.027  15.365  69.368  1.00  0.00    -0.258 C  
BRANCH  33  34
HETATM   34  O   UNL     1      -9.670  16.427  68.669  1.00  0.00    -0.222 OA 
BRANCH  34  35
HETATM   35  C   UNL     1     -10.855  16.848  69.339  1.00  0.00    -0.186 C  
BRANCH  35  36
HETATM   36  C   UNL     1     -11.081  15.953  70.550  1.00  0.00    -0.364 C  
BRANCH  36  37
HETATM   37  O   UNL     1     -12.482  15.819  70.795  1.00  0.00    -0.423 OA 
BRANCH  37  38
HETATM   38  C   UNL     1     -12.722  15.213  72.072  1.00  0.00    -0.342 C  
BRANCH  38  39
HETATM   39  C   UNL     1     -12.353  16.219  73.156  1.00  0.00    -0.499 C  
HETATM   40  O   UNL     1     -13.031  15.896  74.370  1.00  0.00    -0.884 OA 
HETATM   41  H   UNL     1     -12.801  16.522  75.045  1.00  0.00     0.000 HD 
ENDBRANCH  38  39
ENDBRANCH  37  38
ENDBRANCH  36  37
ENDBRANCH  35  36
ENDBRANCH  34  35
ENDBRANCH  33  34
ENDBRANCH  32  33
ENDBRANCH  31  32
ENDBRANCH  30  31
ENDBRANCH  29  30
ENDBRANCH  28  29
ENDBRANCH  27  28
ENDBRANCH  26  27
ENDBRANCH  25  26
ENDBRANCH  24  25
ENDBRANCH  23  24
ENDBRANCH  22  23
ENDBRANCH  21  22
ENDBRANCH  20  21
ENDBRANCH  19  20
ENDBRANCH  18  19
ENDBRANCH  17  18
ENDBRANCH  16  17
ENDBRANCH  15  16
ENDBRANCH  14  15
ENDBRANCH  13  14
ENDBRANCH  12  13
ENDBRANCH  11  12
ENDBRANCH  10  11
ENDBRANCH   9  10
ENDBRANCH   8   9
ENDBRANCH   7   8
ENDBRANCH   6   7
ENDBRANCH   5   6
ENDBRANCH   4   5
ENDBRANCH   3   4
ENDBRANCH   2   3
TORSDOF 37
ENDMDL
MODEL       97
REMARK 921   NORMALIZED FREE ENERGY PREDICTED BY IDOCK:   -3.24 KCAL/MOL
REMARK 922        TOTAL FREE ENERGY PREDICTED BY IDOCK:  -13.86 KCAL/MOL
REMARK 923 INTER-LIGAND FREE ENERGY PREDICTED BY IDOCK:  -10.64 KCAL/MOL
REMARK 924 INTRA-LIGAND FREE ENERGY PREDICTED BY IDOCK:   -3.22 KCAL/MOL
REMARK 927      BINDING AFFINITY PREDICTED BY RF-SCORE:    0.00 PKD
ROOT
HETATM    1  C   UNL     1      -9.538   5.578  68.246  1.00  0.00    -0.148 C  
HETATM    2  C   UNL     1     -10.612   6.643  68.384  1.00  0.00    -0.289 C  
ENDROOT
BRANCH   2   3
HETATM    3  C   UNL     1     -11.509   6.365  69.587  1.00  0.00    -0.446 C  
BRANCH   3   4
HETATM    4  C   UNL     1     -10.712   5.773  70.747  1.00  0.00    -0.342 C  
BRANCH   4   5
HETATM    5  C   UNL     1     -11.125   6.414  72.070  1.00  0.00    -0.306 C  
BRANCH   5   6
HETATM    6  C   UNL     1      -9.945   6.490  73.031  1.00  0.00    -0.185 C  
BRANCH   6   7
HETATM    7  C   UNL     1      -9.531   7.939  73.264  1.00  0.00    -0.350 C  
BRANCH   7   8
HETATM    8  C   UNL     1      -9.343   8.663  71.937  1.00  0.00    -0.357 C  
BRANCH   8   9
HETATM    9  C   UNL     1      -7.944   8.424  71.379  1.00  0.00    -0.152 C  
BRANCH   9  10
HETATM   10  C   UNL     1      -7.653   9.405  70.251  1.00  0.00    -0.143 C  
BRANCH  10  11
HETATM   11  C   UNL     1      -8.935  10.018  69.709  1.00  0.00    -0.209 C  
BRANCH  11  12
HETATM   12  C   UNL     1      -9.049   9.770  68.214  1.00  0.00    -0.122 C  
BRANCH  12  13
HETATM   13  O   UNL     1      -8.752  10.987  67.540  1.00  0.00    -0.127 OA 
BRANCH  13  14
HETATM   14  C   UNL     1      -9.666  12.009  67.923  1.00  0.00    -0.194 C  
BRANCH  14  15
HETATM   15  C   UNL     1     -11.073  11.595  67.531  1.00  0.00    -0.276 C  
BRANCH  15  16
HETATM   16  O   UNL     1     -11.933  11.839  68.638  1.00  0.00    -0.354 OA 
BRANCH  16  17
HETATM   17  C   UNL     1     -11.830  13.186  69.086  1.00  0.00    -0.314 C  
BRANCH  17  18
HETATM   18  C   UNL     1     -12.563  13.311  70.412  1.00  0.00    -0.141 C  
BRANCH  18  19
HETATM   19  O   UNL     1     -12.736  14.689  70.715  1.00  0.00    -0.327 OA 
BRANCH  19  20
HETATM   20  C   UNL     1     -11.520  15.282  71.174  1.00  0.00    -0.369 C  
BRANCH  20  21
HETATM   21  C   UNL     1     -11.258  16.545  70.364  1.00  0.00    -0.107 C  
BRANCH  21  22
HETATM   22  O   UNL     1     -10.510  16.194  69.196  1.00  0.00    -0.228 OA 
BRANCH  22  23
HETATM   23  C   UNL     1      -9.164  15.867  69.518  1.00  0.00    -0.175 C  
BRANCH  23  24
HETATM   24  C   UNL     1      -8.245  16.929  68.934  1.00  0.00    -0.218 C  
BRANCH  24  25
HETATM   25  O   UNL     1      -7.038  16.305  68.504  1.00  0.00    -0.135 OA 
BRANCH  25  26
HETATM   26  C   UNL     1      -6.065  17.269  68.125  1.00  0.00    -0.139 C  
BRANCH  26  27
HETATM   27  C   UNL     1      -5.590  16.957  66.713  1.00  0.00    -0.130 C  
BRANCH  27  28
HETATM   28  O   UNL     1      -6.293  17.786  65.792  1.00  0.00    -0.229 OA 
BRANCH  28  29
HETATM   29  C   UNL     1      -6.299  19.142  66.224  1.00  0.00    -0.181 C  
BRANCH  29  30
HETATM   30  C   UNL     1      -7.654  19.755  65.905  1.00  0.00    -0.323 C  
BRANCH  30  31
HETATM   31  O   UNL     1      -8.579  18.711  65.620  1.00  0.00    -0.324 OA 
BRANCH  31  32
HETATM   32  C   UNL     1      -9.814  18.914  66.303  1.00  0.00    -0.365 C  
BRANCH  32  33
HETATM   33  C   UNL     1     -10.771  17.788  65.938  1.00  0.00    -0.116 C  
BRANCH  33  34
HETATM   34  O   UNL     1     -10.021  16.617  65.628  1.00  0.00    -0.519 OA 
BRANCH  34  35
HETATM   35  C   UNL     1     -10.745  15.433  65.954  1.00  0.00    -0.336 C  
BRANCH  35  36
HETATM   36  C   UNL     1     -10.452  14.371  64.903  1.00  0.00    -0.423 C  
BRANCH  36  37
HETATM   37  O   UNL     1     -11.679  13.876  64.364  1.00  0.00    -0.388 OA 
BRANCH  37  38
HETATM   38  C   UNL     1     -11.438  12.795  63.454  1.00  0.00    -0.394 C  
BRANCH  38  39
HETATM   39  C   UNL     1     -10.290  11.954  64.003  1.00  0.00    -0.364 C  
HETATM   40  O   UNL     1      -9.627  11.281  62.934  1.00  0.00    -0.396 OA 
HETATM   41  H   UNL     1      -8.912  10.758  63.275  1.00  0.00     0.000 HD 
ENDBRANCH  38  39
ENDBRANCH  37  38
ENDBRANCH  36  37
ENDBRANCH  35  36
ENDBRANCH  34  35
ENDBRANCH  33  34
ENDBRANCH  32  33
ENDBRANCH  31  32
ENDBRANCH  30  31
ENDBRANCH  29  30
ENDBRANCH  28  29
ENDBRANCH  27  28
ENDBRANCH  26  27
ENDBRANCH  25  26
ENDBRANCH  24  25
ENDBRANCH  23  24
ENDBRANCH  22  23
ENDBRANCH  21  22
ENDBRANCH  20  21
ENDBRANCH  19  20
ENDBRANCH  18  19
ENDBRANCH  17  18
ENDBRANCH  16  17
ENDBRANCH  15  16
ENDBRANCH  14  15
ENDBRANCH  13  14
ENDBRANCH  12  13
ENDBRANCH  11  12
ENDBRANCH  10  11
ENDBRANCH   9  10
ENDBRANCH   8   9
ENDBRANCH   7   8
ENDBRANCH   6   7
ENDBRANCH   5   6
ENDBRANCH   4   5
ENDBRANCH   3   4
ENDBRANCH   2   3
TORSDOF 37
ENDMDL
MODEL       98
REMARK 921   NORMALIZED FREE ENERGY PREDICTED BY IDOCK:   -3.23 KCAL/MOL
REMARK 922        TOTAL FREE ENERGY PREDICTED BY IDOCK:  -13.84 KCAL/MOL
REMARK 923 INTER-LIGAND FREE ENERGY PREDICTED BY IDOCK:  -10.92 KCAL/MOL
REMARK 924 INTRA-LIGAND FREE ENERGY PREDICTED BY IDOCK:   -2.93 KCAL/MOL
REMARK 927      BINDING AFFINITY PREDICTED BY RF-SCORE:    0.00 PKD
ROOT
HETATM    1  C   UNL     1      -9.886   3.311  72.333  1.00  0.00    -0.226 C  
HETATM    2  C   UNL     1      -9.485   1.974  71.733  1.00  0.00    -0.186 C  
ENDROOT
BRANCH   2   3
HETATM    3  C   UNL     1      -9.181   2.111  70.243  1.00  0.00    -0.187 C  
BRANCH   3   4
HETATM    4  C   UNL     1      -9.430   3.537  69.757  1.00  0.00    -0.241 C  
BRANCH   4   5
HETATM    5  C   UNL     1      -8.144   4.155  69.214  1.00  0.00    -0.063 C  
BRANCH   5   6
HETATM    6  C   UNL     1      -7.910   3.741  67.766  1.00  0.00    -0.081 C  
BRANCH   6   7
HETATM    7  C   UNL     1      -8.831   4.514  66.828  1.00  0.00    -0.112 C  
BRANCH   7   8
HETATM    8  C   UNL     1      -8.624   6.014  66.987  1.00  0.00    -0.107 C  
BRANCH   8   9
HETATM    9  C   UNL     1      -9.939   6.768  66.822  1.00  0.00    -0.242 C  
BRANCH   9  10
HETATM   10  C   UNL     1     -10.954   6.286  67.851  1.00  0.00    -0.421 C  
BRANCH  10  11
HETATM   11  C   UNL     1     -10.671   6.878  69.223  1.00  0.00    -0.265 C  
BRANCH  11  12
HETATM   12  C   UNL     1     -11.739   6.449  70.214  1.00  0.00    -0.320 C  
BRANCH  12  13
HETATM   13  O   UNL     1     -11.232   6.653  71.527  1.00  0.00    -0.248 OA 
BRANCH  13  14
HETATM   14  C   UNL     1      -9.867   7.056  71.482  1.00  0.00    -0.172 C  
BRANCH  14  15
HETATM   15  C   UNL     1      -9.617   8.099  72.556  1.00  0.00    -0.277 C  
BRANCH  15  16
HETATM   16  O   UNL     1      -8.485   8.871  72.172  1.00  0.00    -0.382 OA 
BRANCH  16  17
HETATM   17  C   UNL     1      -8.571   9.273  70.809  1.00  0.00    -0.203 C  
BRANCH  17  18
HETATM   18  C   UNL     1      -7.168   9.564  70.303  1.00  0.00    -0.118 C  
BRANCH  18  19
HETATM   19  O   UNL     1      -7.233  10.610  69.342  1.00  0.00    -0.099 OA 
BRANCH  19  20
HETATM   20  C   UNL     1      -7.845  10.170  68.128  1.00  0.00    -0.096 C  
BRANCH  20  21
HETATM   21  C   UNL     1      -8.567  11.352  67.491  1.00  0.00    -0.137 C  
BRANCH  21  22
HETATM   22  O   UNL     1      -9.544  10.852  66.574  1.00  0.00    -0.186 OA 
BRANCH  22  23
HETATM   23  C   UNL     1      -9.084  10.928  65.229  1.00  0.00    -0.197 C  
BRANCH  23  24
HETATM   24  C   UNL     1     -10.250  10.652  64.292  1.00  0.00    -0.320 C  
BRANCH  24  25
HETATM   25  O   UNL     1     -10.269  11.653  63.279  1.00  0.00    -0.386 OA 
BRANCH  25  26
HETATM   26  C   UNL     1     -11.056  12.771  63.673  1.00  0.00    -0.393 C  
BRANCH  26  27
HETATM   27  C   UNL     1     -12.471  12.295  63.967  1.00  0.00    -0.458 C  
BRANCH  27  28
HETATM   28  O   UNL     1     -12.930  12.912  65.165  1.00  0.00    -0.758 OA 
BRANCH  28  29
HETATM   29  C   UNL     1     -11.869  13.586  65.834  1.00  0.00    -0.372 C  
BRANCH  29  30
HETATM   30  C   UNL     1     -12.279  13.842  67.276  1.00  0.00    -0.278 C  
BRANCH  30  31
HETATM   31  O   UNL     1     -11.517  14.930  67.788  1.00  0.00    -0.318 OA 
BRANCH  31  32
HETATM   32  C   UNL     1     -10.397  14.470  68.540  1.00  0.00    -0.242 C  
BRANCH  32  33
HETATM   33  C   UNL     1      -9.733  15.660  69.217  1.00  0.00    -0.271 C  
BRANCH  33  34
HETATM   34  O   UNL     1     -10.681  16.716  69.345  1.00  0.00    -0.321 OA 
BRANCH  34  35
HETATM   35  C   UNL     1     -10.151  17.952  68.873  1.00  0.00    -0.348 C  
BRANCH  35  36
HETATM   36  C   UNL     1     -10.746  18.253  67.504  1.00  0.00    -0.355 C  
BRANCH  36  37
HETATM   37  O   UNL     1      -9.705  18.302  66.527  1.00  0.00    -0.315 OA 
BRANCH  37  38
HETATM   38  C   UNL     1      -9.413  19.656  66.158  1.00  0.00    -0.369 C  
BRANCH  38  39
HETATM   39  C   UNL     1      -7.959  19.946  66.511  1.00  0.00    -0.321 C  
HETATM   40  O   UNL     1      -7.310  20.585  65.413  1.00  0.00    -0.527 OA 
HETATM   41  H   UNL     1      -6.404  20.765  65.633  1.00  0.00     0.000 HD 
ENDBRANCH  38  39
ENDBRANCH  37  38
ENDBRANCH  36  37
ENDBRANCH  35  36
ENDBRANCH  34  35
ENDBRANCH  33  34
ENDBRANCH  32  33
ENDBRANCH  31  32
ENDBRANCH  30  31
ENDBRANCH  29  30
ENDBRANCH  28  29
ENDBRANCH  27  28
ENDBRANCH  26  27
ENDBRANCH  25  26
ENDBRANCH  24  25
ENDBRANCH  23  24
ENDBRANCH  22  23
ENDBRANCH  21  22
ENDBRANCH  20  21
ENDBRANCH  19  20
ENDBRANCH  18  19
ENDBRANCH  17  18
ENDBRANCH  16  17
ENDBRANCH  15  16
ENDBRANCH  14  15
ENDBRANCH  13  14
ENDBRANCH  12  13
ENDBRANCH  11  12
ENDBRANCH  10  11
ENDBRANCH   9  10
ENDBRANCH   8   9
ENDBRANCH   7   8
ENDBRANCH   6   7
ENDBRANCH   5   6
ENDBRANCH   4   5
ENDBRANCH   3   4
ENDBRANCH   2   3
TORSDOF 37
ENDMDL
MODEL       99
REMARK 921   NORMALIZED FREE ENERGY PREDICTED BY IDOCK:   -3.23 KCAL/MOL
REMARK 922        TOTAL FREE ENERGY PREDICTED BY IDOCK:  -13.84 KCAL/MOL
REMARK 923 INTER-LIGAND FREE ENERGY PREDICTED BY IDOCK:  -11.54 KCAL/MOL
REMARK 924 INTRA-LIGAND FREE ENERGY PREDICTED BY IDOCK:   -2.30 KCAL/MOL
REMARK 927      BINDING AFFINITY PREDICTED BY RF-SCORE:    0.00 PKD
ROOT
HETATM    1  C   UNL     1     -12.527  16.099  74.559  1.00  0.00    -0.626 C  
HETATM    2  C   UNL     1     -13.332  15.806  73.304  1.00  0.00    -0.649 C  
ENDROOT
BRANCH   2   3
HETATM    3  C   UNL     1     -12.432  15.758  72.073  1.00  0.00    -0.531 C  
BRANCH   3   4
HETATM    4  C   UNL     1     -13.202  15.286  70.842  1.00  0.00    -0.506 C  
BRANCH   4   5
HETATM    5  C   UNL     1     -13.232  13.761  70.775  1.00  0.00    -0.077 C  
BRANCH   5   6
HETATM    6  C   UNL     1     -11.989  13.221  70.078  1.00  0.00    -0.399 C  
BRANCH   6   7
HETATM    7  C   UNL     1     -12.065  13.464  68.574  1.00  0.00    -0.283 C  
BRANCH   7   8
HETATM    8  C   UNL     1     -11.872  12.161  67.809  1.00  0.00    -0.327 C  
BRANCH   8   9
HETATM    9  C   UNL     1     -10.562  11.487  68.202  1.00  0.00    -0.226 C  
BRANCH   9  10
HETATM   10  C   UNL     1     -10.048  10.627  67.055  1.00  0.00    -0.255 C  
BRANCH  10  11
HETATM   11  C   UNL     1      -9.566  11.486  65.896  1.00  0.00    -0.254 C  
BRANCH  11  12
HETATM   12  C   UNL     1      -9.955  10.853  64.571  1.00  0.00    -0.317 C  
BRANCH  12  13
HETATM   13  O   UNL     1     -10.411  11.884  63.705  1.00  0.00    -0.362 OA 
BRANCH  13  14
HETATM   14  C   UNL     1     -11.800  11.734  63.432  1.00  0.00    -0.333 C  
BRANCH  14  15
HETATM   15  C   UNL     1     -12.590  12.664  64.336  1.00  0.00    -0.387 C  
BRANCH  15  16
HETATM   16  O   UNL     1     -12.309  14.005  63.949  1.00  0.00    -0.659 OA 
BRANCH  16  17
HETATM   17  C   UNL     1     -11.846  14.775  65.053  1.00  0.00    -0.343 C  
BRANCH  17  18
HETATM   18  C   UNL     1     -10.327  14.711  65.082  1.00  0.00    -0.403 C  
BRANCH  18  19
HETATM   19  O   UNL     1      -9.818  16.004  65.383  1.00  0.00    -0.440 OA 
BRANCH  19  20
HETATM   20  C   UNL     1     -10.845  16.873  65.866  1.00  0.00    -0.037 C  
BRANCH  20  21
HETATM   21  C   UNL     1     -10.502  17.283  67.293  1.00  0.00    -0.319 C  
BRANCH  21  22
HETATM   22  O   UNL     1     -10.618  18.705  67.402  1.00  0.00    -0.416 OA 
BRANCH  22  23
HETATM   23  C   UNL     1     -10.533  19.334  66.129  1.00  0.00    -0.488 C  
BRANCH  23  24
HETATM   24  C   UNL     1      -9.255  20.156  66.069  1.00  0.00    -0.183 C  
BRANCH  24  25
HETATM   25  O   UNL     1      -8.699  20.234  67.378  1.00  0.00    -0.335 OA 
BRANCH  25  26
HETATM   26  C   UNL     1      -7.326  20.601  67.335  1.00  0.00    -0.336 C  
BRANCH  26  27
HETATM   27  C   UNL     1      -6.480  19.373  67.643  1.00  0.00    -0.212 C  
BRANCH  27  28
HETATM   28  O   UNL     1      -7.215  18.504  68.498  1.00  0.00    -0.268 OA 
BRANCH  28  29
HETATM   29  C   UNL     1      -6.390  17.989  69.538  1.00  0.00    -0.215 C  
BRANCH  29  30
HETATM   30  C   UNL     1      -6.208  16.494  69.328  1.00  0.00    -0.183 C  
BRANCH  30  31
HETATM   31  O   UNL     1      -5.179  16.027  70.195  1.00  0.00    -0.134 OA 
BRANCH  31  32
HETATM   32  C   UNL     1      -5.592  14.864  70.908  1.00  0.00    -0.118 C  
BRANCH  32  33
HETATM   33  C   UNL     1      -6.208  13.875  69.928  1.00  0.00    -0.136 C  
BRANCH  33  34
HETATM   34  O   UNL     1      -6.252  12.584  70.530  1.00  0.00    -0.146 OA 
BRANCH  34  35
HETATM   35  C   UNL     1      -6.087  11.553  69.561  1.00  0.00    -0.100 C  
BRANCH  35  36
HETATM   36  C   UNL     1      -7.259  10.587  69.664  1.00  0.00    -0.148 C  
BRANCH  36  37
HETATM   37  O   UNL     1      -6.789   9.300  70.068  1.00  0.00    -0.043 OA 
BRANCH  37  38
HETATM   38  C   UNL     1      -7.636   8.263  69.558  1.00  0.00    -0.095 C  
BRANCH  38  39
HETATM   39  C   UNL     1      -7.874   7.248  70.671  1.00  0.00    -0.094 C  
HETATM   40  O   UNL     1      -9.258   7.223  71.018  1.00  0.00    -0.153 OA 
HETATM   41  H   UNL     1      -9.406   6.591  71.711  1.00  0.00     0.000 HD 
ENDBRANCH  38  39
ENDBRANCH  37  38
ENDBRANCH  36  37
ENDBRANCH  35  36
ENDBRANCH  34  35
ENDBRANCH  33  34
ENDBRANCH  32  33
ENDBRANCH  31  32
ENDBRANCH  30  31
ENDBRANCH  29  30
ENDBRANCH  28  29
ENDBRANCH  27  28
ENDBRANCH  26  27
ENDBRANCH  25  26
ENDBRANCH  24  25
ENDBRANCH  23  24
ENDBRANCH  22  23
ENDBRANCH  21  22
ENDBRANCH  20  21
ENDBRANCH  19  20
ENDBRANCH  18  19
ENDBRANCH  17  18
ENDBRANCH  16  17
ENDBRANCH  15  16
ENDBRANCH  14  15
ENDBRANCH  13  14
ENDBRANCH  12  13
ENDBRANCH  11  12
ENDBRANCH  10  11
ENDBRANCH   9  10
ENDBRANCH   8   9
ENDBRANCH   7   8
ENDBRANCH   6   7
ENDBRANCH   5   6
ENDBRANCH   4   5
ENDBRANCH   3   4
ENDBRANCH   2   3
TORSDOF 37
ENDMDL
MODEL      100
REMARK 921   NORMALIZED FREE ENERGY PREDICTED BY IDOCK:   -3.21 KCAL/MOL
REMARK 922        TOTAL FREE ENERGY PREDICTED BY IDOCK:  -13.78 KCAL/MOL
REMARK 923 INTER-LIGAND FREE ENERGY PREDICTED BY IDOCK:  -10.44 KCAL/MOL
REMARK 924 INTRA-LIGAND FREE ENERGY PREDICTED BY IDOCK:   -3.33 KCAL/MOL
REMARK 927      BINDING AFFINITY PREDICTED BY RF-SCORE:    0.00 PKD
ROOT
HETATM    1  C   UNL     1      -9.919  18.582  68.631  1.00  0.00    -0.419 C  
HETATM    2  C   UNL     1      -8.888  19.472  67.957  1.00  0.00    -0.368 C  
ENDROOT
BRANCH   2   3
HETATM    3  C   UNL     1      -7.504  19.268  68.568  1.00  0.00    -0.360 C  
BRANCH   3   4
HETATM    4  C   UNL     1      -6.742  18.155  67.853  1.00  0.00    -0.203 C  
BRANCH   4   5
HETATM    5  C   UNL     1      -6.418  17.016  68.816  1.00  0.00    -0.181 C  
BRANCH   5   6
HETATM    6  C   UNL     1      -6.733  15.664  68.186  1.00  0.00    -0.133 C  
BRANCH   6   7
HETATM    7  C   UNL     1      -8.240  15.456  68.079  1.00  0.00    -0.146 C  
BRANCH   7   8
HETATM    8  C   UNL     1      -8.628  15.067  66.658  1.00  0.00    -0.246 C  
BRANCH   8   9
HETATM    9  C   UNL     1      -9.655  16.040  66.088  1.00  0.00    -0.366 C  
BRANCH   9  10
HETATM   10  C   UNL     1     -11.066  15.531  66.354  1.00  0.00    -0.174 C  
BRANCH  10  11
HETATM   11  C   UNL     1     -11.597  14.737  65.170  1.00  0.00    -0.358 C  
BRANCH  11  12
HETATM   12  C   UNL     1     -12.897  14.043  65.540  1.00  0.00    -0.419 C  
BRANCH  12  13
HETATM   13  O   UNL     1     -12.852  12.717  65.026  1.00  0.00    -0.743 OA 
BRANCH  13  14
HETATM   14  C   UNL     1     -11.510  12.247  64.964  1.00  0.00    -0.336 C  
BRANCH  14  15
HETATM   15  C   UNL     1     -11.227  11.380  66.178  1.00  0.00    -0.137 C  
BRANCH  15  16
HETATM   16  O   UNL     1     -10.275  12.054  66.994  1.00  0.00    -0.202 OA 
BRANCH  16  17
HETATM   17  C   UNL     1     -10.839  12.424  68.248  1.00  0.00    -0.237 C  
BRANCH  17  18
HETATM   18  C   UNL     1     -11.628  11.242  68.788  1.00  0.00    -0.316 C  
BRANCH  18  19
HETATM   19  O   UNL     1     -11.565  11.258  70.209  1.00  0.00    -0.311 OA 
BRANCH  19  20
HETATM   20  C   UNL     1     -12.704  10.621  70.792  1.00  0.00    -0.378 C  
BRANCH  20  21
HETATM   21  C   UNL     1     -12.347   9.171  71.096  1.00  0.00    -0.267 C  
BRANCH  21  22
HETATM   22  O   UNL     1     -10.937   9.083  71.317  1.00  0.00    -0.261 OA 
BRANCH  22  23
HETATM   23  C   UNL     1     -10.641   8.458  72.560  1.00  0.00    -0.298 C  
BRANCH  23  24
HETATM   24  C   UNL     1      -9.537   7.434  72.348  1.00  0.00    -0.153 C  
BRANCH  24  25
HETATM   25  O   UNL     1     -10.018   6.153  72.744  1.00  0.00    -0.170 OA 
BRANCH  25  26
HETATM   26  C   UNL     1     -11.103   5.734  71.926  1.00  0.00    -0.248 C  
BRANCH  26  27
HETATM   27  C   UNL     1     -10.595   5.522  70.507  1.00  0.00    -0.269 C  
BRANCH  27  28
HETATM   28  O   UNL     1     -11.532   6.075  69.589  1.00  0.00    -0.394 OA 
BRANCH  28  29
HETATM   29  C   UNL     1     -10.879   6.569  68.424  1.00  0.00    -0.289 C  
BRANCH  29  30
HETATM   30  C   UNL     1     -10.142   5.424  67.748  1.00  0.00    -0.171 C  
BRANCH  30  31
HETATM   31  O   UNL     1      -9.203   5.960  66.822  1.00  0.00    -0.126 OA 
BRANCH  31  32
HETATM   32  C   UNL     1      -7.887   5.977  67.371  1.00  0.00    -0.102 C  
BRANCH  32  33
HETATM   33  C   UNL     1      -7.525   7.407  67.744  1.00  0.00    -0.101 C  
BRANCH  33  34
HETATM   34  O   UNL     1      -7.222   8.138  66.559  1.00  0.00    -0.077 OA 
BRANCH  34  35
HETATM   35  C   UNL     1      -8.196   9.146  66.305  1.00  0.00    -0.111 C  
BRANCH  35  36
HETATM   36  C   UNL     1      -8.736   8.966  64.893  1.00  0.00    -0.149 C  
BRANCH  36  37
HETATM   37  O   UNL     1      -7.665   9.060  63.953  1.00  0.00    -0.114 OA 
BRANCH  37  38
HETATM   38  C   UNL     1      -8.155   9.417  62.654  1.00  0.00    -0.140 C  
BRANCH  38  39
HETATM   39  C   UNL     1      -9.318  10.387  62.831  1.00  0.00    -0.319 C  
HETATM   40  O   UNL     1      -8.850  11.731  62.722  1.00  0.00    -0.647 OA 
HETATM   41  H   UNL     1      -9.574  12.335  62.832  1.00  0.00     0.000 HD 
ENDBRANCH  38  39
ENDBRANCH  37  38
ENDBRANCH  36  37
ENDBRANCH  35  36
ENDBRANCH  34  35
ENDBRANCH  33  34
ENDBRANCH  32  33
ENDBRANCH  31  32
ENDBRANCH  30  31
ENDBRANCH  29  30
ENDBRANCH  28  29
ENDBRANCH  27  28
ENDBRANCH  26  27
ENDBRANCH  25  26
ENDBRANCH  24  25
ENDBRANCH  23  24
ENDBRANCH  22  23
ENDBRANCH  21  22
ENDBRANCH  20  21
ENDBRANCH  19  20
ENDBRANCH  18  19
ENDBRANCH  17  18
ENDBRANCH  16  17
ENDBRANCH  15  16
ENDBRANCH  14  15
ENDBRANCH  13  14
ENDBRANCH  12  13
ENDBRANCH  11  12
ENDBRANCH  10  11
ENDBRANCH   9  10
ENDBRANCH   8   9
ENDBRANCH   7   8
ENDBRANCH   6   7
ENDBRANCH   5   6
ENDBRANCH   4   5
ENDBRANCH   3   4
ENDBRANCH   2   3
TORSDOF 37
ENDMDL
MODEL      101
REMARK 921   NORMALIZED FREE ENERGY PREDICTED BY IDOCK:   -3.20 KCAL/MOL
REMARK 922        TOTAL FREE ENERGY PREDICTED BY IDOCK:  -13.73 KCAL/MOL
REMARK 923 INTER-LIGAND FREE ENERGY PREDICTED BY IDOCK:  -10.56 KCAL/MOL
REMARK 924 INTRA-LIGAND FREE ENERGY PREDICTED BY IDOCK:   -3.17 KCAL/MOL
REMARK 927      BINDING AFFINITY PREDICTED BY RF-SCORE:    0.00 PKD
ROOT
HETATM    1  C   UNL     1      -6.838  19.436  69.827  1.00  0.00    -0.171 C  
HETATM    2  C   UNL     1      -5.650  18.701  69.230  1.00  0.00    -0.214 C  
ENDROOT
BRANCH   2   3
HETATM    3  C   UNL     1      -5.942  17.210  69.090  1.00  0.00    -0.195 C  
BRANCH   3   4
HETATM    4  C   UNL     1      -5.789  16.750  67.642  1.00  0.00    -0.166 C  
BRANCH   4   5
HETATM    5  C   UNL     1      -7.076  16.099  67.141  1.00  0.00    -0.253 C  
BRANCH   5   6
HETATM    6  C   UNL     1      -7.970  17.121  66.448  1.00  0.00    -0.346 C  
BRANCH   6   7
HETATM    7  C   UNL     1      -9.384  17.074  67.017  1.00  0.00    -0.249 C  
BRANCH   7   8
HETATM    8  C   UNL     1     -10.404  16.870  65.904  1.00  0.00    -0.327 C  
BRANCH   8   9
HETATM    9  C   UNL     1     -10.345  15.445  65.364  1.00  0.00    -0.422 C  
BRANCH   9  10
HETATM   10  C   UNL     1     -10.430  14.445  66.509  1.00  0.00    -0.289 C  
BRANCH  10  11
HETATM   11  C   UNL     1     -11.870  14.236  66.952  1.00  0.00    -0.458 C  
BRANCH  11  12
HETATM   12  C   UNL     1     -12.747  13.899  65.758  1.00  0.00    -0.461 C  
BRANCH  12  13
HETATM   13  O   UNL     1     -12.536  12.532  65.426  1.00  0.00    -0.656 OA 
BRANCH  13  14
HETATM   14  C   UNL     1     -12.654  12.332  64.022  1.00  0.00    -0.420 C  
BRANCH  14  15
HETATM   15  C   UNL     1     -11.319  12.626  63.361  1.00  0.00    -0.394 C  
BRANCH  15  16
HETATM   16  O   UNL     1     -10.330  11.806  63.973  1.00  0.00    -0.293 OA 
BRANCH  16  17
HETATM   17  C   UNL     1      -9.933  10.744  63.112  1.00  0.00    -0.290 C  
BRANCH  17  18
HETATM   18  C   UNL     1      -8.573  11.083  62.523  1.00  0.00    -0.258 C  
BRANCH  18  19
HETATM   19  O   UNL     1      -7.750   9.924  62.569  1.00  0.00    -0.116 OA 
BRANCH  19  20
HETATM   20  C   UNL     1      -7.487   9.522  63.915  1.00  0.00    -0.117 C  
BRANCH  20  21
HETATM   21  C   UNL     1      -7.796   8.035  64.047  1.00  0.00    -0.145 C  
BRANCH  21  22
HETATM   22  O   UNL     1      -6.858   7.450  64.954  1.00  0.00    -0.049 OA 
BRANCH  22  23
HETATM   23  C   UNL     1      -6.490   8.361  65.983  1.00  0.00    -0.053 C  
BRANCH  23  24
HETATM   24  C   UNL     1      -7.063   7.870  67.304  1.00  0.00    -0.083 C  
BRANCH  24  25
HETATM   25  O   UNL     1      -7.792   6.669  67.069  1.00  0.00    -0.105 OA 
BRANCH  25  26
HETATM   26  C   UNL     1      -9.044   6.684  67.743  1.00  0.00    -0.113 C  
BRANCH  26  27
HETATM   27  C   UNL     1     -10.114   7.177  66.780  1.00  0.00    -0.208 C  
BRANCH  27  28
HETATM   28  O   UNL     1     -10.657   8.398  67.272  1.00  0.00    -0.302 OA 
BRANCH  28  29
HETATM   29  C   UNL     1     -10.122   9.517  66.573  1.00  0.00    -0.256 C  
BRANCH  29  30
HETATM   30  C   UNL     1     -10.319  10.766  67.416  1.00  0.00    -0.211 C  
BRANCH  30  31
HETATM   31  O   UNL     1     -10.661  10.380  68.743  1.00  0.00    -0.199 OA 
BRANCH  31  32
HETATM   32  C   UNL     1     -11.748  11.156  69.244  1.00  0.00    -0.331 C  
BRANCH  32  33
HETATM   33  C   UNL     1     -12.293  10.490  70.499  1.00  0.00    -0.343 C  
BRANCH  33  34
HETATM   34  O   UNL     1     -11.206  10.087  71.326  1.00  0.00    -0.341 OA 
BRANCH  34  35
HETATM   35  C   UNL     1     -11.381   8.756  71.804  1.00  0.00    -0.339 C  
BRANCH  35  36
HETATM   36  C   UNL     1     -10.774   7.787  70.798  1.00  0.00    -0.226 C  
BRANCH  36  37
HETATM   37  O   UNL     1     -11.205   6.457  71.091  1.00  0.00    -0.275 OA 
BRANCH  37  38
HETATM   38  C   UNL     1     -10.149   5.699  71.696  1.00  0.00    -0.195 C  
BRANCH  38  39
HETATM   39  C   UNL     1     -10.774   4.652  72.610  1.00  0.00    -0.181 C  
HETATM   40  O   UNL     1     -11.936   5.189  73.241  1.00  0.00    -0.512 OA 
HETATM   41  H   UNL     1     -12.325   4.536  73.810  1.00  0.00     0.000 HD 
ENDBRANCH  38  39
ENDBRANCH  37  38
ENDBRANCH  36  37
ENDBRANCH  35  36
ENDBRANCH  34  35
ENDBRANCH  33  34
ENDBRANCH  32  33
ENDBRANCH  31  32
ENDBRANCH  30  31
ENDBRANCH  29  30
ENDBRANCH  28  29
ENDBRANCH  27  28
ENDBRANCH  26  27
ENDBRANCH  25  26
ENDBRANCH  24  25
ENDBRANCH  23  24
ENDBRANCH  22  23
ENDBRANCH  21  22
ENDBRANCH  20  21
ENDBRANCH  19  20
ENDBRANCH  18  19
ENDBRANCH  17  18
ENDBRANCH  16  17
ENDBRANCH  15  16
ENDBRANCH  14  15
ENDBRANCH  13  14
ENDBRANCH  12  13
ENDBRANCH  11  12
ENDBRANCH  10  11
ENDBRANCH   9  10
ENDBRANCH   8   9
ENDBRANCH   7   8
ENDBRANCH   6   7
ENDBRANCH   5   6
ENDBRANCH   4   5
ENDBRANCH   3   4
ENDBRANCH   2   3
TORSDOF 37
ENDMDL
MODEL      102
REMARK 921   NORMALIZED FREE ENERGY PREDICTED BY IDOCK:   -3.19 KCAL/MOL
REMARK 922        TOTAL FREE ENERGY PREDICTED BY IDOCK:  -13.72 KCAL/MOL
REMARK 923 INTER-LIGAND FREE ENERGY PREDICTED BY IDOCK:  -10.65 KCAL/MOL
REMARK 924 INTRA-LIGAND FREE ENERGY PREDICTED BY IDOCK:   -3.07 KCAL/MOL
REMARK 927      BINDING AFFINITY PREDICTED BY RF-SCORE:    0.00 PKD
ROOT
HETATM    1  C   UNL     1     -11.705   6.939  70.411  1.00  0.00    -0.377 C  
HETATM    2  C   UNL     1     -10.829   8.172  70.559  1.00  0.00    -0.247 C  
ENDROOT
BRANCH   2   3
HETATM    3  C   UNL     1     -10.619   8.521  72.029  1.00  0.00    -0.408 C  
BRANCH   3   4
HETATM    4  C   UNL     1     -11.430   7.601  72.939  1.00  0.00    -0.342 C  
BRANCH   4   5
HETATM    5  C   UNL     1     -10.522   6.893  73.941  1.00  0.00    -0.352 C  
BRANCH   5   6
HETATM    6  C   UNL     1      -9.058   7.019  73.534  1.00  0.00    -0.186 C  
BRANCH   6   7
HETATM    7  C   UNL     1      -8.480   5.655  73.170  1.00  0.00    -0.117 C  
BRANCH   7   8
HETATM    8  C   UNL     1      -8.373   5.504  71.658  1.00  0.00    -0.123 C  
BRANCH   8   9
HETATM    9  C   UNL     1      -6.945   5.753  71.184  1.00  0.00    -0.067 C  
BRANCH   9  10
HETATM   10  C   UNL     1      -6.874   7.045  70.382  1.00  0.00    -0.057 C  
BRANCH  10  11
HETATM   11  C   UNL     1      -7.471   6.865  68.994  1.00  0.00    -0.095 C  
BRANCH  11  12
HETATM   12  C   UNL     1      -6.781   5.725  68.266  1.00  0.00    -0.057 C  
BRANCH  12  13
HETATM   13  O   UNL     1      -7.684   5.209  67.295  1.00  0.00    -0.091 OA 
BRANCH  13  14
HETATM   14  C   UNL     1      -8.479   4.167  67.850  1.00  0.00    -0.094 C  
BRANCH  14  15
HETATM   15  C   UNL     1      -9.926   4.621  67.912  1.00  0.00    -0.077 C  
BRANCH  15  16
HETATM   16  O   UNL     1     -10.250   5.244  66.674  1.00  0.00    -0.199 OA 
BRANCH  16  17
HETATM   17  C   UNL     1     -10.877   6.505  66.878  1.00  0.00    -0.357 C  
BRANCH  17  18
HETATM   18  C   UNL     1      -9.865   7.600  66.581  1.00  0.00    -0.213 C  
BRANCH  18  19
HETATM   19  O   UNL     1     -10.493   8.865  66.749  1.00  0.00    -0.260 OA 
BRANCH  19  20
HETATM   20  C   UNL     1      -9.578   9.939  66.523  1.00  0.00    -0.190 C  
BRANCH  20  21
HETATM   21  C   UNL     1     -10.316  11.062  65.802  1.00  0.00    -0.257 C  
BRANCH  21  22
HETATM   22  O   UNL     1     -10.469  10.701  64.427  1.00  0.00    -0.350 OA 
BRANCH  22  23
HETATM   23  C   UNL     1     -11.080  11.744  63.678  1.00  0.00    -0.439 C  
BRANCH  23  24
HETATM   24  C   UNL     1     -11.137  12.999  64.536  1.00  0.00    -0.351 C  
BRANCH  24  25
HETATM   25  O   UNL     1     -12.492  13.429  64.629  1.00  0.00    -0.525 OA 
BRANCH  25  26
HETATM   26  C   UNL     1     -12.577  14.839  64.791  1.00  0.00    -0.095 C  
BRANCH  26  27
HETATM   27  C   UNL     1     -11.322  15.475  64.209  1.00  0.00    -0.155 C  
BRANCH  27  28
HETATM   28  O   UNL     1     -11.289  16.853  64.568  1.00  0.00    -1.006 OA 
BRANCH  28  29
HETATM   29  C   UNL     1     -10.355  17.087  65.617  1.00  0.00    -0.209 C  
BRANCH  29  30
HETATM   30  C   UNL     1     -10.486  18.529  66.081  1.00  0.00    -0.413 C  
BRANCH  30  31
HETATM   31  O   UNL     1      -9.222  18.979  66.557  1.00  0.00    -0.318 OA 
BRANCH  31  32
HETATM   32  C   UNL     1      -8.342  17.884  66.802  1.00  0.00    -0.252 C  
BRANCH  32  33
HETATM   33  C   UNL     1      -8.134  17.743  68.303  1.00  0.00    -0.283 C  
BRANCH  33  34
HETATM   34  O   UNL     1      -8.557  16.447  68.715  1.00  0.00    -0.227 OA 
BRANCH  34  35
HETATM   35  C   UNL     1      -9.821  16.497  69.372  1.00  0.00    -0.155 C  
BRANCH  35  36
HETATM   36  C   UNL     1     -10.828  15.688  68.566  1.00  0.00    -0.282 C  
BRANCH  36  37
HETATM   37  O   UNL     1     -11.336  14.618  69.365  1.00  0.00    -0.257 OA 
BRANCH  37  38
HETATM   38  C   UNL     1     -11.850  13.564  68.541  1.00  0.00    -0.362 C  
BRANCH  38  39
HETATM   39  C   UNL     1     -11.424  12.231  69.146  1.00  0.00    -0.296 C  
HETATM   40  O   UNL     1     -11.783  12.188  70.526  1.00  0.00    -0.513 OA 
HETATM   41  H   UNL     1     -11.517  11.357  70.903  1.00  0.00     0.000 HD 
ENDBRANCH  38  39
ENDBRANCH  37  38
ENDBRANCH  36  37
ENDBRANCH  35  36
ENDBRANCH  34  35
ENDBRANCH  33  34
ENDBRANCH  32  33
ENDBRANCH  31  32
ENDBRANCH  30  31
ENDBRANCH  29  30
ENDBRANCH  28  29
ENDBRANCH  27  28
ENDBRANCH  26  27
ENDBRANCH  25  26
ENDBRANCH  24  25
ENDBRANCH  23  24
ENDBRANCH  22  23
ENDBRANCH  21  22
ENDBRANCH  20  21
ENDBRANCH  19  20
ENDBRANCH  18  19
ENDBRANCH  17  18
ENDBRANCH  16  17
ENDBRANCH  15  16
ENDBRANCH  14  15
ENDBRANCH  13  14
ENDBRANCH  12  13
ENDBRANCH  11  12
ENDBRANCH  10  11
ENDBRANCH   9  10
ENDBRANCH   8   9
ENDBRANCH   7   8
ENDBRANCH   6   7
ENDBRANCH   5   6
ENDBRANCH   4   5
ENDBRANCH   3   4
ENDBRANCH   2   3
TORSDOF 37
ENDMDL
MODEL      103
REMARK 921   NORMALIZED FREE ENERGY PREDICTED BY IDOCK:   -3.18 KCAL/MOL
REMARK 922        TOTAL FREE ENERGY PREDICTED BY IDOCK:  -13.68 KCAL/MOL
REMARK 923 INTER-LIGAND FREE ENERGY PREDICTED BY IDOCK:  -10.64 KCAL/MOL
REMARK 924 INTRA-LIGAND FREE ENERGY PREDICTED BY IDOCK:   -3.04 KCAL/MOL
REMARK 927      BINDING AFFINITY PREDICTED BY RF-SCORE:    0.00 PKD
ROOT
HETATM    1  C   UNL     1     -10.828  19.489  67.232  1.00  0.00    -0.557 C  
HETATM    2  C   UNL     1      -9.652  19.607  66.278  1.00  0.00    -0.488 C  
ENDROOT
BRANCH   2   3
HETATM    3  C   UNL     1      -8.445  20.237  66.969  1.00  0.00    -0.388 C  
BRANCH   3   4
HETATM    4  C   UNL     1      -7.343  19.207  67.205  1.00  0.00    -0.240 C  
BRANCH   4   5
HETATM    5  C   UNL     1      -7.470  18.587  68.594  1.00  0.00    -0.323 C  
BRANCH   5   6
HETATM    6  C   UNL     1      -7.590  17.070  68.505  1.00  0.00    -0.231 C  
BRANCH   6   7
HETATM    7  C   UNL     1      -9.037  16.630  68.701  1.00  0.00    -0.245 C  
BRANCH   7   8
HETATM    8  C   UNL     1      -9.420  15.572  67.675  1.00  0.00    -0.208 C  
BRANCH   8   9
HETATM    9  C   UNL     1      -9.088  16.037  66.261  1.00  0.00    -0.379 C  
BRANCH   9  10
HETATM   10  C   UNL     1     -10.347  16.054  65.403  1.00  0.00    -0.386 C  
BRANCH  10  11
HETATM   11  C   UNL     1     -10.566  14.713  64.720  1.00  0.00    -0.379 C  
BRANCH  11  12
HETATM   12  C   UNL     1     -12.045  14.488  64.458  1.00  0.00    -0.484 C  
BRANCH  12  13
HETATM   13  O   UNL     1     -12.470  13.382  65.244  1.00  0.00    -0.439 OA 
BRANCH  13  14
HETATM   14  C   UNL     1     -11.395  12.473  65.456  1.00  0.00    -0.331 C  
BRANCH  14  15
HETATM   15  C   UNL     1     -11.487  11.908  66.862  1.00  0.00    -0.322 C  
BRANCH  15  16
HETATM   16  O   UNL     1     -11.889  12.956  67.737  1.00  0.00    -0.349 OA 
BRANCH  16  17
HETATM   17  C   UNL     1     -11.876  12.529  69.095  1.00  0.00    -0.296 C  
BRANCH  17  18
HETATM   18  C   UNL     1     -12.028  11.017  69.126  1.00  0.00    -0.324 C  
BRANCH  18  19
HETATM   19  O   UNL     1     -11.412  10.517  70.306  1.00  0.00    -0.287 OA 
BRANCH  19  20
HETATM   20  C   UNL     1     -12.351  10.393  71.376  1.00  0.00    -0.397 C  
BRANCH  20  21
HETATM   21  C   UNL     1     -12.538   8.913  71.689  1.00  0.00    -0.346 C  
BRANCH  21  22
HETATM   22  O   UNL     1     -11.437   8.185  71.138  1.00  0.00    -0.268 OA 
BRANCH  22  23
HETATM   23  C   UNL     1     -11.726   6.796  71.040  1.00  0.00    -0.355 C  
BRANCH  23  24
HETATM   24  C   UNL     1     -11.042   6.067  72.185  1.00  0.00    -0.279 C  
BRANCH  24  25
HETATM   25  O   UNL     1     -10.537   4.825  71.701  1.00  0.00    -0.139 OA 
BRANCH  25  26
HETATM   26  C   UNL     1      -9.323   5.006  70.984  1.00  0.00    -0.152 C  
BRANCH  26  27
HETATM   27  C   UNL     1      -8.960   3.698  70.297  1.00  0.00    -0.103 C  
BRANCH  27  28
HETATM   28  O   UNL     1      -7.591   3.741  69.906  1.00  0.00    -0.048 OA 
BRANCH  28  29
HETATM   29  C   UNL     1      -7.464   3.980  68.508  1.00  0.00    -0.059 C  
BRANCH  29  30
HETATM   30  C   UNL     1      -6.071   4.518  68.224  1.00  0.00    -0.031 C  
BRANCH  30  31
HETATM   31  O   UNL     1      -6.123   5.353  67.072  1.00  0.00    -0.028 OA 
BRANCH  31  32
HETATM   32  C   UNL     1      -5.665   6.670  67.366  1.00  0.00    -0.013 C  
BRANCH  32  33
HETATM   33  C   UNL     1      -6.641   7.331  68.328  1.00  0.00    -0.049 C  
BRANCH  33  34
HETATM   34  O   UNL     1      -6.674   8.733  68.075  1.00  0.00    -0.066 OA 
BRANCH  34  35
HETATM   35  C   UNL     1      -7.437   9.033  66.909  1.00  0.00    -0.090 C  
BRANCH  35  36
HETATM   36  C   UNL     1      -8.817   9.518  67.334  1.00  0.00    -0.128 C  
BRANCH  36  37
HETATM   37  O   UNL     1      -9.494   8.480  68.044  1.00  0.00    -0.139 OA 
BRANCH  37  38
HETATM   38  C   UNL     1     -10.606   7.984  67.286  1.00  0.00    -0.290 C  
BRANCH  38  39
HETATM   39  C   UNL     1     -10.560   6.461  67.309  1.00  0.00    -0.314 C  
HETATM   40  O   UNL     1     -11.206   5.938  66.149  1.00  0.00    -0.691 OA 
HETATM   41  H   UNL     1     -11.177   4.989  66.163  1.00  0.00     0.000 HD 
ENDBRANCH  38  39
ENDBRANCH  37  38
ENDBRANCH  36  37
ENDBRANCH  35  36
ENDBRANCH  34  35
ENDBRANCH  33  34
ENDBRANCH  32  33
ENDBRANCH  31  32
ENDBRANCH  30  31
ENDBRANCH  29  30
ENDBRANCH  28  29
ENDBRANCH  27  28
ENDBRANCH  26  27
ENDBRANCH  25  26
ENDBRANCH  24  25
ENDBRANCH  23  24
ENDBRANCH  22  23
ENDBRANCH  21  22
ENDBRANCH  20  21
ENDBRANCH  19  20
ENDBRANCH  18  19
ENDBRANCH  17  18
ENDBRANCH  16  17
ENDBRANCH  15  16
ENDBRANCH  14  15
ENDBRANCH  13  14
ENDBRANCH  12  13
ENDBRANCH  11  12
ENDBRANCH  10  11
ENDBRANCH   9  10
ENDBRANCH   8   9
ENDBRANCH   7   8
ENDBRANCH   6   7
ENDBRANCH   5   6
ENDBRANCH   4   5
ENDBRANCH   3   4
ENDBRANCH   2   3
TORSDOF 37
ENDMDL
MODEL      104
REMARK 921   NORMALIZED FREE ENERGY PREDICTED BY IDOCK:   -3.17 KCAL/MOL
REMARK 922        TOTAL FREE ENERGY PREDICTED BY IDOCK:  -13.65 KCAL/MOL
REMARK 923 INTER-LIGAND FREE ENERGY PREDICTED BY IDOCK:  -10.30 KCAL/MOL
REMARK 924 INTRA-LIGAND FREE ENERGY PREDICTED BY IDOCK:   -3.34 KCAL/MOL
REMARK 927      BINDING AFFINITY PREDICTED BY RF-SCORE:    0.00 PKD
ROOT
HETATM    1  C   UNL     1     -11.349   5.845  71.493  1.00  0.00    -0.256 C  
HETATM    2  C   UNL     1     -11.723   7.315  71.411  1.00  0.00    -0.317 C  
ENDROOT
BRANCH   2   3
HETATM    3  C   UNL     1     -11.168   8.090  72.602  1.00  0.00    -0.462 C  
BRANCH   3   4
HETATM    4  C   UNL     1     -10.478   7.157  73.596  1.00  0.00    -0.412 C  
BRANCH   4   5
HETATM    5  C   UNL     1      -9.048   7.617  73.867  1.00  0.00    -0.316 C  
BRANCH   5   6
HETATM    6  C   UNL     1      -8.100   7.114  72.785  1.00  0.00    -0.119 C  
BRANCH   6   7
HETATM    7  C   UNL     1      -7.446   8.283  72.055  1.00  0.00    -0.124 C  
BRANCH   7   8
HETATM    8  C   UNL     1      -8.013   8.421  70.648  1.00  0.00    -0.101 C  
BRANCH   8   9
HETATM    9  C   UNL     1      -8.163   7.056  69.984  1.00  0.00    -0.133 C  
BRANCH   9  10
HETATM   10  C   UNL     1      -9.086   7.157  68.777  1.00  0.00    -0.134 C  
BRANCH  10  11
HETATM   11  C   UNL     1      -9.566   5.783  68.334  1.00  0.00    -0.147 C  
BRANCH  11  12
HETATM   12  C   UNL     1     -10.713   5.917  67.346  1.00  0.00    -0.287 C  
BRANCH  12  13
HETATM   13  O   UNL     1     -10.568   4.901  66.361  1.00  0.00    -0.297 OA 
BRANCH  13  14
HETATM   14  C   UNL     1      -9.421   4.102  66.628  1.00  0.00    -0.191 C  
BRANCH  14  15
HETATM   15  C   UNL     1      -8.759   3.723  65.315  1.00  0.00    -0.116 C  
BRANCH  15  16
HETATM   16  O   UNL     1      -9.551   4.241  64.252  1.00  0.00    -0.158 OA 
BRANCH  16  17
HETATM   17  C   UNL     1      -8.739   4.689  63.172  1.00  0.00    -0.121 C  
BRANCH  17  18
HETATM   18  C   UNL     1      -7.567   5.470  63.743  1.00  0.00    -0.072 C  
BRANCH  18  19
HETATM   19  O   UNL     1      -7.218   6.507  62.835  1.00  0.00    -0.046 OA 
BRANCH  19  20
HETATM   20  C   UNL     1      -8.370   7.237  62.406  1.00  0.00    -0.013 C  
BRANCH  20  21
HETATM   21  C   UNL     1      -8.010   8.716  62.339  1.00  0.00    -0.149 C  
BRANCH  21  22
HETATM   22  O   UNL     1      -8.697   9.403  63.390  1.00  0.00    -0.212 OA 
BRANCH  22  23
HETATM   23  C   UNL     1      -7.874   9.553  64.540  1.00  0.00    -0.126 C  
BRANCH  23  24
HETATM   24  C   UNL     1      -8.557  10.498  65.516  1.00  0.00    -0.180 C  
BRANCH  24  25
HETATM   25  O   UNL     1      -9.968  10.401  65.337  1.00  0.00    -0.261 OA 
BRANCH  25  26
HETATM   26  C   UNL     1     -10.562   9.597  66.348  1.00  0.00    -0.027 C  
BRANCH  26  27
HETATM   27  C   UNL     1     -10.701  10.428  67.616  1.00  0.00    -0.286 C  
BRANCH  27  28
HETATM   28  O   UNL     1     -11.936  11.136  67.576  1.00  0.00    -0.580 OA 
BRANCH  28  29
HETATM   29  C   UNL     1     -11.752  12.507  67.911  1.00  0.00    -0.359 C  
BRANCH  29  30
HETATM   30  C   UNL     1     -12.077  12.703  69.383  1.00  0.00    -0.179 C  
BRANCH  30  31
HETATM   31  O   UNL     1     -12.324  14.084  69.624  1.00  0.00    -0.334 OA 
BRANCH  31  32
HETATM   32  C   UNL     1     -11.123  14.774  69.961  1.00  0.00    -0.204 C  
BRANCH  32  33
HETATM   33  C   UNL     1     -11.372  16.273  69.875  1.00  0.00    -0.261 C  
BRANCH  33  34
HETATM   34  O   UNL     1     -10.264  16.896  69.231  1.00  0.00    -0.290 OA 
BRANCH  34  35
HETATM   35  C   UNL     1     -10.525  17.120  67.848  1.00  0.00    -0.369 C  
BRANCH  35  36
HETATM   36  C   UNL     1      -9.593  16.243  67.021  1.00  0.00    -0.231 C  
BRANCH  36  37
HETATM   37  O   UNL     1     -10.314  15.119  66.514  1.00  0.00    -0.269 OA 
BRANCH  37  38
HETATM   38  C   UNL     1     -10.235  15.064  65.084  1.00  0.00    -0.365 C  
BRANCH  38  39
HETATM   39  C   UNL     1     -11.632  15.296  64.518  1.00  0.00    -0.312 C  
HETATM   40  O   UNL     1     -11.716  16.602  63.951  1.00  0.00    -1.487 OA 
HETATM   41  H   UNL     1     -12.586  16.746  63.599  1.00  0.00     0.000 HD 
ENDBRANCH  38  39
ENDBRANCH  37  38
ENDBRANCH  36  37
ENDBRANCH  35  36
ENDBRANCH  34  35
ENDBRANCH  33  34
ENDBRANCH  32  33
ENDBRANCH  31  32
ENDBRANCH  30  31
ENDBRANCH  29  30
ENDBRANCH  28  29
ENDBRANCH  27  28
ENDBRANCH  26  27
ENDBRANCH  25  26
ENDBRANCH  24  25
ENDBRANCH  23  24
ENDBRANCH  22  23
ENDBRANCH  21  22
ENDBRANCH  20  21
ENDBRANCH  19  20
ENDBRANCH  18  19
ENDBRANCH  17  18
ENDBRANCH  16  17
ENDBRANCH  15  16
ENDBRANCH  14  15
ENDBRANCH  13  14
ENDBRANCH  12  13
ENDBRANCH  11  12
ENDBRANCH  10  11
ENDBRANCH   9  10
ENDBRANCH   8   9
ENDBRANCH   7   8
ENDBRANCH   6   7
ENDBRANCH   5   6
ENDBRANCH   4   5
ENDBRANCH   3   4
ENDBRANCH   2   3
TORSDOF 37
ENDMDL
MODEL      105
REMARK 921   NORMALIZED FREE ENERGY PREDICTED BY IDOCK:   -3.15 KCAL/MOL
REMARK 922        TOTAL FREE ENERGY PREDICTED BY IDOCK:  -13.59 KCAL/MOL
REMARK 923 INTER-LIGAND FREE ENERGY PREDICTED BY IDOCK:  -10.42 KCAL/MOL
REMARK 924 INTRA-LIGAND FREE ENERGY PREDICTED BY IDOCK:   -3.17 KCAL/MOL
REMARK 927      BINDING AFFINITY PREDICTED BY RF-SCORE:    0.00 PKD
ROOT
HETATM    1  C   UNL     1     -11.796  12.277  69.752  1.00  0.00    -0.388 C  
HETATM    2  C   UNL     1     -11.735  12.610  68.271  1.00  0.00    -0.389 C  
ENDROOT
BRANCH   2   3
HETATM    3  C   UNL     1     -11.981  14.098  68.033  1.00  0.00    -0.372 C  
BRANCH   3   4
HETATM    4  C   UNL     1     -11.696  14.480  66.582  1.00  0.00    -0.384 C  
BRANCH   4   5
HETATM    5  C   UNL     1     -12.777  13.930  65.655  1.00  0.00    -0.534 C  
BRANCH   5   6
HETATM    6  C   UNL     1     -12.169  13.048  64.572  1.00  0.00    -0.476 C  
BRANCH   6   7
HETATM    7  C   UNL     1     -10.646  13.128  64.602  1.00  0.00    -0.410 C  
BRANCH   7   8
HETATM    8  C   UNL     1     -10.046  11.795  65.030  1.00  0.00    -0.302 C  
BRANCH   8   9
HETATM    9  C   UNL     1     -10.251  10.734  63.953  1.00  0.00    -0.377 C  
BRANCH   9  10
HETATM   10  C   UNL     1      -9.051  10.696  63.017  1.00  0.00    -0.286 C  
BRANCH  10  11
HETATM   11  C   UNL     1      -8.582   9.268  62.781  1.00  0.00    -0.222 C  
BRANCH  11  12
HETATM   12  C   UNL     1      -7.586   8.855  63.851  1.00  0.00    -0.121 C  
BRANCH  12  13
HETATM   13  O   UNL     1      -8.262   8.023  64.787  1.00  0.00    -0.149 OA 
BRANCH  13  14
HETATM   14  C   UNL     1      -8.184   8.575  66.097  1.00  0.00    -0.115 C  
BRANCH  14  15
HETATM   15  C   UNL     1      -8.826   7.615  67.082  1.00  0.00    -0.125 C  
BRANCH  15  16
HETATM   16  O   UNL     1     -10.239   7.736  66.965  1.00  0.00    -0.247 OA 
BRANCH  16  17
HETATM   17  C   UNL     1     -10.879   7.567  68.225  1.00  0.00     0.008 C  
BRANCH  17  18
HETATM   18  C   UNL     1     -10.429   6.243  68.821  1.00  0.00    -0.233 C  
BRANCH  18  19
HETATM   19  O   UNL     1     -11.392   5.817  69.777  1.00  0.00    -0.287 OA 
BRANCH  19  20
HETATM   20  C   UNL     1     -11.801   6.894  70.624  1.00  0.00    -0.368 C  
BRANCH  20  21
HETATM   21  C   UNL     1     -11.869   6.385  72.058  1.00  0.00    -0.333 C  
BRANCH  21  22
HETATM   22  O   UNL     1     -11.125   7.276  72.895  1.00  0.00    -0.306 OA 
BRANCH  22  23
HETATM   23  C   UNL     1      -9.762   6.883  72.995  1.00  0.00    -0.166 C  
BRANCH  23  24
HETATM   24  C   UNL     1      -8.890   8.128  73.026  1.00  0.00    -0.248 C  
BRANCH  24  25
HETATM   25  O   UNL     1      -9.174   8.915  71.872  1.00  0.00    -0.310 OA 
BRANCH  25  26
HETATM   26  C   UNL     1      -8.397   8.495  70.757  1.00  0.00    -0.139 C  
BRANCH  26  27
HETATM   27  C   UNL     1      -7.746   9.716  70.125  1.00  0.00    -0.170 C  
BRANCH  27  28
HETATM   28  O   UNL     1      -8.693  10.365  69.283  1.00  0.00    -0.159 OA 
BRANCH  28  29
HETATM   29  C   UNL     1      -8.059  11.320  68.438  1.00  0.00    -0.143 C  
BRANCH  29  30
HETATM   30  C   UNL     1      -7.006  12.066  69.241  1.00  0.00    -0.028 C  
BRANCH  30  31
HETATM   31  O   UNL     1      -7.025  13.440  68.867  1.00  0.00    -0.104 OA 
BRANCH  31  32
HETATM   32  C   UNL     1      -5.710  13.926  68.612  1.00  0.00    -0.085 C  
BRANCH  32  33
HETATM   33  C   UNL     1      -5.773  15.430  68.383  1.00  0.00    -0.105 C  
BRANCH  33  34
HETATM   34  O   UNL     1      -6.164  15.683  67.037  1.00  0.00    -0.298 OA 
BRANCH  34  35
HETATM   35  C   UNL     1      -6.713  16.990  66.891  1.00  0.00    -0.217 C  
BRANCH  35  36
HETATM   36  C   UNL     1      -7.742  17.218  67.990  1.00  0.00    -0.202 C  
BRANCH  36  37
HETATM   37  O   UNL     1      -7.882  18.618  68.236  1.00  0.00    -0.286 OA 
BRANCH  37  38
HETATM   38  C   UNL     1      -9.260  18.971  68.413  1.00  0.00    -0.352 C  
BRANCH  38  39
HETATM   39  C   UNL     1      -9.815  19.421  67.066  1.00  0.00    -0.343 C  
HETATM   40  O   UNL     1      -9.447  20.777  66.818  1.00  0.00    -0.648 OA 
HETATM   41  H   UNL     1      -9.793  21.057  65.979  1.00  0.00     0.000 HD 
ENDBRANCH  38  39
ENDBRANCH  37  38
ENDBRANCH  36  37
ENDBRANCH  35  36
ENDBRANCH  34  35
ENDBRANCH  33  34
ENDBRANCH  32  33
ENDBRANCH  31  32
ENDBRANCH  30  31
ENDBRANCH  29  30
ENDBRANCH  28  29
ENDBRANCH  27  28
ENDBRANCH  26  27
ENDBRANCH  25  26
ENDBRANCH  24  25
ENDBRANCH  23  24
ENDBRANCH  22  23
ENDBRANCH  21  22
ENDBRANCH  20  21
ENDBRANCH  19  20
ENDBRANCH  18  19
ENDBRANCH  17  18
ENDBRANCH  16  17
ENDBRANCH  15  16
ENDBRANCH  14  15
ENDBRANCH  13  14
ENDBRANCH  12  13
ENDBRANCH  11  12
ENDBRANCH  10  11
ENDBRANCH   9  10
ENDBRANCH   8   9
ENDBRANCH   7   8
ENDBRANCH   6   7
ENDBRANCH   5   6
ENDBRANCH   4   5
ENDBRANCH   3   4
ENDBRANCH   2   3
TORSDOF 37
ENDMDL
MODEL      106
REMARK 921   NORMALIZED FREE ENERGY PREDICTED BY IDOCK:   -3.14 KCAL/MOL
REMARK 922        TOTAL FREE ENERGY PREDICTED BY IDOCK:  -13.54 KCAL/MOL
REMARK 923 INTER-LIGAND FREE ENERGY PREDICTED BY IDOCK:  -10.67 KCAL/MOL
REMARK 924 INTRA-LIGAND FREE ENERGY PREDICTED BY IDOCK:   -2.88 KCAL/MOL
REMARK 927      BINDING AFFINITY PREDICTED BY RF-SCORE:    0.00 PKD
ROOT
HETATM    1  C   UNL     1     -11.838   8.369  72.476  1.00  0.00    -0.427 C  
HETATM    2  C   UNL     1     -11.733   8.849  71.039  1.00  0.00    -0.340 C  
ENDROOT
BRANCH   2   3
HETATM    3  C   UNL     1     -12.865   9.815  70.699  1.00  0.00    -0.138 C  
BRANCH   3   4
HETATM    4  C   UNL     1     -13.146  10.768  71.859  1.00  0.00    -0.557 C  
BRANCH   4   5
HETATM    5  C   UNL     1     -12.822  12.208  71.466  1.00  0.00    -0.394 C  
BRANCH   5   6
HETATM    6  C   UNL     1     -13.705  13.191  72.225  1.00  0.00    -0.647 C  
BRANCH   6   7
HETATM    7  C   UNL     1     -13.241  14.625  71.990  1.00  0.00    -0.439 C  
BRANCH   7   8
HETATM    8  C   UNL     1     -12.015  14.652  71.087  1.00  0.00    -0.405 C  
BRANCH   8   9
HETATM    9  C   UNL     1     -11.858  16.015  70.421  1.00  0.00    -0.286 C  
BRANCH   9  10
HETATM   10  C   UNL     1     -11.561  15.844  68.937  1.00  0.00    -0.392 C  
BRANCH  10  11
HETATM   11  C   UNL     1     -11.853  14.424  68.476  1.00  0.00    -0.369 C  
BRANCH  11  12
HETATM   12  C   UNL     1     -12.000  14.378  66.965  1.00  0.00    -0.395 C  
BRANCH  12  13
HETATM   13  O   UNL     1     -10.897  15.071  66.392  1.00  0.00    -0.316 OA 
BRANCH  13  14
HETATM   14  C   UNL     1     -11.011  15.112  64.974  1.00  0.00    -0.430 C  
BRANCH  14  15
HETATM   15  C   UNL     1     -12.380  14.597  64.567  1.00  0.00    -0.398 C  
BRANCH  15  16
HETATM   16  O   UNL     1     -12.238  13.864  63.355  1.00  0.00    -0.635 OA 
BRANCH  16  17
HETATM   17  C   UNL     1     -12.086  12.472  63.609  1.00  0.00    -0.554 C  
BRANCH  17  18
HETATM   18  C   UNL     1     -10.645  12.084  63.322  1.00  0.00    -0.348 C  
BRANCH  18  19
HETATM   19  O   UNL     1     -10.020  11.698  64.540  1.00  0.00    -0.244 OA 
BRANCH  19  20
HETATM   20  C   UNL     1     -10.976  11.230  65.493  1.00  0.00    -0.131 C  
BRANCH  20  21
HETATM   21  C   UNL     1     -10.227  10.655  66.689  1.00  0.00    -0.231 C  
BRANCH  21  22
HETATM   22  O   UNL     1      -8.835  10.583  66.367  1.00  0.00    -0.147 OA 
BRANCH  22  23
HETATM   23  C   UNL     1      -8.109   9.852  67.348  1.00  0.00    -0.113 C  
BRANCH  23  24
HETATM   24  C   UNL     1      -8.650  10.203  68.726  1.00  0.00    -0.133 C  
BRANCH  24  25
HETATM   25  O   UNL     1      -8.892   8.996  69.443  1.00  0.00    -0.137 OA 
BRANCH  25  26
HETATM   26  C   UNL     1      -7.675   8.398  69.872  1.00  0.00    -0.092 C  
BRANCH  26  27
HETATM   27  C   UNL     1      -7.905   7.730  71.220  1.00  0.00    -0.086 C  
BRANCH  27  28
HETATM   28  O   UNL     1      -8.024   6.324  71.029  1.00  0.00    -0.112 OA 
BRANCH  28  29
HETATM   29  C   UNL     1      -9.391   5.925  70.999  1.00  0.00    -0.161 C  
BRANCH  29  30
HETATM   30  C   UNL     1      -9.471   4.477  70.543  1.00  0.00    -0.176 C  
BRANCH  30  31
HETATM   31  O   UNL     1      -9.810   4.445  69.160  1.00  0.00    -0.182 OA 
BRANCH  31  32
HETATM   32  C   UNL     1     -10.517   5.621  68.773  1.00  0.00    -0.219 C  
BRANCH  32  33
HETATM   33  C   UNL     1      -9.911   6.163  67.487  1.00  0.00    -0.125 C  
BRANCH  33  34
HETATM   34  O   UNL     1      -8.622   5.585  67.297  1.00  0.00    -0.110 OA 
BRANCH  34  35
HETATM   35  C   UNL     1      -8.428   5.179  65.944  1.00  0.00    -0.121 C  
BRANCH  35  36
HETATM   36  C   UNL     1      -7.015   4.632  65.791  1.00  0.00    -0.063 C  
BRANCH  36  37
HETATM   37  O   UNL     1      -7.046   3.205  65.825  1.00  0.00    -0.062 OA 
BRANCH  37  38
HETATM   38  C   UNL     1      -7.395   2.732  67.132  1.00  0.00    -0.058 C  
BRANCH  38  39
HETATM   39  C   UNL     1      -8.624   1.838  67.004  1.00  0.00    -0.103 C  
HETATM   40  O   UNL     1      -9.783   2.539  67.456  1.00  0.00    -0.391 OA 
HETATM   41  H   UNL     1     -10.548   1.982  67.376  1.00  0.00     0.000 HD 
ENDBRANCH  38  39
ENDBRANCH  37  38
ENDBRANCH  36  37
ENDBRANCH  35  36
ENDBRANCH  34  35
ENDBRANCH  33  34
ENDBRANCH  32  33
ENDBRANCH  31  32
ENDBRANCH  30  31
ENDBRANCH  29  30
ENDBRANCH  28  29
ENDBRANCH  27  28
ENDBRANCH  26  27
ENDBRANCH  25  26
ENDBRANCH  24  25
ENDBRANCH  23  24
ENDBRANCH  22  23
ENDBRANCH  21  22
ENDBRANCH  20  21
ENDBRANCH  19  20
ENDBRANCH  18  19
ENDBRANCH  17  18
ENDBRANCH  16  17
ENDBRANCH  15  16
ENDBRANCH  14  15
ENDBRANCH  13  14
ENDBRANCH  12  13
ENDBRANCH  11  12
ENDBRANCH  10  11
ENDBRANCH   9  10
ENDBRANCH   8   9
ENDBRANCH   7   8
ENDBRANCH   6   7
ENDBRANCH   5   6
ENDBRANCH   4   5
ENDBRANCH   3   4
ENDBRANCH   2   3
TORSDOF 37
ENDMDL
MODEL      107
REMARK 921   NORMALIZED FREE ENERGY PREDICTED BY IDOCK:   -3.11 KCAL/MOL
REMARK 922        TOTAL FREE ENERGY PREDICTED BY IDOCK:  -13.45 KCAL/MOL
REMARK 923 INTER-LIGAND FREE ENERGY PREDICTED BY IDOCK:   -9.49 KCAL/MOL
REMARK 924 INTRA-LIGAND FREE ENERGY PREDICTED BY IDOCK:   -3.96 KCAL/MOL
REMARK 927      BINDING AFFINITY PREDICTED BY RF-SCORE:    0.00 PKD
ROOT
HETATM    1  C   UNL     1     -12.705  15.054  70.533  1.00  0.00    -0.406 C  
HETATM    2  C   UNL     1     -11.237  15.377  70.317  1.00  0.00    -0.328 C  
ENDROOT
BRANCH   2   3
HETATM    3  C   UNL     1     -10.675  14.606  69.126  1.00  0.00    -0.263 C  
BRANCH   3   4
HETATM    4  C   UNL     1     -11.794  14.077  68.232  1.00  0.00    -0.406 C  
BRANCH   4   5
HETATM    5  C   UNL     1     -11.348  14.039  66.772  1.00  0.00    -0.346 C  
BRANCH   5   6
HETATM    6  C   UNL     1     -12.549  13.986  65.836  1.00  0.00    -0.484 C  
BRANCH   6   7
HETATM    7  C   UNL     1     -12.504  12.732  64.969  1.00  0.00    -0.572 C  
BRANCH   7   8
HETATM    8  C   UNL     1     -11.230  12.702  64.135  1.00  0.00    -0.437 C  
BRANCH   8   9
HETATM    9  C   UNL     1     -10.889  11.277  63.710  1.00  0.00    -0.424 C  
BRANCH   9  10
HETATM   10  C   UNL     1      -9.478  11.221  63.142  1.00  0.00    -0.367 C  
BRANCH  10  11
HETATM   11  C   UNL     1      -8.885   9.826  63.275  1.00  0.00    -0.260 C  
BRANCH  11  12
HETATM   12  C   UNL     1      -7.377   9.906  63.435  1.00  0.00    -0.134 C  
BRANCH  12  13
HETATM   13  O   UNL     1      -6.990   8.990  64.451  1.00  0.00    -0.088 OA 
BRANCH  13  14
HETATM   14  C   UNL     1      -5.956   9.542  65.259  1.00  0.00    -0.065 C  
BRANCH  14  15
HETATM   15  C   UNL     1      -6.545   9.994  66.584  1.00  0.00    -0.073 C  
BRANCH  15  16
HETATM   16  O   UNL     1      -6.442  11.411  66.656  1.00  0.00    -0.132 OA 
BRANCH  16  17
HETATM   17  C   UNL     1      -7.563  11.977  67.327  1.00  0.00    -0.157 C  
BRANCH  17  18
HETATM   18  C   UNL     1      -8.830  11.376  66.740  1.00  0.00    -0.179 C  
BRANCH  18  19
HETATM   19  O   UNL     1      -9.712  11.035  67.803  1.00  0.00    -0.166 OA 
BRANCH  19  20
HETATM   20  C   UNL     1     -10.829  10.277  67.334  1.00  0.00    -0.277 C  
BRANCH  20  21
HETATM   21  C   UNL     1     -10.317   8.960  66.763  1.00  0.00    -0.247 C  
BRANCH  21  22
HETATM   22  O   UNL     1     -11.080   7.889  67.325  1.00  0.00    -0.079 OA 
BRANCH  22  23
HETATM   23  C   UNL     1     -10.250   6.796  67.698  1.00  0.00    -0.179 C  
BRANCH  23  24
HETATM   24  C   UNL     1     -10.699   6.275  69.055  1.00  0.00    -0.302 C  
BRANCH  24  25
HETATM   25  O   UNL     1     -11.188   7.368  69.826  1.00  0.00    -0.202 OA 
BRANCH  25  26
HETATM   26  C   UNL     1     -12.000   6.918  70.903  1.00  0.00    -0.381 C  
BRANCH  26  27
HETATM   27  C   UNL     1     -11.624   7.692  72.158  1.00  0.00    -0.308 C  
BRANCH  27  28
HETATM   28  O   UNL     1     -10.946   6.821  73.057  1.00  0.00    -0.267 OA 
BRANCH  28  29
HETATM   29  C   UNL     1     -11.384   5.475  72.896  1.00  0.00    -0.291 C  
BRANCH  29  30
HETATM   30  C   UNL     1     -10.989   4.677  74.128  1.00  0.00    -0.093 C  
BRANCH  30  31
HETATM   31  O   UNL     1      -9.656   5.020  74.495  1.00  0.00    -0.126 OA 
BRANCH  31  32
HETATM   32  C   UNL     1      -8.723   4.054  74.017  1.00  0.00    -0.093 C  
BRANCH  32  33
HETATM   33  C   UNL     1      -7.441   4.764  73.608  1.00  0.00    -0.090 C  
BRANCH  33  34
HETATM   34  O   UNL     1      -7.264   5.919  74.425  1.00  0.00    -0.087 OA 
BRANCH  34  35
HETATM   35  C   UNL     1      -6.823   7.036  73.658  1.00  0.00    -0.070 C  
BRANCH  35  36
HETATM   36  C   UNL     1      -7.780   8.198  73.885  1.00  0.00    -0.192 C  
BRANCH  36  37
HETATM   37  O   UNL     1      -7.796   9.041  72.732  1.00  0.00    -0.301 OA 
BRANCH  37  38
HETATM   38  C   UNL     1      -7.902   8.264  71.532  1.00  0.00    -0.117 C  
BRANCH  38  39
HETATM   39  C   UNL     1      -8.211   9.208  70.375  1.00  0.00    -0.171 C  
HETATM   40  O   UNL     1      -9.476   9.833  70.583  1.00  0.00    -0.330 OA 
HETATM   41  H   UNL     1      -9.668  10.421  69.863  1.00  0.00     0.000 HD 
ENDBRANCH  38  39
ENDBRANCH  37  38
ENDBRANCH  36  37
ENDBRANCH  35  36
ENDBRANCH  34  35
ENDBRANCH  33  34
ENDBRANCH  32  33
ENDBRANCH  31  32
ENDBRANCH  30  31
ENDBRANCH  29  30
ENDBRANCH  28  29
ENDBRANCH  27  28
ENDBRANCH  26  27
ENDBRANCH  25  26
ENDBRANCH  24  25
ENDBRANCH  23  24
ENDBRANCH  22  23
ENDBRANCH  21  22
ENDBRANCH  20  21
ENDBRANCH  19  20
ENDBRANCH  18  19
ENDBRANCH  17  18
ENDBRANCH  16  17
ENDBRANCH  15  16
ENDBRANCH  14  15
ENDBRANCH  13  14
ENDBRANCH  12  13
ENDBRANCH  11  12
ENDBRANCH  10  11
ENDBRANCH   9  10
ENDBRANCH   8   9
ENDBRANCH   7   8
ENDBRANCH   6   7
ENDBRANCH   5   6
ENDBRANCH   4   5
ENDBRANCH   3   4
ENDBRANCH   2   3
TORSDOF 37
ENDMDL
MODEL      108
REMARK 921   NORMALIZED FREE ENERGY PREDICTED BY IDOCK:   -3.11 KCAL/MOL
REMARK 922        TOTAL FREE ENERGY PREDICTED BY IDOCK:  -13.44 KCAL/MOL
REMARK 923 INTER-LIGAND FREE ENERGY PREDICTED BY IDOCK:  -10.01 KCAL/MOL
REMARK 924 INTRA-LIGAND FREE ENERGY PREDICTED BY IDOCK:   -3.44 KCAL/MOL
REMARK 927      BINDING AFFINITY PREDICTED BY RF-SCORE:    0.00 PKD
ROOT
HETATM    1  C   UNL     1     -11.988  10.946  70.065  1.00  0.00    -0.429 C  
HETATM    2  C   UNL     1     -11.096   9.904  70.719  1.00  0.00    -0.417 C  
ENDROOT
BRANCH   2   3
HETATM    3  C   UNL     1     -11.778   9.281  71.933  1.00  0.00    -0.420 C  
BRANCH   3   4
HETATM    4  C   UNL     1     -13.263   9.039  71.670  1.00  0.00    -0.427 C  
BRANCH   4   5
HETATM    5  C   UNL     1     -13.578   7.545  71.685  1.00  0.00    -0.442 C  
BRANCH   5   6
HETATM    6  C   UNL     1     -12.299   6.719  71.750  1.00  0.00    -0.400 C  
BRANCH   6   7
HETATM    7  C   UNL     1     -11.899   6.233  70.360  1.00  0.00    -0.177 C  
BRANCH   7   8
HETATM    8  C   UNL     1     -10.406   5.941  70.302  1.00  0.00    -0.298 C  
BRANCH   8   9
HETATM    9  C   UNL     1      -9.740   6.232  71.643  1.00  0.00    -0.177 C  
BRANCH   9  10
HETATM   10  C   UNL     1      -8.391   6.904  71.426  1.00  0.00    -0.115 C  
BRANCH  10  11
HETATM   11  C   UNL     1      -8.280   7.475  70.021  1.00  0.00    -0.130 C  
BRANCH  11  12
HETATM   12  C   UNL     1      -6.953   7.081  69.394  1.00  0.00    -0.066 C  
BRANCH  12  13
HETATM   13  O   UNL     1      -6.759   5.689  69.609  1.00  0.00    -0.051 OA 
BRANCH  13  14
HETATM   14  C   UNL     1      -6.657   4.997  68.369  1.00  0.00    -0.045 C  
BRANCH  14  15
HETATM   15  C   UNL     1      -5.655   5.711  67.479  1.00  0.00    -0.012 C  
BRANCH  15  16
HETATM   16  O   UNL     1      -6.261   5.928  66.210  1.00  0.00    -0.034 OA 
BRANCH  16  17
HETATM   17  C   UNL     1      -6.100   4.797  65.360  1.00  0.00    -0.033 C  
BRANCH  17  18
HETATM   18  C   UNL     1      -6.455   5.208  63.940  1.00  0.00    -0.029 C  
BRANCH  18  19
HETATM   19  O   UNL     1      -7.766   4.745  63.640  1.00  0.00    -0.065 OA 
BRANCH  19  20
HETATM   20  C   UNL     1      -7.914   3.357  63.945  1.00  0.00    -0.081 C  
BRANCH  20  21
HETATM   21  C   UNL     1      -9.310   3.130  64.512  1.00  0.00    -0.144 C  
BRANCH  21  22
HETATM   22  O   UNL     1      -9.898   4.401  64.803  1.00  0.00    -0.167 OA 
BRANCH  22  23
HETATM   23  C   UNL     1     -10.055   4.595  66.203  1.00  0.00    -0.266 C  
BRANCH  23  24
HETATM   24  C   UNL     1      -9.761   6.049  66.536  1.00  0.00    -0.149 C  
BRANCH  24  25
HETATM   25  O   UNL     1     -10.991   6.715  66.807  1.00  0.00    -0.347 OA 
BRANCH  25  26
HETATM   26  C   UNL     1     -10.769   8.036  67.284  1.00  0.00    -0.210 C  
BRANCH  26  27
HETATM   27  C   UNL     1      -9.595   8.640  66.527  1.00  0.00    -0.237 C  
BRANCH  27  28
HETATM   28  O   UNL     1     -10.091   9.471  65.484  1.00  0.00    -0.260 OA 
BRANCH  28  29
HETATM   29  C   UNL     1      -9.036  10.196  64.859  1.00  0.00    -0.215 C  
BRANCH  29  30
HETATM   30  C   UNL     1      -9.561  10.827  63.580  1.00  0.00    -0.320 C  
BRANCH  30  31
HETATM   31  O   UNL     1     -10.967  11.018  63.700  1.00  0.00    -0.277 OA 
BRANCH  31  32
HETATM   32  C   UNL     1     -11.296  12.402  63.792  1.00  0.00    -0.464 C  
BRANCH  32  33
HETATM   33  C   UNL     1     -12.733  12.538  64.275  1.00  0.00    -0.341 C  
BRANCH  33  34
HETATM   34  O   UNL     1     -12.905  13.818  64.878  1.00  0.00    -0.690 OA 
BRANCH  34  35
HETATM   35  C   UNL     1     -11.815  14.686  64.577  1.00  0.00    -0.431 C  
BRANCH  35  36
HETATM   36  C   UNL     1     -11.093  15.037  65.871  1.00  0.00    -0.334 C  
BRANCH  36  37
HETATM   37  O   UNL     1     -12.006  14.966  66.966  1.00  0.00    -0.293 OA 
BRANCH  37  38
HETATM   38  C   UNL     1     -11.562  14.013  67.941  1.00  0.00    -0.343 C  
BRANCH  38  39
HETATM   39  C   UNL     1     -10.284  14.544  68.582  1.00  0.00    -0.243 C  
HETATM   40  O   UNL     1     -10.395  14.490  70.003  1.00  0.00    -0.426 OA 
HETATM   41  H   UNL     1      -9.599  14.821  70.402  1.00  0.00     0.000 HD 
ENDBRANCH  38  39
ENDBRANCH  37  38
ENDBRANCH  36  37
ENDBRANCH  35  36
ENDBRANCH  34  35
ENDBRANCH  33  34
ENDBRANCH  32  33
ENDBRANCH  31  32
ENDBRANCH  30  31
ENDBRANCH  29  30
ENDBRANCH  28  29
ENDBRANCH  27  28
ENDBRANCH  26  27
ENDBRANCH  25  26
ENDBRANCH  24  25
ENDBRANCH  23  24
ENDBRANCH  22  23
ENDBRANCH  21  22
ENDBRANCH  20  21
ENDBRANCH  19  20
ENDBRANCH  18  19
ENDBRANCH  17  18
ENDBRANCH  16  17
ENDBRANCH  15  16
ENDBRANCH  14  15
ENDBRANCH  13  14
ENDBRANCH  12  13
ENDBRANCH  11  12
ENDBRANCH  10  11
ENDBRANCH   9  10
ENDBRANCH   8   9
ENDBRANCH   7   8
ENDBRANCH   6   7
ENDBRANCH   5   6
ENDBRANCH   4   5
ENDBRANCH   3   4
ENDBRANCH   2   3
TORSDOF 37
ENDMDL
MODEL      109
REMARK 921   NORMALIZED FREE ENERGY PREDICTED BY IDOCK:   -3.09 KCAL/MOL
REMARK 922        TOTAL FREE ENERGY PREDICTED BY IDOCK:  -13.39 KCAL/MOL
REMARK 923 INTER-LIGAND FREE ENERGY PREDICTED BY IDOCK:  -10.41 KCAL/MOL
REMARK 924 INTRA-LIGAND FREE ENERGY PREDICTED BY IDOCK:   -2.98 KCAL/MOL
REMARK 927      BINDING AFFINITY PREDICTED BY RF-SCORE:    0.00 PKD
ROOT
HETATM    1  C   UNL     1     -14.411  15.233  72.088  1.00  0.00    -0.651 C  
HETATM    2  C   UNL     1     -13.107  15.723  72.694  1.00  0.00    -0.579 C  
ENDROOT
BRANCH   2   3
HETATM    3  C   UNL     1     -11.908  15.049  72.034  1.00  0.00    -0.462 C  
BRANCH   3   4
HETATM    4  C   UNL     1     -12.232  14.619  70.605  1.00  0.00    -0.394 C  
BRANCH   4   5
HETATM    5  C   UNL     1     -10.992  14.705  69.719  1.00  0.00    -0.232 C  
BRANCH   5   6
HETATM    6  C   UNL     1     -11.357  15.170  68.314  1.00  0.00    -0.338 C  
BRANCH   6   7
HETATM    7  C   UNL     1     -11.821  13.994  67.460  1.00  0.00    -0.442 C  
BRANCH   7   8
HETATM    8  C   UNL     1     -12.205  14.464  66.063  1.00  0.00    -0.352 C  
BRANCH   8   9
HETATM    9  C   UNL     1     -12.436  13.277  65.133  1.00  0.00    -0.525 C  
BRANCH   9  10
HETATM   10  C   UNL     1     -11.291  13.159  64.136  1.00  0.00    -0.440 C  
BRANCH  10  11
HETATM   11  C   UNL     1     -11.195  11.749  63.572  1.00  0.00    -0.494 C  
BRANCH  11  12
HETATM   12  C   UNL     1      -9.777  11.460  63.111  1.00  0.00    -0.393 C  
BRANCH  12  13
HETATM   13  O   UNL     1      -9.525  10.073  63.298  1.00  0.00    -0.295 OA 
BRANCH  13  14
HETATM   14  C   UNL     1      -8.464   9.637  62.455  1.00  0.00    -0.170 C  
BRANCH  14  15
HETATM   15  C   UNL     1      -7.428   8.908  63.291  1.00  0.00    -0.101 C  
BRANCH  15  16
HETATM   16  O   UNL     1      -6.186   9.589  63.154  1.00  0.00    -0.097 OA 
BRANCH  16  17
HETATM   17  C   UNL     1      -5.482   9.636  64.391  1.00  0.00    -0.066 C  
BRANCH  17  18
HETATM   18  C   UNL     1      -6.216  10.582  65.327  1.00  0.00    -0.095 C  
BRANCH  18  19
HETATM   19  O   UNL     1      -6.403   9.936  66.580  1.00  0.00    -0.067 OA 
BRANCH  19  20
HETATM   20  C   UNL     1      -7.379  10.610  67.377  1.00  0.00    -0.093 C  
BRANCH  20  21
HETATM   21  C   UNL     1      -8.137  11.591  66.491  1.00  0.00    -0.112 C  
BRANCH  21  22
HETATM   22  O   UNL     1      -9.535  11.471  66.767  1.00  0.00    -0.182 OA 
BRANCH  22  23
HETATM   23  C   UNL     1      -9.993  10.138  66.576  1.00  0.00    -0.224 C  
BRANCH  23  24
HETATM   24  C   UNL     1     -11.012   9.806  67.655  1.00  0.00    -0.162 C  
BRANCH  24  25
HETATM   25  O   UNL     1     -11.009  10.851  68.624  1.00  0.00    -0.193 OA 
BRANCH  25  26
HETATM   26  C   UNL     1     -12.191  10.825  69.414  1.00  0.00    -0.171 C  
BRANCH  26  27
HETATM   27  C   UNL     1     -11.801  10.893  70.883  1.00  0.00    -0.258 C  
BRANCH  27  28
HETATM   28  O   UNL     1     -12.958  10.674  71.684  1.00  0.00    -0.420 OA 
BRANCH  28  29
HETATM   29  C   UNL     1     -13.327   9.298  71.688  1.00  0.00    -0.394 C  
BRANCH  29  30
HETATM   30  C   UNL     1     -12.237   8.498  72.383  1.00  0.00    -0.366 C  
BRANCH  30  31
HETATM   31  O   UNL     1     -12.408   7.118  72.076  1.00  0.00    -0.304 OA 
BRANCH  31  32
HETATM   32  C   UNL     1     -11.159   6.493  71.792  1.00  0.00    -0.257 C  
BRANCH  32  33
HETATM   33  C   UNL     1     -11.124   6.102  70.321  1.00  0.00    -0.366 C  
BRANCH  33  34
HETATM   34  O   UNL     1      -9.775   5.861  69.932  1.00  0.00    -0.156 OA 
BRANCH  34  35
HETATM   35  C   UNL     1      -9.059   7.080  69.750  1.00  0.00    -0.144 C  
BRANCH  35  36
HETATM   36  C   UNL     1      -7.569   6.802  69.893  1.00  0.00    -0.100 C  
BRANCH  36  37
HETATM   37  O   UNL     1      -7.146   7.114  71.221  1.00  0.00    -0.067 OA 
BRANCH  37  38
HETATM   38  C   UNL     1      -7.558   8.436  71.592  1.00  0.00    -0.104 C  
BRANCH  38  39
HETATM   39  C   UNL     1      -7.585   8.519  73.114  1.00  0.00     0.020 C  
HETATM   40  O   UNL     1      -8.594   7.653  73.630  1.00  0.00    -0.166 OA 
HETATM   41  H   UNL     1      -8.610   7.705  74.578  1.00  0.00     0.000 HD 
ENDBRANCH  38  39
ENDBRANCH  37  38
ENDBRANCH  36  37
ENDBRANCH  35  36
ENDBRANCH  34  35
ENDBRANCH  33  34
ENDBRANCH  32  33
ENDBRANCH  31  32
ENDBRANCH  30  31
ENDBRANCH  29  30
ENDBRANCH  28  29
ENDBRANCH  27  28
ENDBRANCH  26  27
ENDBRANCH  25  26
ENDBRANCH  24  25
ENDBRANCH  23  24
ENDBRANCH  22  23
ENDBRANCH  21  22
ENDBRANCH  20  21
ENDBRANCH  19  20
ENDBRANCH  18  19
ENDBRANCH  17  18
ENDBRANCH  16  17
ENDBRANCH  15  16
ENDBRANCH  14  15
ENDBRANCH  13  14
ENDBRANCH  12  13
ENDBRANCH  11  12
ENDBRANCH  10  11
ENDBRANCH   9  10
ENDBRANCH   8   9
ENDBRANCH   7   8
ENDBRANCH   6   7
ENDBRANCH   5   6
ENDBRANCH   4   5
ENDBRANCH   3   4
ENDBRANCH   2   3
TORSDOF 37
ENDMDL
MODEL      110
REMARK 921   NORMALIZED FREE ENERGY PREDICTED BY IDOCK:   -3.09 KCAL/MOL
REMARK 922        TOTAL FREE ENERGY PREDICTED BY IDOCK:  -13.39 KCAL/MOL
REMARK 923 INTER-LIGAND FREE ENERGY PREDICTED BY IDOCK:  -10.89 KCAL/MOL
REMARK 924 INTRA-LIGAND FREE ENERGY PREDICTED BY IDOCK:   -2.50 KCAL/MOL
REMARK 927      BINDING AFFINITY PREDICTED BY RF-SCORE:    0.00 PKD
ROOT
HETATM    1  C   UNL     1     -10.296   4.066  72.188  1.00  0.00    -0.155 C  
HETATM    2  C   UNL     1      -8.905   4.577  72.521  1.00  0.00    -0.126 C  
ENDROOT
BRANCH   2   3
HETATM    3  C   UNL     1      -8.655   4.547  74.026  1.00  0.00    -0.105 C  
BRANCH   3   4
HETATM    4  C   UNL     1      -8.105   5.882  74.523  1.00  0.00    -0.108 C  
BRANCH   4   5
HETATM    5  C   UNL     1      -9.175   6.969  74.449  1.00  0.00    -0.238 C  
BRANCH   5   6
HETATM    6  C   UNL     1      -8.654   8.197  73.713  1.00  0.00    -0.307 C  
BRANCH   6   7
HETATM    7  C   UNL     1      -8.920   8.083  72.216  1.00  0.00    -0.230 C  
BRANCH   7   8
HETATM    8  C   UNL     1     -10.075   8.988  71.806  1.00  0.00    -0.373 C  
BRANCH   8   9
HETATM    9  C   UNL     1     -10.069   9.230  70.300  1.00  0.00    -0.262 C  
BRANCH   9  10
HETATM   10  C   UNL     1     -10.729  10.565  69.979  1.00  0.00    -0.282 C  
BRANCH  10  11
HETATM   11  C   UNL     1     -12.170  10.374  69.531  1.00  0.00    -0.068 C  
BRANCH  11  12
HETATM   12  C   UNL     1     -13.100  10.370  70.731  1.00  0.00    -0.286 C  
BRANCH  12  13
HETATM   13  O   UNL     1     -12.592  11.292  71.688  1.00  0.00    -0.331 OA 
BRANCH  13  14
HETATM   14  C   UNL     1     -13.618  12.173  72.131  1.00  0.00    -0.183 C  
BRANCH  14  15
HETATM   15  C   UNL     1     -13.062  13.583  72.221  1.00  0.00    -0.389 C  
BRANCH  15  16
HETATM   16  O   UNL     1     -12.874  14.073  70.899  1.00  0.00    -0.331 OA 
BRANCH  16  17
HETATM   17  C   UNL     1     -12.780  15.493  70.881  1.00  0.00    -0.468 C  
BRANCH  17  18
HETATM   18  C   UNL     1     -11.312  15.880  70.968  1.00  0.00    -0.389 C  
BRANCH  18  19
HETATM   19  O   UNL     1     -10.657  15.471  69.773  1.00  0.00    -0.253 OA 
BRANCH  19  20
HETATM   20  C   UNL     1     -11.182  16.149  68.630  1.00  0.00    -0.369 C  
BRANCH  20  21
HETATM   21  C   UNL     1     -10.347  17.398  68.380  1.00  0.00    -0.379 C  
BRANCH  21  22
HETATM   22  O   UNL     1     -10.701  17.939  67.104  1.00  0.00    -0.331 OA 
BRANCH  22  23
HETATM   23  C   UNL     1     -10.256  19.283  66.964  1.00  0.00    -0.398 C  
BRANCH  23  24
HETATM   24  C   UNL     1      -8.745  19.287  66.792  1.00  0.00    -0.313 C  
BRANCH  24  25
HETATM   25  O   UNL     1      -8.191  20.296  67.632  1.00  0.00    -0.315 OA 
BRANCH  25  26
HETATM   26  C   UNL     1      -6.830  20.021  67.941  1.00  0.00    -0.271 C  
BRANCH  26  27
HETATM   27  C   UNL     1      -6.308  18.975  66.967  1.00  0.00    -0.186 C  
BRANCH  27  28
HETATM   28  O   UNL     1      -5.509  18.034  67.678  1.00  0.00    -0.142 OA 
BRANCH  28  29
HETATM   29  C   UNL     1      -5.528  16.761  67.041  1.00  0.00    -0.130 C  
BRANCH  29  30
HETATM   30  C   UNL     1      -5.426  15.677  68.102  1.00  0.00    -0.117 C  
BRANCH  30  31
HETATM   31  O   UNL     1      -5.949  14.462  67.575  1.00  0.00    -0.337 OA 
BRANCH  31  32
HETATM   32  C   UNL     1      -7.011  13.962  68.383  1.00  0.00    -0.102 C  
BRANCH  32  33
HETATM   33  C   UNL     1      -8.252  13.792  67.519  1.00  0.00    -0.188 C  
BRANCH  33  34
HETATM   34  O   UNL     1      -8.655  12.425  67.540  1.00  0.00    -0.158 OA 
BRANCH  34  35
HETATM   35  C   UNL     1      -9.886  12.234  66.848  1.00  0.00    -0.209 C  
BRANCH  35  36
HETATM   36  C   UNL     1      -9.620  12.270  65.350  1.00  0.00    -0.063 C  
BRANCH  36  37
HETATM   37  O   UNL     1     -10.720  12.889  64.681  1.00  0.00    -0.314 OA 
BRANCH  37  38
HETATM   38  C   UNL     1     -11.075  14.123  65.316  1.00  0.00    -0.331 C  
BRANCH  38  39
HETATM   39  C   UNL     1     -11.706  15.036  64.270  1.00  0.00    -0.233 C  
HETATM   40  O   UNL     1     -12.288  14.252  63.229  1.00  0.00    -1.118 OA 
HETATM   41  H   UNL     1     -12.681  14.821  62.577  1.00  0.00     0.000 HD 
ENDBRANCH  38  39
ENDBRANCH  37  38
ENDBRANCH  36  37
ENDBRANCH  35  36
ENDBRANCH  34  35
ENDBRANCH  33  34
ENDBRANCH  32  33
ENDBRANCH  31  32
ENDBRANCH  30  31
ENDBRANCH  29  30
ENDBRANCH  28  29
ENDBRANCH  27  28
ENDBRANCH  26  27
ENDBRANCH  25  26
ENDBRANCH  24  25
ENDBRANCH  23  24
ENDBRANCH  22  23
ENDBRANCH  21  22
ENDBRANCH  20  21
ENDBRANCH  19  20
ENDBRANCH  18  19
ENDBRANCH  17  18
ENDBRANCH  16  17
ENDBRANCH  15  16
ENDBRANCH  14  15
ENDBRANCH  13  14
ENDBRANCH  12  13
ENDBRANCH  11  12
ENDBRANCH  10  11
ENDBRANCH   9  10
ENDBRANCH   8   9
ENDBRANCH   7   8
ENDBRANCH   6   7
ENDBRANCH   5   6
ENDBRANCH   4   5
ENDBRANCH   3   4
ENDBRANCH   2   3
TORSDOF 37
ENDMDL
MODEL      111
REMARK 921   NORMALIZED FREE ENERGY PREDICTED BY IDOCK:   -3.07 KCAL/MOL
REMARK 922        TOTAL FREE ENERGY PREDICTED BY IDOCK:  -13.34 KCAL/MOL
REMARK 923 INTER-LIGAND FREE ENERGY PREDICTED BY IDOCK:  -10.95 KCAL/MOL
REMARK 924 INTRA-LIGAND FREE ENERGY PREDICTED BY IDOCK:   -2.40 KCAL/MOL
REMARK 927      BINDING AFFINITY PREDICTED BY RF-SCORE:    0.00 PKD
ROOT
HETATM    1  C   UNL     1      -7.727   9.833  68.875  1.00  0.00    -0.082 C  
HETATM    2  C   UNL     1      -7.290  11.091  68.143  1.00  0.00    -0.086 C  
ENDROOT
BRANCH   2   3
HETATM    3  C   UNL     1      -8.407  11.621  67.248  1.00  0.00    -0.158 C  
BRANCH   3   4
HETATM    4  C   UNL     1      -9.149  12.777  67.915  1.00  0.00    -0.204 C  
BRANCH   4   5
HETATM    5  C   UNL     1      -8.764  14.108  67.275  1.00  0.00    -0.229 C  
BRANCH   5   6
HETATM    6  C   UNL     1      -9.644  15.238  67.796  1.00  0.00    -0.206 C  
BRANCH   6   7
HETATM    7  C   UNL     1     -10.201  14.897  69.174  1.00  0.00    -0.243 C  
BRANCH   7   8
HETATM    8  C   UNL     1     -11.463  15.702  69.457  1.00  0.00    -0.349 C  
BRANCH   8   9
HETATM    9  C   UNL     1     -11.554  16.072  70.934  1.00  0.00    -0.453 C  
BRANCH   9  10
HETATM   10  C   UNL     1     -12.908  15.659  71.497  1.00  0.00    -0.538 C  
BRANCH  10  11
HETATM   11  C   UNL     1     -13.247  14.224  71.123  1.00  0.00    -0.387 C  
BRANCH  11  12
HETATM   12  C   UNL     1     -13.715  13.456  72.346  1.00  0.00    -0.597 C  
BRANCH  12  13
HETATM   13  O   UNL     1     -13.345  12.092  72.181  1.00  0.00    -0.522 OA 
BRANCH  13  14
HETATM   14  C   UNL     1     -12.598  11.916  70.982  1.00  0.00    -0.283 C  
BRANCH  14  15
HETATM   15  C   UNL     1     -12.171  10.464  70.867  1.00  0.00    -0.383 C  
BRANCH  15  16
HETATM   16  O   UNL     1     -13.275   9.645  71.235  1.00  0.00    -0.366 OA 
BRANCH  16  17
HETATM   17  C   UNL     1     -12.841   8.390  71.747  1.00  0.00    -0.345 C  
BRANCH  17  18
HETATM   18  C   UNL     1     -11.383   8.517  72.159  1.00  0.00    -0.372 C  
BRANCH  18  19
HETATM   19  O   UNL     1     -11.126   7.615  73.228  1.00  0.00    -0.382 OA 
BRANCH  19  20
HETATM   20  C   UNL     1     -11.380   6.261  72.845  1.00  0.00    -0.152 C  
BRANCH  20  21
HETATM   21  C   UNL     1     -10.138   5.431  73.144  1.00  0.00    -0.181 C  
BRANCH  21  22
HETATM   22  O   UNL     1      -9.070   5.887  72.309  1.00  0.00    -0.142 OA 
BRANCH  22  23
HETATM   23  C   UNL     1      -8.314   4.801  71.788  1.00  0.00    -0.114 C  
BRANCH  23  24
HETATM   24  C   UNL     1      -9.256   3.843  71.074  1.00  0.00    -0.130 C  
BRANCH  24  25
HETATM   25  O   UNL     1      -9.871   4.529  69.988  1.00  0.00    -0.201 OA 
BRANCH  25  26
HETATM   26  C   UNL     1      -8.975   4.672  68.893  1.00  0.00    -0.108 C  
BRANCH  26  27
HETATM   27  C   UNL     1      -9.737   4.426  67.600  1.00  0.00    -0.146 C  
BRANCH  27  28
HETATM   28  O   UNL     1      -9.747   5.624  66.829  1.00  0.00    -0.136 OA 
BRANCH  28  29
HETATM   29  C   UNL     1      -8.762   6.541  67.295  1.00  0.00    -0.110 C  
BRANCH  29  30
HETATM   30  C   UNL     1      -8.524   7.595  66.225  1.00  0.00    -0.139 C  
BRANCH  30  31
HETATM   31  O   UNL     1      -7.124   7.721  66.002  1.00  0.00    -0.063 OA 
BRANCH  31  32
HETATM   32  C   UNL     1      -6.853   8.379  64.767  1.00  0.00    -0.072 C  
BRANCH  32  33
HETATM   33  C   UNL     1      -8.112   8.363  63.912  1.00  0.00    -0.143 C  
BRANCH  33  34
HETATM   34  O   UNL     1      -8.012   9.372  62.912  1.00  0.00    -0.124 OA 
BRANCH  34  35
HETATM   35  C   UNL     1      -9.250  10.058  62.739  1.00  0.00    -0.290 C  
BRANCH  35  36
HETATM   36  C   UNL     1      -9.563  10.837  64.009  1.00  0.00    -0.291 C  
BRANCH  36  37
HETATM   37  O   UNL     1     -10.264  12.037  63.678  1.00  0.00    -0.381 OA 
BRANCH  37  38
HETATM   38  C   UNL     1     -11.476  12.146  64.435  1.00  0.00    -0.350 C  
BRANCH  38  39
HETATM   39  C   UNL     1     -12.592  12.583  63.492  1.00  0.00    -0.367 C  
HETATM   40  O   UNL     1     -12.418  13.954  63.135  1.00  0.00    -1.121 OA 
HETATM   41  H   UNL     1     -13.112  14.225  62.548  1.00  0.00     0.000 HD 
ENDBRANCH  38  39
ENDBRANCH  37  38
ENDBRANCH  36  37
ENDBRANCH  35  36
ENDBRANCH  34  35
ENDBRANCH  33  34
ENDBRANCH  32  33
ENDBRANCH  31  32
ENDBRANCH  30  31
ENDBRANCH  29  30
ENDBRANCH  28  29
ENDBRANCH  27  28
ENDBRANCH  26  27
ENDBRANCH  25  26
ENDBRANCH  24  25
ENDBRANCH  23  24
ENDBRANCH  22  23
ENDBRANCH  21  22
ENDBRANCH  20  21
ENDBRANCH  19  20
ENDBRANCH  18  19
ENDBRANCH  17  18
ENDBRANCH  16  17
ENDBRANCH  15  16
ENDBRANCH  14  15
ENDBRANCH  13  14
ENDBRANCH  12  13
ENDBRANCH  11  12
ENDBRANCH  10  11
ENDBRANCH   9  10
ENDBRANCH   8   9
ENDBRANCH   7   8
ENDBRANCH   6   7
ENDBRANCH   5   6
ENDBRANCH   4   5
ENDBRANCH   3   4
ENDBRANCH   2   3
TORSDOF 37
ENDMDL
MODEL      112
REMARK 921   NORMALIZED FREE ENERGY PREDICTED BY IDOCK:   -3.07 KCAL/MOL
REMARK 922        TOTAL FREE ENERGY PREDICTED BY IDOCK:  -13.32 KCAL/MOL
REMARK 923 INTER-LIGAND FREE ENERGY PREDICTED BY IDOCK:  -10.59 KCAL/MOL
REMARK 924 INTRA-LIGAND FREE ENERGY PREDICTED BY IDOCK:   -2.74 KCAL/MOL
REMARK 927      BINDING AFFINITY PREDICTED BY RF-SCORE:    0.00 PKD
ROOT
HETATM    1  C   UNL     1     -10.210  19.932  66.819  1.00  0.00    -0.603 C  
HETATM    2  C   UNL     1      -8.854  20.051  66.145  1.00  0.00    -0.320 C  
ENDROOT
BRANCH   2   3
HETATM    3  C   UNL     1      -7.753  19.456  67.019  1.00  0.00    -0.268 C  
BRANCH   3   4
HETATM    4  C   UNL     1      -7.213  18.158  66.422  1.00  0.00    -0.282 C  
BRANCH   4   5
HETATM    5  C   UNL     1      -8.329  17.128  66.269  1.00  0.00    -0.298 C  
BRANCH   5   6
HETATM    6  C   UNL     1      -7.962  15.820  66.962  1.00  0.00    -0.272 C  
BRANCH   6   7
HETATM    7  C   UNL     1      -7.728  16.046  68.452  1.00  0.00    -0.147 C  
BRANCH   7   8
HETATM    8  C   UNL     1      -6.941  14.889  69.053  1.00  0.00    -0.120 C  
BRANCH   8   9
HETATM    9  C   UNL     1      -6.688  13.803  68.013  1.00  0.00    -0.140 C  
BRANCH   9  10
HETATM   10  C   UNL     1      -5.426  13.025  68.361  1.00  0.00    -0.069 C  
BRANCH  10  11
HETATM   11  C   UNL     1      -5.762  11.671  68.967  1.00  0.00    -0.051 C  
BRANCH  11  12
HETATM   12  C   UNL     1      -5.553  11.699  70.472  1.00  0.00    -0.153 C  
BRANCH  12  13
HETATM   13  O   UNL     1      -6.462  10.778  71.061  1.00  0.00    -0.309 OA 
BRANCH  13  14
HETATM   14  C   UNL     1      -6.929   9.843  70.094  1.00  0.00    -0.138 C  
BRANCH  14  15
HETATM   15  C   UNL     1      -7.714   8.749  70.795  1.00  0.00    -0.102 C  
BRANCH  15  16
HETATM   16  O   UNL     1      -7.611   8.956  72.199  1.00  0.00    -0.335 OA 
BRANCH  16  17
HETATM   17  C   UNL     1      -7.153   7.783  72.863  1.00  0.00    -0.079 C  
BRANCH  17  18
HETATM   18  C   UNL     1      -8.291   6.776  72.903  1.00  0.00    -0.116 C  
BRANCH  18  19
HETATM   19  O   UNL     1      -8.815   6.726  74.224  1.00  0.00    -0.149 OA 
BRANCH  19  20
HETATM   20  C   UNL     1     -10.232   6.543  74.221  1.00  0.00    -0.350 C  
BRANCH  20  21
HETATM   21  C   UNL     1     -10.826   7.373  73.090  1.00  0.00    -0.386 C  
BRANCH  21  22
HETATM   22  O   UNL     1     -11.885   6.628  72.482  1.00  0.00    -0.223 OA 
BRANCH  22  23
HETATM   23  C   UNL     1     -12.571   7.400  71.503  1.00  0.00    -0.367 C  
BRANCH  23  24
HETATM   24  C   UNL     1     -11.603   7.747  70.382  1.00  0.00    -0.098 C  
BRANCH  24  25
HETATM   25  O   UNL     1     -11.365   6.578  69.603  1.00  0.00    -0.368 OA 
BRANCH  25  26
HETATM   26  C   UNL     1     -10.179   6.706  68.829  1.00  0.00    -0.171 C  
BRANCH  26  27
HETATM   27  C   UNL     1     -10.538   7.308  67.478  1.00  0.00    -0.274 C  
BRANCH  27  28
HETATM   28  O   UNL     1      -9.717   8.447  67.243  1.00  0.00    -0.160 OA 
BRANCH  28  29
HETATM   29  C   UNL     1     -10.494   9.641  67.211  1.00  0.00    -0.258 C  
BRANCH  29  30
HETATM   30  C   UNL     1     -10.062  10.541  68.357  1.00  0.00    -0.164 C  
BRANCH  30  31
HETATM   31  O   UNL     1     -11.030  11.572  68.526  1.00  0.00    -0.194 OA 
BRANCH  31  32
HETATM   32  C   UNL     1     -10.763  12.679  67.669  1.00  0.00    -0.218 C  
BRANCH  32  33
HETATM   33  C   UNL     1     -11.942  13.639  67.721  1.00  0.00    -0.352 C  
BRANCH  33  34
HETATM   34  O   UNL     1     -12.078  14.145  69.046  1.00  0.00    -0.343 OA 
BRANCH  34  35
HETATM   35  C   UNL     1     -11.096  15.139  69.327  1.00  0.00    -0.274 C  
BRANCH  35  36
HETATM   36  C   UNL     1     -11.613  16.043  70.438  1.00  0.00    -0.348 C  
BRANCH  36  37
HETATM   37  O   UNL     1     -12.995  15.771  70.676  1.00  0.00    -0.479 OA 
BRANCH  37  38
HETATM   38  C   UNL     1     -13.225  15.459  72.056  1.00  0.00    -0.429 C  
BRANCH  38  39
HETATM   39  C   UNL     1     -14.251  14.334  72.127  1.00  0.00    -0.542 C  
HETATM   40  O   UNL     1     -13.730  13.250  72.896  1.00  0.00    -0.639 OA 
HETATM   41  H   UNL     1     -14.370  12.550  72.941  1.00  0.00     0.000 HD 
ENDBRANCH  38  39
ENDBRANCH  37  38
ENDBRANCH  36  37
ENDBRANCH  35  36
ENDBRANCH  34  35
ENDBRANCH  33  34
ENDBRANCH  32  33
ENDBRANCH  31  32
ENDBRANCH  30  31
ENDBRANCH  29  30
ENDBRANCH  28  29
ENDBRANCH  27  28
ENDBRANCH  26  27
ENDBRANCH  25  26
ENDBRANCH  24  25
ENDBRANCH  23  24
ENDBRANCH  22  23
ENDBRANCH  21  22
ENDBRANCH  20  21
ENDBRANCH  19  20
ENDBRANCH  18  19
ENDBRANCH  17  18
ENDBRANCH  16  17
ENDBRANCH  15  16
ENDBRANCH  14  15
ENDBRANCH  13  14
ENDBRANCH  12  13
ENDBRANCH  11  12
ENDBRANCH  10  11
ENDBRANCH   9  10
ENDBRANCH   8   9
ENDBRANCH   7   8
ENDBRANCH   6   7
ENDBRANCH   5   6
ENDBRANCH   4   5
ENDBRANCH   3   4
ENDBRANCH   2   3
TORSDOF 37
ENDMDL
MODEL      113
REMARK 921   NORMALIZED FREE ENERGY PREDICTED BY IDOCK:   -3.04 KCAL/MOL
REMARK 922        TOTAL FREE ENERGY PREDICTED BY IDOCK:  -13.25 KCAL/MOL
REMARK 923 INTER-LIGAND FREE ENERGY PREDICTED BY IDOCK:  -10.09 KCAL/MOL
REMARK 924 INTRA-LIGAND FREE ENERGY PREDICTED BY IDOCK:   -3.16 KCAL/MOL
REMARK 927      BINDING AFFINITY PREDICTED BY RF-SCORE:    0.00 PKD
ROOT
HETATM    1  C   UNL     1     -13.034  11.462  71.701  1.00  0.00    -0.523 C  
HETATM    2  C   UNL     1     -13.367   9.996  71.919  1.00  0.00    -0.516 C  
ENDROOT
BRANCH   2   3
HETATM    3  C   UNL     1     -12.221   9.099  71.460  1.00  0.00    -0.422 C  
BRANCH   3   4
HETATM    4  C   UNL     1     -11.123   9.911  70.776  1.00  0.00    -0.417 C  
BRANCH   4   5
HETATM    5  C   UNL     1     -10.775   9.312  69.416  1.00  0.00    -0.222 C  
BRANCH   5   6
HETATM    6  C   UNL     1     -10.232  10.380  68.473  1.00  0.00    -0.191 C  
BRANCH   6   7
HETATM    7  C   UNL     1     -11.368  11.213  67.889  1.00  0.00    -0.378 C  
BRANCH   7   8
HETATM    8  C   UNL     1     -11.054  11.617  66.455  1.00  0.00    -0.347 C  
BRANCH   8   9
HETATM    9  C   UNL     1     -12.102  12.587  65.919  1.00  0.00    -0.420 C  
BRANCH   9  10
HETATM   10  C   UNL     1     -12.194  12.479  64.403  1.00  0.00    -0.528 C  
BRANCH  10  11
HETATM   11  C   UNL     1     -11.968  13.829  63.740  1.00  0.00    -0.365 C  
BRANCH  11  12
HETATM   12  C   UNL     1     -12.019  14.941  64.774  1.00  0.00    -0.361 C  
BRANCH  12  13
HETATM   13  O   UNL     1     -10.983  15.869  64.477  1.00  0.00    -0.527 OA 
BRANCH  13  14
HETATM   14  C   UNL     1     -10.445  16.422  65.674  1.00  0.00    -0.347 C  
BRANCH  14  15
HETATM   15  C   UNL     1     -10.730  17.913  65.709  1.00  0.00    -0.089 C  
BRANCH  15  16
HETATM   16  O   UNL     1      -9.969  18.487  66.765  1.00  0.00    -0.320 OA 
BRANCH  16  17
HETATM   17  C   UNL     1     -10.206  17.815  67.998  1.00  0.00    -0.377 C  
BRANCH  17  18
HETATM   18  C   UNL     1      -8.884  17.678  68.734  1.00  0.00    -0.208 C  
BRANCH  18  19
HETATM   19  O   UNL     1      -8.578  16.296  68.877  1.00  0.00    -0.236 OA 
BRANCH  19  20
HETATM   20  C   UNL     1      -9.727  15.542  69.269  1.00  0.00    -0.272 C  
BRANCH  20  21
HETATM   21  C   UNL     1      -9.676  14.185  68.578  1.00  0.00    -0.219 C  
BRANCH  21  22
HETATM   22  O   UNL     1      -8.486  14.118  67.786  1.00  0.00    -0.155 OA 
BRANCH  22  23
HETATM   23  C   UNL     1      -7.591  13.125  68.272  1.00  0.00    -0.139 C  
BRANCH  23  24
HETATM   24  C   UNL     1      -7.319  12.120  67.163  1.00  0.00    -0.124 C  
BRANCH  24  25
HETATM   25  O   UNL     1      -6.218  11.302  67.548  1.00  0.00    -0.056 OA 
BRANCH  25  26
HETATM   26  C   UNL     1      -6.364   9.975  67.057  1.00  0.00    -0.064 C  
BRANCH  26  27
HETATM   27  C   UNL     1      -6.302   9.008  68.230  1.00  0.00    -0.055 C  
BRANCH  27  28
HETATM   28  O   UNL     1      -6.013   9.737  69.419  1.00  0.00    -0.034 OA 
BRANCH  28  29
HETATM   29  C   UNL     1      -6.853   9.321  70.491  1.00  0.00    -0.087 C  
BRANCH  29  30
HETATM   30  C   UNL     1      -6.407   7.946  70.962  1.00  0.00    -0.037 C  
BRANCH  30  31
HETATM   31  O   UNL     1      -7.390   7.418  71.848  1.00  0.00    -0.076 OA 
BRANCH  31  32
HETATM   32  C   UNL     1      -8.268   8.440  72.314  1.00  0.00    -0.140 C  
BRANCH  32  33
HETATM   33  C   UNL     1      -8.683   8.122  73.743  1.00  0.00    -0.224 C  
BRANCH  33  34
HETATM   34  O   UNL     1      -9.972   7.515  73.733  1.00  0.00    -0.305 OA 
BRANCH  34  35
HETATM   35  C   UNL     1      -9.952   6.239  74.368  1.00  0.00    -0.332 C  
BRANCH  35  36
HETATM   36  C   UNL     1     -10.294   5.170  73.339  1.00  0.00    -0.205 C  
BRANCH  36  37
HETATM   37  O   UNL     1     -10.564   5.785  72.078  1.00  0.00    -0.211 OA 
BRANCH  37  38
HETATM   38  C   UNL     1     -10.154   4.936  70.998  1.00  0.00    -0.218 C  
BRANCH  38  39
HETATM   39  C   UNL     1      -9.669   5.818  69.853  1.00  0.00    -0.164 C  
HETATM   40  O   UNL     1     -10.260   5.391  68.627  1.00  0.00    -0.178 OA 
HETATM   41  H   UNL     1      -9.958   5.940  67.914  1.00  0.00     0.000 HD 
ENDBRANCH  38  39
ENDBRANCH  37  38
ENDBRANCH  36  37
ENDBRANCH  35  36
ENDBRANCH  34  35
ENDBRANCH  33  34
ENDBRANCH  32  33
ENDBRANCH  31  32
ENDBRANCH  30  31
ENDBRANCH  29  30
ENDBRANCH  28  29
ENDBRANCH  27  28
ENDBRANCH  26  27
ENDBRANCH  25  26
ENDBRANCH  24  25
ENDBRANCH  23  24
ENDBRANCH  22  23
ENDBRANCH  21  22
ENDBRANCH  20  21
ENDBRANCH  19  20
ENDBRANCH  18  19
ENDBRANCH  17  18
ENDBRANCH  16  17
ENDBRANCH  15  16
ENDBRANCH  14  15
ENDBRANCH  13  14
ENDBRANCH  12  13
ENDBRANCH  11  12
ENDBRANCH  10  11
ENDBRANCH   9  10
ENDBRANCH   8   9
ENDBRANCH   7   8
ENDBRANCH   6   7
ENDBRANCH   5   6
ENDBRANCH   4   5
ENDBRANCH   3   4
ENDBRANCH   2   3
TORSDOF 37
ENDMDL
MODEL      114
REMARK 921   NORMALIZED FREE ENERGY PREDICTED BY IDOCK:   -3.04 KCAL/MOL
REMARK 922        TOTAL FREE ENERGY PREDICTED BY IDOCK:  -13.23 KCAL/MOL
REMARK 923 INTER-LIGAND FREE ENERGY PREDICTED BY IDOCK:  -10.56 KCAL/MOL
REMARK 924 INTRA-LIGAND FREE ENERGY PREDICTED BY IDOCK:   -2.67 KCAL/MOL
REMARK 927      BINDING AFFINITY PREDICTED BY RF-SCORE:    0.00 PKD
ROOT
HETATM    1  C   UNL     1      -8.465  14.393  68.224  1.00  0.00    -0.165 C  
HETATM    2  C   UNL     1      -7.657  15.656  68.468  1.00  0.00    -0.132 C  
ENDROOT
BRANCH   2   3
HETATM    3  C   UNL     1      -6.753  15.502  69.688  1.00  0.00    -0.180 C  
BRANCH   3   4
HETATM    4  C   UNL     1      -5.452  16.282  69.515  1.00  0.00    -0.136 C  
BRANCH   4   5
HETATM    5  C   UNL     1      -5.619  17.389  68.477  1.00  0.00    -0.155 C  
BRANCH   5   6
HETATM    6  C   UNL     1      -5.330  18.756  69.086  1.00  0.00    -0.201 C  
BRANCH   6   7
HETATM    7  C   UNL     1      -6.601  19.595  69.158  1.00  0.00    -0.369 C  
BRANCH   7   8
HETATM    8  C   UNL     1      -6.805  20.374  67.865  1.00  0.00    -0.336 C  
BRANCH   8   9
HETATM    9  C   UNL     1      -8.028  19.865  67.109  1.00  0.00    -0.337 C  
BRANCH   9  10
HETATM   10  C   UNL     1      -9.296  20.170  67.894  1.00  0.00    -0.406 C  
BRANCH  10  11
HETATM   11  C   UNL     1     -10.087  18.901  68.177  1.00  0.00    -0.447 C  
BRANCH  11  12
HETATM   12  C   UNL     1     -10.767  18.409  66.910  1.00  0.00    -0.266 C  
BRANCH  12  13
HETATM   13  O   UNL     1     -10.403  17.048  66.713  1.00  0.00    -0.309 OA 
BRANCH  13  14
HETATM   14  C   UNL     1     -10.665  16.647  65.373  1.00  0.00    -0.215 C  
BRANCH  14  15
HETATM   15  C   UNL     1     -10.825  15.138  65.325  1.00  0.00    -0.400 C  
BRANCH  15  16
HETATM   16  O   UNL     1     -11.758  14.757  66.330  1.00  0.00    -0.343 OA 
BRANCH  16  17
HETATM   17  C   UNL     1     -12.899  14.122  65.763  1.00  0.00    -0.329 C  
BRANCH  17  18
HETATM   18  C   UNL     1     -12.475  12.766  65.220  1.00  0.00    -0.465 C  
BRANCH  18  19
HETATM   19  O   UNL     1     -12.070  11.942  66.305  1.00  0.00    -0.535 OA 
BRANCH  19  20
HETATM   20  C   UNL     1     -10.734  11.465  66.131  1.00  0.00    -0.267 C  
BRANCH  20  21
HETATM   21  C   UNL     1     -10.462  11.314  64.640  1.00  0.00    -0.325 C  
BRANCH  21  22
HETATM   22  O   UNL     1      -9.606  10.185  64.442  1.00  0.00    -0.287 OA 
BRANCH  22  23
HETATM   23  C   UNL     1      -9.237   9.587  65.679  1.00  0.00    -0.223 C  
BRANCH  23  24
HETATM   24  C   UNL     1      -8.784   8.158  65.421  1.00  0.00    -0.094 C  
BRANCH  24  25
HETATM   25  O   UNL     1      -7.398   8.054  65.733  1.00  0.00    -0.076 OA 
BRANCH  25  26
HETATM   26  C   UNL     1      -7.200   7.477  67.018  1.00  0.00    -0.085 C  
BRANCH  26  27
HETATM   27  C   UNL     1      -8.316   6.478  67.284  1.00  0.00    -0.113 C  
BRANCH  27  28
HETATM   28  O   UNL     1      -8.586   6.444  68.682  1.00  0.00    -0.122 OA 
BRANCH  28  29
HETATM   29  C   UNL     1      -7.381   6.376  69.436  1.00  0.00    -0.092 C  
BRANCH  29  30
HETATM   30  C   UNL     1      -7.612   7.015  70.796  1.00  0.00    -0.090 C  
BRANCH  30  31
HETATM   31  O   UNL     1      -8.921   7.576  70.827  1.00  0.00    -0.147 OA 
BRANCH  31  32
HETATM   32  C   UNL     1      -9.078   8.460  71.934  1.00  0.00    -0.221 C  
BRANCH  32  33
HETATM   33  C   UNL     1     -10.341   8.081  72.694  1.00  0.00    -0.329 C  
BRANCH  33  34
HETATM   34  O   UNL     1     -11.088   7.143  71.923  1.00  0.00    -0.229 OA 
BRANCH  34  35
HETATM   35  C   UNL     1     -12.356   7.671  71.546  1.00  0.00    -0.330 C  
BRANCH  35  36
HETATM   36  C   UNL     1     -12.501   9.070  72.129  1.00  0.00    -0.380 C  
BRANCH  36  37
HETATM   37  O   UNL     1     -13.054   9.947  71.147  1.00  0.00    -0.367 OA 
BRANCH  37  38
HETATM   38  C   UNL     1     -13.134  11.288  71.646  1.00  0.00    -0.408 C  
BRANCH  38  39
HETATM   39  C   UNL     1     -12.295  12.186  70.743  1.00  0.00    -0.297 C  
HETATM   40  O   UNL     1     -12.402  13.542  71.172  1.00  0.00    -0.354 OA 
HETATM   41  H   UNL     1     -11.880  14.101  70.610  1.00  0.00     0.000 HD 
ENDBRANCH  38  39
ENDBRANCH  37  38
ENDBRANCH  36  37
ENDBRANCH  35  36
ENDBRANCH  34  35
ENDBRANCH  33  34
ENDBRANCH  32  33
ENDBRANCH  31  32
ENDBRANCH  30  31
ENDBRANCH  29  30
ENDBRANCH  28  29
ENDBRANCH  27  28
ENDBRANCH  26  27
ENDBRANCH  25  26
ENDBRANCH  24  25
ENDBRANCH  23  24
ENDBRANCH  22  23
ENDBRANCH  21  22
ENDBRANCH  20  21
ENDBRANCH  19  20
ENDBRANCH  18  19
ENDBRANCH  17  18
ENDBRANCH  16  17
ENDBRANCH  15  16
ENDBRANCH  14  15
ENDBRANCH  13  14
ENDBRANCH  12  13
ENDBRANCH  11  12
ENDBRANCH  10  11
ENDBRANCH   9  10
ENDBRANCH   8   9
ENDBRANCH   7   8
ENDBRANCH   6   7
ENDBRANCH   5   6
ENDBRANCH   4   5
ENDBRANCH   3   4
ENDBRANCH   2   3
TORSDOF 37
ENDMDL
MODEL      115
REMARK 921   NORMALIZED FREE ENERGY PREDICTED BY IDOCK:   -3.04 KCAL/MOL
REMARK 922        TOTAL FREE ENERGY PREDICTED BY IDOCK:  -13.23 KCAL/MOL
REMARK 923 INTER-LIGAND FREE ENERGY PREDICTED BY IDOCK:  -10.11 KCAL/MOL
REMARK 924 INTRA-LIGAND FREE ENERGY PREDICTED BY IDOCK:   -3.11 KCAL/MOL
REMARK 927      BINDING AFFINITY PREDICTED BY RF-SCORE:    0.00 PKD
ROOT
HETATM    1  C   UNL     1     -12.304  13.984  64.879  1.00  0.00    -0.447 C  
HETATM    2  C   UNL     1     -11.940  12.532  65.138  1.00  0.00    -0.484 C  
ENDROOT
BRANCH   2   3
HETATM    3  C   UNL     1     -11.654  12.294  66.618  1.00  0.00    -0.438 C  
BRANCH   3   4
HETATM    4  C   UNL     1     -11.870  13.566  67.435  1.00  0.00    -0.423 C  
BRANCH   4   5
HETATM    5  C   UNL     1     -10.933  13.600  68.640  1.00  0.00    -0.290 C  
BRANCH   5   6
HETATM    6  C   UNL     1      -9.782  14.571  68.408  1.00  0.00    -0.224 C  
BRANCH   6   7
HETATM    7  C   UNL     1      -9.672  15.564  69.561  1.00  0.00    -0.282 C  
BRANCH   7   8
HETATM    8  C   UNL     1     -10.660  16.709  69.378  1.00  0.00    -0.333 C  
BRANCH   8   9
HETATM    9  C   UNL     1     -10.602  17.259  67.957  1.00  0.00    -0.394 C  
BRANCH   9  10
HETATM   10  C   UNL     1     -10.408  18.770  67.985  1.00  0.00    -0.442 C  
BRANCH  10  11
HETATM   11  C   UNL     1     -10.354  19.344  66.578  1.00  0.00    -0.564 C  
BRANCH  11  12
HETATM   12  C   UNL     1      -8.927  19.718  66.214  1.00  0.00    -0.376 C  
BRANCH  12  13
HETATM   13  O   UNL     1      -8.314  18.586  65.607  1.00  0.00    -0.393 OA 
BRANCH  13  14
HETATM   14  C   UNL     1      -6.994  18.402  66.106  1.00  0.00    -0.264 C  
BRANCH  14  15
HETATM   15  C   UNL     1      -6.988  17.249  67.093  1.00  0.00    -0.175 C  
BRANCH  15  16
HETATM   16  O   UNL     1      -6.955  17.791  68.409  1.00  0.00    -0.211 OA 
BRANCH  16  17
HETATM   17  C   UNL     1      -6.273  16.923  69.309  1.00  0.00    -0.215 C  
BRANCH  17  18
HETATM   18  C   UNL     1      -5.787  15.710  68.533  1.00  0.00    -0.101 C  
BRANCH  18  19
HETATM   19  O   UNL     1      -6.198  14.532  69.216  1.00  0.00    -0.101 OA 
BRANCH  19  20
HETATM   20  C   UNL     1      -6.272  13.412  68.332  1.00  0.00    -0.088 C  
BRANCH  20  21
HETATM   21  C   UNL     1      -6.822  12.219  69.104  1.00  0.00    -0.073 C  
BRANCH  21  22
HETATM   22  O   UNL     1      -7.087  11.158  68.181  1.00  0.00    -0.067 OA 
BRANCH  22  23
HETATM   23  C   UNL     1      -7.672  10.036  68.830  1.00  0.00    -0.085 C  
BRANCH  23  24
HETATM   24  C   UNL     1      -9.113  10.369  69.188  1.00  0.00    -0.187 C  
BRANCH  24  25
HETATM   25  O   UNL     1      -9.496   9.588  70.316  1.00  0.00    -0.228 OA 
BRANCH  25  26
HETATM   26  C   UNL     1     -10.903   9.390  70.353  1.00  0.00    -0.269 C  
BRANCH  26  27
HETATM   27  C   UNL     1     -11.187   7.971  70.825  1.00  0.00    -0.265 C  
BRANCH  27  28
HETATM   28  O   UNL     1     -10.205   7.594  71.785  1.00  0.00    -0.186 OA 
BRANCH  28  29
HETATM   29  C   UNL     1     -10.774   7.482  73.085  1.00  0.00    -0.398 C  
BRANCH  29  30
HETATM   30  C   UNL     1     -10.476   6.098  73.637  1.00  0.00    -0.276 C  
BRANCH  30  31
HETATM   31  O   UNL     1      -9.074   5.979  73.855  1.00  0.00    -0.126 OA 
BRANCH  31  32
HETATM   32  C   UNL     1      -8.658   4.616  73.820  1.00  0.00    -0.103 C  
BRANCH  32  33
HETATM   33  C   UNL     1      -8.983   4.035  72.451  1.00  0.00    -0.110 C  
BRANCH  33  34
HETATM   34  O   UNL     1      -8.248   4.741  71.456  1.00  0.00    -0.100 OA 
BRANCH  34  35
HETATM   35  C   UNL     1      -8.545   4.256  70.148  1.00  0.00    -0.069 C  
BRANCH  35  36
HETATM   36  C   UNL     1      -8.368   5.392  69.150  1.00  0.00    -0.097 C  
BRANCH  36  37
HETATM   37  O   UNL     1      -9.544   5.517  68.350  1.00  0.00    -0.114 OA 
BRANCH  37  38
HETATM   38  C   UNL     1      -9.656   6.839  67.807  1.00  0.00    -0.124 C  
BRANCH  38  39
HETATM   39  C   UNL     1     -10.864   6.875  66.877  1.00  0.00    -0.310 C  
HETATM   40  O   UNL     1     -11.152   5.559  66.404  1.00  0.00    -0.681 OA 
HETATM   41  H   UNL     1     -11.904   5.582  65.826  1.00  0.00     0.000 HD 
ENDBRANCH  38  39
ENDBRANCH  37  38
ENDBRANCH  36  37
ENDBRANCH  35  36
ENDBRANCH  34  35
ENDBRANCH  33  34
ENDBRANCH  32  33
ENDBRANCH  31  32
ENDBRANCH  30  31
ENDBRANCH  29  30
ENDBRANCH  28  29
ENDBRANCH  27  28
ENDBRANCH  26  27
ENDBRANCH  25  26
ENDBRANCH  24  25
ENDBRANCH  23  24
ENDBRANCH  22  23
ENDBRANCH  21  22
ENDBRANCH  20  21
ENDBRANCH  19  20
ENDBRANCH  18  19
ENDBRANCH  17  18
ENDBRANCH  16  17
ENDBRANCH  15  16
ENDBRANCH  14  15
ENDBRANCH  13  14
ENDBRANCH  12  13
ENDBRANCH  11  12
ENDBRANCH  10  11
ENDBRANCH   9  10
ENDBRANCH   8   9
ENDBRANCH   7   8
ENDBRANCH   6   7
ENDBRANCH   5   6
ENDBRANCH   4   5
ENDBRANCH   3   4
ENDBRANCH   2   3
TORSDOF 37
ENDMDL
MODEL      116
REMARK 921   NORMALIZED FREE ENERGY PREDICTED BY IDOCK:   -3.03 KCAL/MOL
REMARK 922        TOTAL FREE ENERGY PREDICTED BY IDOCK:  -13.21 KCAL/MOL
REMARK 923 INTER-LIGAND FREE ENERGY PREDICTED BY IDOCK:  -10.00 KCAL/MOL
REMARK 924 INTRA-LIGAND FREE ENERGY PREDICTED BY IDOCK:   -3.21 KCAL/MOL
REMARK 927      BINDING AFFINITY PREDICTED BY RF-SCORE:    0.00 PKD
ROOT
HETATM    1  C   UNL     1     -11.742   8.326  72.645  1.00  0.00    -0.406 C  
HETATM    2  C   UNL     1     -12.074   8.387  71.164  1.00  0.00    -0.275 C  
ENDROOT
BRANCH   2   3
HETATM    3  C   UNL     1     -12.995   9.564  70.856  1.00  0.00    -0.187 C  
BRANCH   3   4
HETATM    4  C   UNL     1     -13.017  10.565  72.009  1.00  0.00    -0.490 C  
BRANCH   4   5
HETATM    5  C   UNL     1     -12.745  11.980  71.503  1.00  0.00    -0.360 C  
BRANCH   5   6
HETATM    6  C   UNL     1     -13.582  13.001  72.264  1.00  0.00    -0.643 C  
BRANCH   6   7
HETATM    7  C   UNL     1     -13.271  14.416  71.788  1.00  0.00    -0.435 C  
BRANCH   7   8
HETATM    8  C   UNL     1     -12.061  14.418  70.862  1.00  0.00    -0.414 C  
BRANCH   8   9
HETATM    9  C   UNL     1     -12.090  15.624  69.929  1.00  0.00    -0.360 C  
BRANCH   9  10
HETATM   10  C   UNL     1     -11.565  15.237  68.552  1.00  0.00    -0.368 C  
BRANCH  10  11
HETATM   11  C   UNL     1     -11.916  13.795  68.214  1.00  0.00    -0.392 C  
BRANCH  11  12
HETATM   12  C   UNL     1     -11.904  13.588  66.710  1.00  0.00    -0.406 C  
BRANCH  12  13
HETATM   13  O   UNL     1     -11.183  14.663  66.121  1.00  0.00    -0.333 OA 
BRANCH  13  14
HETATM   14  C   UNL     1     -11.476  14.763  64.731  1.00  0.00    -0.410 C  
BRANCH  14  15
HETATM   15  C   UNL     1     -12.163  13.490  64.272  1.00  0.00    -0.396 C  
BRANCH  15  16
HETATM   16  O   UNL     1     -11.314  12.840  63.333  1.00  0.00    -0.472 OA 
BRANCH  16  17
HETATM   17  C   UNL     1     -11.221  11.444  63.599  1.00  0.00    -0.276 C  
BRANCH  17  18
HETATM   18  C   UNL     1      -9.814  10.981  63.257  1.00  0.00    -0.368 C  
BRANCH  18  19
HETATM   19  O   UNL     1      -9.123  10.680  64.463  1.00  0.00    -0.198 OA 
BRANCH  19  20
HETATM   20  C   UNL     1     -10.012  10.642  65.581  1.00  0.00    -0.268 C  
BRANCH  20  21
HETATM   21  C   UNL     1      -9.585   9.506  66.503  1.00  0.00    -0.201 C  
BRANCH  21  22
HETATM   22  O   UNL     1      -8.723   8.626  65.776  1.00  0.00    -0.161 OA 
BRANCH  22  23
HETATM   23  C   UNL     1      -9.138   7.271  65.897  1.00  0.00    -0.021 C  
BRANCH  23  24
HETATM   24  C   UNL     1     -10.105   7.153  67.065  1.00  0.00    -0.238 C  
BRANCH  24  25
HETATM   25  O   UNL     1     -10.730   5.874  67.015  1.00  0.00    -0.274 OA 
BRANCH  25  26
HETATM   26  C   UNL     1      -9.816   4.839  67.354  1.00  0.00    -0.175 C  
BRANCH  26  27
HETATM   27  C   UNL     1      -9.287   5.093  68.758  1.00  0.00    -0.125 C  
BRANCH  27  28
HETATM   28  O   UNL     1     -10.060   4.343  69.690  1.00  0.00    -0.202 OA 
BRANCH  28  29
HETATM   29  C   UNL     1      -9.244   3.834  70.740  1.00  0.00    -0.131 C  
BRANCH  29  30
HETATM   30  C   UNL     1      -9.996   3.965  72.056  1.00  0.00    -0.170 C  
BRANCH  30  31
HETATM   31  O   UNL     1      -9.553   5.140  72.727  1.00  0.00    -0.144 OA 
BRANCH  31  32
HETATM   32  C   UNL     1      -8.169   5.056  73.058  1.00  0.00    -0.105 C  
BRANCH  32  33
HETATM   33  C   UNL     1      -7.549   6.442  72.950  1.00  0.00    -0.095 C  
BRANCH  33  34
HETATM   34  O   UNL     1      -8.488   7.329  72.348  1.00  0.00    -0.110 OA 
BRANCH  34  35
HETATM   35  C   UNL     1      -7.854   8.515  71.875  1.00  0.00    -0.111 C  
BRANCH  35  36
HETATM   36  C   UNL     1      -8.072   8.624  70.372  1.00  0.00    -0.107 C  
BRANCH  36  37
HETATM   37  O   UNL     1      -6.862   8.303  69.685  1.00  0.00    -0.043 OA 
BRANCH  37  38
HETATM   38  C   UNL     1      -6.603   9.247  68.638  1.00  0.00    -0.053 C  
BRANCH  38  39
HETATM   39  C   UNL     1      -5.384   8.771  67.855  1.00  0.00    -0.035 C  
HETATM   40  O   UNL     1      -5.782   8.327  66.559  1.00  0.00    -0.041 OA 
HETATM   41  H   UNL     1      -5.023   8.031  66.072  1.00  0.00     0.000 HD 
ENDBRANCH  38  39
ENDBRANCH  37  38
ENDBRANCH  36  37
ENDBRANCH  35  36
ENDBRANCH  34  35
ENDBRANCH  33  34
ENDBRANCH  32  33
ENDBRANCH  31  32
ENDBRANCH  30  31
ENDBRANCH  29  30
ENDBRANCH  28  29
ENDBRANCH  27  28
ENDBRANCH  26  27
ENDBRANCH  25  26
ENDBRANCH  24  25
ENDBRANCH  23  24
ENDBRANCH  22  23
ENDBRANCH  21  22
ENDBRANCH  20  21
ENDBRANCH  19  20
ENDBRANCH  18  19
ENDBRANCH  17  18
ENDBRANCH  16  17
ENDBRANCH  15  16
ENDBRANCH  14  15
ENDBRANCH  13  14
ENDBRANCH  12  13
ENDBRANCH  11  12
ENDBRANCH  10  11
ENDBRANCH   9  10
ENDBRANCH   8   9
ENDBRANCH   7   8
ENDBRANCH   6   7
ENDBRANCH   5   6
ENDBRANCH   4   5
ENDBRANCH   3   4
ENDBRANCH   2   3
TORSDOF 37
ENDMDL
MODEL      117
REMARK 921   NORMALIZED FREE ENERGY PREDICTED BY IDOCK:   -3.03 KCAL/MOL
REMARK 922        TOTAL FREE ENERGY PREDICTED BY IDOCK:  -13.20 KCAL/MOL
REMARK 923 INTER-LIGAND FREE ENERGY PREDICTED BY IDOCK:   -9.98 KCAL/MOL
REMARK 924 INTRA-LIGAND FREE ENERGY PREDICTED BY IDOCK:   -3.22 KCAL/MOL
REMARK 927      BINDING AFFINITY PREDICTED BY RF-SCORE:    0.00 PKD
ROOT
HETATM    1  C   UNL     1      -8.383  14.862  68.716  1.00  0.00    -0.170 C  
HETATM    2  C   UNL     1      -7.484  16.085  68.652  1.00  0.00    -0.166 C  
ENDROOT
BRANCH   2   3
HETATM    3  C   UNL     1      -6.392  16.018  69.716  1.00  0.00    -0.177 C  
BRANCH   3   4
HETATM    4  C   UNL     1      -5.149  16.793  69.282  1.00  0.00    -0.130 C  
BRANCH   4   5
HETATM    5  C   UNL     1      -5.515  17.888  68.284  1.00  0.00    -0.152 C  
BRANCH   5   6
HETATM    6  C   UNL     1      -5.355  19.269  68.907  1.00  0.00    -0.205 C  
BRANCH   6   7
HETATM    7  C   UNL     1      -6.678  20.028  68.884  1.00  0.00    -0.333 C  
BRANCH   7   8
HETATM    8  C   UNL     1      -6.905  20.670  67.521  1.00  0.00    -0.389 C  
BRANCH   8   9
HETATM    9  C   UNL     1      -8.084  20.022  66.802  1.00  0.00    -0.356 C  
BRANCH   9  10
HETATM   10  C   UNL     1      -9.383  20.336  67.533  1.00  0.00    -0.513 C  
BRANCH  10  11
HETATM   11  C   UNL     1     -10.052  19.066  68.037  1.00  0.00    -0.458 C  
BRANCH  11  12
HETATM   12  C   UNL     1     -10.940  18.473  66.957  1.00  0.00    -0.048 C  
BRANCH  12  13
HETATM   13  O   UNL     1     -10.439  17.182  66.632  1.00  0.00    -0.314 OA 
BRANCH  13  14
HETATM   14  C   UNL     1     -10.810  16.818  65.307  1.00  0.00    -0.138 C  
BRANCH  14  15
HETATM   15  C   UNL     1     -10.735  15.308  65.164  1.00  0.00    -0.436 C  
BRANCH  15  16
HETATM   16  O   UNL     1     -11.389  14.722  66.283  1.00  0.00    -0.343 OA 
BRANCH  16  17
HETATM   17  C   UNL     1     -12.645  14.161  65.914  1.00  0.00    -0.417 C  
BRANCH  17  18
HETATM   18  C   UNL     1     -12.393  13.002  64.962  1.00  0.00    -0.473 C  
BRANCH  18  19
HETATM   19  O   UNL     1     -11.807  11.929  65.688  1.00  0.00    -0.398 OA 
BRANCH  19  20
HETATM   20  C   UNL     1     -10.592  11.486  65.081  1.00  0.00    -0.293 C  
BRANCH  20  21
HETATM   21  C   UNL     1     -10.659  11.782  63.588  1.00  0.00    -0.439 C  
BRANCH  21  22
HETATM   22  O   UNL     1      -9.691  10.971  62.916  1.00  0.00    -0.319 OA 
BRANCH  22  23
HETATM   23  C   UNL     1      -9.025  10.098  63.819  1.00  0.00    -0.246 C  
BRANCH  23  24
HETATM   24  C   UNL     1      -7.842   9.460  63.107  1.00  0.00    -0.132 C  
BRANCH  24  25
HETATM   25  O   UNL     1      -6.641  10.061  63.586  1.00  0.00    -0.122 OA 
BRANCH  25  26
HETATM   26  C   UNL     1      -5.966   9.206  64.500  1.00  0.00    -0.070 C  
BRANCH  26  27
HETATM   27  C   UNL     1      -6.594   7.822  64.433  1.00  0.00    -0.056 C  
BRANCH  27  28
HETATM   28  O   UNL     1      -7.139   7.495  65.707  1.00  0.00    -0.063 OA 
BRANCH  28  29
HETATM   29  C   UNL     1      -6.608   8.339  66.724  1.00  0.00    -0.057 C  
BRANCH  29  30
HETATM   30  C   UNL     1      -7.540   8.311  67.924  1.00  0.00    -0.102 C  
BRANCH  30  31
HETATM   31  O   UNL     1      -8.841   7.923  67.492  1.00  0.00    -0.127 OA 
BRANCH  31  32
HETATM   32  C   UNL     1      -9.356   6.861  68.290  1.00  0.00    -0.125 C  
BRANCH  32  33
HETATM   33  C   UNL     1     -10.870   6.992  68.371  1.00  0.00    -0.138 C  
BRANCH  33  34
HETATM   34  O   UNL     1     -11.250   7.214  69.727  1.00  0.00    -0.243 OA 
BRANCH  34  35
HETATM   35  C   UNL     1     -10.140   7.634  70.516  1.00  0.00    -0.189 C  
BRANCH  35  36
HETATM   36  C   UNL     1     -10.412   9.037  71.040  1.00  0.00    -0.269 C  
BRANCH  36  37
HETATM   37  O   UNL     1      -9.512   9.963  70.430  1.00  0.00    -0.205 OA 
BRANCH  37  38
HETATM   38  C   UNL     1     -10.139  10.636  69.331  1.00  0.00    -0.174 C  
BRANCH  38  39
HETATM   39  C   UNL     1     -11.642  10.670  69.584  1.00  0.00    -0.296 C  
HETATM   40  O   UNL     1     -12.346  10.543  68.350  1.00  0.00    -0.700 OA 
HETATM   41  H   UNL     1     -13.282  10.564  68.508  1.00  0.00     0.000 HD 
ENDBRANCH  38  39
ENDBRANCH  37  38
ENDBRANCH  36  37
ENDBRANCH  35  36
ENDBRANCH  34  35
ENDBRANCH  33  34
ENDBRANCH  32  33
ENDBRANCH  31  32
ENDBRANCH  30  31
ENDBRANCH  29  30
ENDBRANCH  28  29
ENDBRANCH  27  28
ENDBRANCH  26  27
ENDBRANCH  25  26
ENDBRANCH  24  25
ENDBRANCH  23  24
ENDBRANCH  22  23
ENDBRANCH  21  22
ENDBRANCH  20  21
ENDBRANCH  19  20
ENDBRANCH  18  19
ENDBRANCH  17  18
ENDBRANCH  16  17
ENDBRANCH  15  16
ENDBRANCH  14  15
ENDBRANCH  13  14
ENDBRANCH  12  13
ENDBRANCH  11  12
ENDBRANCH  10  11
ENDBRANCH   9  10
ENDBRANCH   8   9
ENDBRANCH   7   8
ENDBRANCH   6   7
ENDBRANCH   5   6
ENDBRANCH   4   5
ENDBRANCH   3   4
ENDBRANCH   2   3
TORSDOF 37
ENDMDL
MODEL      118
REMARK 921   NORMALIZED FREE ENERGY PREDICTED BY IDOCK:   -3.02 KCAL/MOL
REMARK 922        TOTAL FREE ENERGY PREDICTED BY IDOCK:  -13.17 KCAL/MOL
REMARK 923 INTER-LIGAND FREE ENERGY PREDICTED BY IDOCK:  -10.64 KCAL/MOL
REMARK 924 INTRA-LIGAND FREE ENERGY PREDICTED BY IDOCK:   -2.53 KCAL/MOL
REMARK 927      BINDING AFFINITY PREDICTED BY RF-SCORE:    0.00 PKD
ROOT
HETATM    1  C   UNL     1      -5.410  17.343  69.435  1.00  0.00    -0.172 C  
HETATM    2  C   UNL     1      -6.421  18.477  69.466  1.00  0.00    -0.222 C  
ENDROOT
BRANCH   2   3
HETATM    3  C   UNL     1      -5.823  19.759  68.894  1.00  0.00    -0.268 C  
BRANCH   3   4
HETATM    4  C   UNL     1      -5.940  19.794  67.371  1.00  0.00    -0.203 C  
BRANCH   4   5
HETATM    5  C   UNL     1      -7.082  20.708  66.937  1.00  0.00    -0.353 C  
BRANCH   5   6
HETATM    6  C   UNL     1      -8.307  19.895  66.532  1.00  0.00    -0.372 C  
BRANCH   6   7
HETATM    7  C   UNL     1      -9.549  20.387  67.268  1.00  0.00    -0.592 C  
BRANCH   7   8
HETATM    8  C   UNL     1     -10.645  19.331  67.237  1.00  0.00    -0.590 C  
BRANCH   8   9
HETATM    9  C   UNL     1     -10.485  18.413  66.029  1.00  0.00    -0.400 C  
BRANCH   9  10
HETATM   10  C   UNL     1     -10.855  16.984  66.401  1.00  0.00     0.048 C  
BRANCH  10  11
HETATM   11  C   UNL     1     -10.434  16.005  65.315  1.00  0.00    -0.384 C  
BRANCH  11  12
HETATM   12  C   UNL     1     -11.655  15.447  64.604  1.00  0.00    -0.311 C  
BRANCH  12  13
HETATM   13  O   UNL     1     -11.647  14.033  64.758  1.00  0.00    -0.349 OA 
BRANCH  13  14
HETATM   14  C   UNL     1     -12.145  13.398  63.584  1.00  0.00    -0.450 C  
BRANCH  14  15
HETATM   15  C   UNL     1     -11.527  12.016  63.464  1.00  0.00    -0.446 C  
BRANCH  15  16
HETATM   16  O   UNL     1     -10.142  12.171  63.175  1.00  0.00    -0.383 OA 
BRANCH  16  17
HETATM   17  C   UNL     1      -9.466  10.919  63.195  1.00  0.00    -0.341 C  
BRANCH  17  18
HETATM   18  C   UNL     1      -9.663  10.287  64.564  1.00  0.00    -0.329 C  
BRANCH  18  19
HETATM   19  O   UNL     1      -8.640  10.749  65.436  1.00  0.00    -0.177 OA 
BRANCH  19  20
HETATM   20  C   UNL     1      -9.172  11.156  66.699  1.00  0.00    -0.175 C  
BRANCH  20  21
HETATM   21  C   UNL     1      -8.028  11.668  67.566  1.00  0.00    -0.141 C  
BRANCH  21  22
HETATM   22  O   UNL     1      -8.559  12.576  68.535  1.00  0.00    -0.146 OA 
BRANCH  22  23
HETATM   23  C   UNL     1      -9.103  13.738  67.920  1.00  0.00    -0.193 C  
BRANCH  23  24
HETATM   24  C   UNL     1     -10.116  14.368  68.864  1.00  0.00    -0.200 C  
BRANCH  24  25
HETATM   25  O   UNL     1     -11.427  14.047  68.408  1.00  0.00    -0.270 OA 
BRANCH  25  26
HETATM   26  C   UNL     1     -12.377  14.141  69.463  1.00  0.00    -0.231 C  
BRANCH  26  27
HETATM   27  C   UNL     1     -11.893  13.301  70.636  1.00  0.00    -0.044 C  
BRANCH  27  28
HETATM   28  O   UNL     1     -12.503  12.016  70.571  1.00  0.00    -0.286 OA 
BRANCH  28  29
HETATM   29  C   UNL     1     -11.952  11.240  69.512  1.00  0.00    -0.351 C  
BRANCH  29  30
HETATM   30  C   UNL     1     -11.654   9.842  70.029  1.00  0.00    -0.130 C  
BRANCH  30  31
HETATM   31  O   UNL     1     -10.923   9.945  71.247  1.00  0.00    -0.320 OA 
BRANCH  31  32
HETATM   32  C   UNL     1     -10.964   8.723  71.980  1.00  0.00    -0.368 C  
BRANCH  32  33
HETATM   33  C   UNL     1     -11.683   7.671  71.149  1.00  0.00    -0.290 C  
BRANCH  33  34
HETATM   34  O   UNL     1     -10.743   6.689  70.721  1.00  0.00    -0.223 OA 
BRANCH  34  35
HETATM   35  C   UNL     1     -11.198   6.005  69.556  1.00  0.00    -0.346 C  
BRANCH  35  36
HETATM   36  C   UNL     1     -10.038   5.867  68.580  1.00  0.00    -0.168 C  
BRANCH  36  37
HETATM   37  O   UNL     1     -10.175   6.827  67.531  1.00  0.00    -0.156 OA 
BRANCH  37  38
HETATM   38  C   UNL     1      -9.488   6.395  66.350  1.00  0.00    -0.133 C  
BRANCH  38  39
HETATM   39  C   UNL     1      -8.031   6.830  66.458  1.00  0.00    -0.105 C  
HETATM   40  O   UNL     1      -7.173   5.744  66.107  1.00  0.00    -0.073 OA 
HETATM   41  H   UNL     1      -6.266   6.015  66.174  1.00  0.00     0.000 HD 
ENDBRANCH  38  39
ENDBRANCH  37  38
ENDBRANCH  36  37
ENDBRANCH  35  36
ENDBRANCH  34  35
ENDBRANCH  33  34
ENDBRANCH  32  33
ENDBRANCH  31  32
ENDBRANCH  30  31
ENDBRANCH  29  30
ENDBRANCH  28  29
ENDBRANCH  27  28
ENDBRANCH  26  27
ENDBRANCH  25  26
ENDBRANCH  24  25
ENDBRANCH  23  24
ENDBRANCH  22  23
ENDBRANCH  21  22
ENDBRANCH  20  21
ENDBRANCH  19  20
ENDBRANCH  18  19
ENDBRANCH  17  18
ENDBRANCH  16  17
ENDBRANCH  15  16
ENDBRANCH  14  15
ENDBRANCH  13  14
ENDBRANCH  12  13
ENDBRANCH  11  12
ENDBRANCH  10  11
ENDBRANCH   9  10
ENDBRANCH   8   9
ENDBRANCH   7   8
ENDBRANCH   6   7
ENDBRANCH   5   6
ENDBRANCH   4   5
ENDBRANCH   3   4
ENDBRANCH   2   3
TORSDOF 37
ENDMDL
MODEL      119
REMARK 921   NORMALIZED FREE ENERGY PREDICTED BY IDOCK:   -3.01 KCAL/MOL
REMARK 922        TOTAL FREE ENERGY PREDICTED BY IDOCK:  -13.15 KCAL/MOL
REMARK 923 INTER-LIGAND FREE ENERGY PREDICTED BY IDOCK:  -11.06 KCAL/MOL
REMARK 924 INTRA-LIGAND FREE ENERGY PREDICTED BY IDOCK:   -2.09 KCAL/MOL
REMARK 927      BINDING AFFINITY PREDICTED BY RF-SCORE:    0.00 PKD
ROOT
HETATM    1  C   UNL     1     -12.421  15.993  74.561  1.00  0.00    -0.687 C  
HETATM    2  C   UNL     1     -12.278  15.811  73.060  1.00  0.00    -0.593 C  
ENDROOT
BRANCH   2   3
HETATM    3  C   UNL     1     -13.644  15.734  72.384  1.00  0.00    -0.542 C  
BRANCH   3   4
HETATM    4  C   UNL     1     -13.867  14.367  71.741  1.00  0.00    -0.527 C  
BRANCH   4   5
HETATM    5  C   UNL     1     -12.875  14.136  70.604  1.00  0.00    -0.356 C  
BRANCH   5   6
HETATM    6  C   UNL     1     -12.493  15.453  69.938  1.00  0.00    -0.274 C  
BRANCH   6   7
HETATM    7  C   UNL     1     -11.491  15.218  68.813  1.00  0.00    -0.345 C  
BRANCH   7   8
HETATM    8  C   UNL     1     -11.363  13.731  68.509  1.00  0.00    -0.318 C  
BRANCH   8   9
HETATM    9  C   UNL     1     -12.037  13.385  67.185  1.00  0.00    -0.367 C  
BRANCH   9  10
HETATM   10  C   UNL     1     -11.804  14.496  66.170  1.00  0.00    -0.344 C  
BRANCH  10  11
HETATM   11  C   UNL     1     -10.382  14.462  65.632  1.00  0.00    -0.360 C  
BRANCH  11  12
HETATM   12  C   UNL     1     -10.177  13.236  64.758  1.00  0.00    -0.304 C  
BRANCH  12  13
HETATM   13  O   UNL     1     -11.214  13.209  63.785  1.00  0.00    -0.379 OA 
BRANCH  13  14
HETATM   14  C   UNL     1     -11.636  11.872  63.538  1.00  0.00    -0.441 C  
BRANCH  14  15
HETATM   15  C   UNL     1     -10.535  10.914  63.956  1.00  0.00    -0.309 C  
BRANCH  15  16
HETATM   16  O   UNL     1      -9.827  10.513  62.788  1.00  0.00    -0.294 OA 
BRANCH  16  17
HETATM   17  C   UNL     1      -8.734   9.661  63.112  1.00  0.00    -0.230 C  
BRANCH  17  18
HETATM   18  C   UNL     1      -7.440  10.403  62.815  1.00  0.00    -0.124 C  
BRANCH  18  19
HETATM   19  O   UNL     1      -6.537  10.203  63.895  1.00  0.00    -0.132 OA 
BRANCH  19  20
HETATM   20  C   UNL     1      -7.229  10.050  65.136  1.00  0.00    -0.139 C  
BRANCH  20  21
HETATM   21  C   UNL     1      -6.482  10.831  66.209  1.00  0.00    -0.134 C  
BRANCH  21  22
HETATM   22  O   UNL     1      -6.412  10.032  67.394  1.00  0.00    -0.066 OA 
BRANCH  22  23
HETATM   23  C   UNL     1      -7.578   9.233  67.553  1.00  0.00    -0.088 C  
BRANCH  23  24
HETATM   24  C   UNL     1      -7.565   8.611  68.941  1.00  0.00    -0.092 C  
BRANCH  24  25
HETATM   25  O   UNL     1      -6.850   7.380  68.885  1.00  0.00    -0.067 OA 
BRANCH  25  26
HETATM   26  C   UNL     1      -5.764   7.371  69.803  1.00  0.00    -0.023 C  
BRANCH  26  27
HETATM   27  C   UNL     1      -6.219   8.013  71.106  1.00  0.00    -0.034 C  
BRANCH  27  28
HETATM   28  O   UNL     1      -6.561   6.990  72.035  1.00  0.00    -0.055 OA 
BRANCH  28  29
HETATM   29  C   UNL     1      -6.355   7.424  73.375  1.00  0.00    -0.064 C  
BRANCH  29  30
HETATM   30  C   UNL     1      -7.673   7.928  73.940  1.00  0.00    -0.169 C  
BRANCH  30  31
HETATM   31  O   UNL     1      -8.725   7.083  73.484  1.00  0.00    -0.127 OA 
BRANCH  31  32
HETATM   32  C   UNL     1      -9.942   7.809  73.331  1.00  0.00    -0.284 C  
BRANCH  32  33
HETATM   33  C   UNL     1     -10.087   8.231  71.876  1.00  0.00    -0.245 C  
BRANCH  33  34
HETATM   34  O   UNL     1     -11.423   7.983  71.447  1.00  0.00    -0.248 OA 
BRANCH  34  35
HETATM   35  C   UNL     1     -11.497   6.824  70.621  1.00  0.00    -0.351 C  
BRANCH  35  36
HETATM   36  C   UNL     1     -10.883   7.144  69.265  1.00  0.00    -0.183 C  
BRANCH  36  37
HETATM   37  O   UNL     1     -11.318   6.185  68.301  1.00  0.00    -0.253 OA 
BRANCH  37  38
HETATM   38  C   UNL     1     -10.604   6.339  67.068  1.00  0.00    -0.318 C  
BRANCH  38  39
HETATM   39  C   UNL     1     -10.329   4.952  66.497  1.00  0.00    -0.270 C  
HETATM   40  O   UNL     1     -11.181   4.710  65.378  1.00  0.00    -0.927 OA 
HETATM   41  H   UNL     1     -11.010   3.846  65.023  1.00  0.00     0.000 HD 
ENDBRANCH  38  39
ENDBRANCH  37  38
ENDBRANCH  36  37
ENDBRANCH  35  36
ENDBRANCH  34  35
ENDBRANCH  33  34
ENDBRANCH  32  33
ENDBRANCH  31  32
ENDBRANCH  30  31
ENDBRANCH  29  30
ENDBRANCH  28  29
ENDBRANCH  27  28
ENDBRANCH  26  27
ENDBRANCH  25  26
ENDBRANCH  24  25
ENDBRANCH  23  24
ENDBRANCH  22  23
ENDBRANCH  21  22
ENDBRANCH  20  21
ENDBRANCH  19  20
ENDBRANCH  18  19
ENDBRANCH  17  18
ENDBRANCH  16  17
ENDBRANCH  15  16
ENDBRANCH  14  15
ENDBRANCH  13  14
ENDBRANCH  12  13
ENDBRANCH  11  12
ENDBRANCH  10  11
ENDBRANCH   9  10
ENDBRANCH   8   9
ENDBRANCH   7   8
ENDBRANCH   6   7
ENDBRANCH   5   6
ENDBRANCH   4   5
ENDBRANCH   3   4
ENDBRANCH   2   3
TORSDOF 37
ENDMDL
MODEL      120
REMARK 921   NORMALIZED FREE ENERGY PREDICTED BY IDOCK:   -3.00 KCAL/MOL
REMARK 922        TOTAL FREE ENERGY PREDICTED BY IDOCK:  -13.12 KCAL/MOL
REMARK 923 INTER-LIGAND FREE ENERGY PREDICTED BY IDOCK:  -11.07 KCAL/MOL
REMARK 924 INTRA-LIGAND FREE ENERGY PREDICTED BY IDOCK:   -2.05 KCAL/MOL
REMARK 927      BINDING AFFINITY PREDICTED BY RF-SCORE:    0.00 PKD
ROOT
HETATM    1  C   UNL     1      -9.362   2.077  68.132  1.00  0.00    -0.248 C  
HETATM    2  C   UNL     1      -9.053   3.542  68.390  1.00  0.00    -0.201 C  
ENDROOT
BRANCH   2   3
HETATM    3  C   UNL     1      -7.674   3.708  69.022  1.00  0.00    -0.052 C  
BRANCH   3   4
HETATM    4  C   UNL     1      -7.698   4.754  70.135  1.00  0.00    -0.058 C  
BRANCH   4   5
HETATM    5  C   UNL     1      -8.950   5.622  70.035  1.00  0.00    -0.150 C  
BRANCH   5   6
HETATM    6  C   UNL     1      -9.430   6.046  71.418  1.00  0.00    -0.172 C  
BRANCH   6   7
HETATM    7  C   UNL     1     -10.782   5.417  71.736  1.00  0.00    -0.271 C  
BRANCH   7   8
HETATM    8  C   UNL     1     -11.789   6.485  72.141  1.00  0.00    -0.348 C  
BRANCH   8   9
HETATM    9  C   UNL     1     -12.100   7.414  70.972  1.00  0.00    -0.330 C  
BRANCH   9  10
HETATM   10  C   UNL     1     -12.416   8.814  71.481  1.00  0.00    -0.374 C  
BRANCH  10  11
HETATM   11  C   UNL     1     -11.310   9.794  71.120  1.00  0.00    -0.459 C  
BRANCH  11  12
HETATM   12  C   UNL     1     -10.499   9.268  69.948  1.00  0.00    -0.227 C  
BRANCH  12  13
HETATM   13  O   UNL     1     -11.053   9.803  68.752  1.00  0.00    -0.189 OA 
BRANCH  13  14
HETATM   14  C   UNL     1     -10.665   9.024  67.625  1.00  0.00    -0.163 C  
BRANCH  14  15
HETATM   15  C   UNL     1      -9.150   9.007  67.527  1.00  0.00    -0.132 C  
BRANCH  15  16
HETATM   16  O   UNL     1      -8.741   7.686  67.188  1.00  0.00    -0.122 OA 
BRANCH  16  17
HETATM   17  C   UNL     1      -8.337   7.603  65.826  1.00  0.00    -0.141 C  
BRANCH  17  18
HETATM   18  C   UNL     1      -8.036   9.006  65.326  1.00  0.00    -0.126 C  
BRANCH  18  19
HETATM   19  O   UNL     1      -8.783   9.242  64.139  1.00  0.00    -0.201 OA 
BRANCH  19  20
HETATM   20  C   UNL     1      -8.687  10.605  63.721  1.00  0.00    -0.141 C  
BRANCH  20  21
HETATM   21  C   UNL     1      -9.804  10.888  62.725  1.00  0.00    -0.215 C  
BRANCH  21  22
HETATM   22  O   UNL     1     -10.762  11.753  63.343  1.00  0.00    -0.391 OA 
BRANCH  22  23
HETATM   23  C   UNL     1     -10.627  11.753  64.759  1.00  0.00    -0.301 C  
BRANCH  23  24
HETATM   24  C   UNL     1     -11.763  12.563  65.363  1.00  0.00    -0.398 C  
BRANCH  24  25
HETATM   25  O   UNL     1     -11.800  12.323  66.767  1.00  0.00    -0.533 OA 
BRANCH  25  26
HETATM   26  C   UNL     1     -12.252  13.471  67.475  1.00  0.00    -0.206 C  
BRANCH  26  27
HETATM   27  C   UNL     1     -11.455  14.680  67.007  1.00  0.00    -0.368 C  
BRANCH  27  28
HETATM   28  O   UNL     1     -10.078  14.475  67.306  1.00  0.00    -0.244 OA 
BRANCH  28  29
HETATM   29  C   UNL     1      -9.277  15.528  66.781  1.00  0.00    -0.248 C  
BRANCH  29  30
HETATM   30  C   UNL     1     -10.026  16.196  65.640  1.00  0.00    -0.297 C  
BRANCH  30  31
HETATM   31  O   UNL     1      -9.665  17.573  65.591  1.00  0.00    -0.532 OA 
BRANCH  31  32
HETATM   32  C   UNL     1     -10.506  18.359  66.431  1.00  0.00    -0.383 C  
BRANCH  32  33
HETATM   33  C   UNL     1     -10.087  19.819  66.323  1.00  0.00    -0.496 C  
BRANCH  33  34
HETATM   34  O   UNL     1      -9.227  20.141  67.412  1.00  0.00    -0.342 OA 
BRANCH  34  35
HETATM   35  C   UNL     1      -9.083  19.040  68.306  1.00  0.00    -0.327 C  
BRANCH  35  36
HETATM   36  C   UNL     1      -7.619  18.625  68.344  1.00  0.00    -0.297 C  
BRANCH  36  37
HETATM   37  O   UNL     1      -6.788  19.783  68.246  1.00  0.00    -0.271 OA 
BRANCH  37  38
HETATM   38  C   UNL     1      -5.607  19.633  69.046  1.00  0.00    -0.206 C  
BRANCH  38  39
HETATM   39  C   UNL     1      -5.934  20.070  70.469  1.00  0.00    -0.341 C  
HETATM   40  O   UNL     1      -5.279  21.304  70.762  1.00  0.00    -0.570 OA 
HETATM   41  H   UNL     1      -5.483  21.575  71.648  1.00  0.00     0.000 HD 
ENDBRANCH  38  39
ENDBRANCH  37  38
ENDBRANCH  36  37
ENDBRANCH  35  36
ENDBRANCH  34  35
ENDBRANCH  33  34
ENDBRANCH  32  33
ENDBRANCH  31  32
ENDBRANCH  30  31
ENDBRANCH  29  30
ENDBRANCH  28  29
ENDBRANCH  27  28
ENDBRANCH  26  27
ENDBRANCH  25  26
ENDBRANCH  24  25
ENDBRANCH  23  24
ENDBRANCH  22  23
ENDBRANCH  21  22
ENDBRANCH  20  21
ENDBRANCH  19  20
ENDBRANCH  18  19
ENDBRANCH  17  18
ENDBRANCH  16  17
ENDBRANCH  15  16
ENDBRANCH  14  15
ENDBRANCH  13  14
ENDBRANCH  12  13
ENDBRANCH  11  12
ENDBRANCH  10  11
ENDBRANCH   9  10
ENDBRANCH   8   9
ENDBRANCH   7   8
ENDBRANCH   6   7
ENDBRANCH   5   6
ENDBRANCH   4   5
ENDBRANCH   3   4
ENDBRANCH   2   3
TORSDOF 37
ENDMDL
MODEL      121
REMARK 921   NORMALIZED FREE ENERGY PREDICTED BY IDOCK:   -3.00 KCAL/MOL
REMARK 922        TOTAL FREE ENERGY PREDICTED BY IDOCK:  -13.11 KCAL/MOL
REMARK 923 INTER-LIGAND FREE ENERGY PREDICTED BY IDOCK:   -9.59 KCAL/MOL
REMARK 924 INTRA-LIGAND FREE ENERGY PREDICTED BY IDOCK:   -3.53 KCAL/MOL
REMARK 927      BINDING AFFINITY PREDICTED BY RF-SCORE:    0.00 PKD
ROOT
HETATM    1  C   UNL     1      -7.434   7.116  67.657  1.00  0.00    -0.101 C  
HETATM    2  C   UNL     1      -6.538   8.183  67.053  1.00  0.00    -0.058 C  
ENDROOT
BRANCH   2   3
HETATM    3  C   UNL     1      -6.279   7.910  65.574  1.00  0.00    -0.038 C  
BRANCH   3   4
HETATM    4  C   UNL     1      -6.815   9.041  64.700  1.00  0.00    -0.084 C  
BRANCH   4   5
HETATM    5  C   UNL     1      -8.321   8.899  64.494  1.00  0.00    -0.178 C  
BRANCH   5   6
HETATM    6  C   UNL     1      -9.057  10.140  64.986  1.00  0.00    -0.245 C  
BRANCH   6   7
HETATM    7  C   UNL     1      -9.872   9.824  66.236  1.00  0.00    -0.315 C  
BRANCH   7   8
HETATM    8  C   UNL     1     -10.679  11.040  66.673  1.00  0.00    -0.305 C  
BRANCH   8   9
HETATM    9  C   UNL     1     -10.698  12.103  65.579  1.00  0.00    -0.321 C  
BRANCH   9  10
HETATM   10  C   UNL     1     -12.130  12.533  65.289  1.00  0.00    -0.500 C  
BRANCH  10  11
HETATM   11  C   UNL     1     -12.341  14.004  65.618  1.00  0.00    -0.502 C  
BRANCH  11  12
HETATM   12  C   UNL     1     -12.126  14.857  64.380  1.00  0.00    -0.401 C  
BRANCH  12  13
HETATM   13  O   UNL     1     -11.106  15.805  64.667  1.00  0.00    -0.445 OA 
BRANCH  13  14
HETATM   14  C   UNL     1     -10.797  15.805  66.057  1.00  0.00    -0.255 C  
BRANCH  14  15
HETATM   15  C   UNL     1      -9.401  16.367  66.259  1.00  0.00    -0.315 C  
BRANCH  15  16
HETATM   16  O   UNL     1      -8.879  15.836  67.472  1.00  0.00    -0.181 OA 
BRANCH  16  17
HETATM   17  C   UNL     1      -7.636  15.178  67.255  1.00  0.00    -0.203 C  
BRANCH  17  18
HETATM   18  C   UNL     1      -7.860  13.678  67.362  1.00  0.00    -0.149 C  
BRANCH  18  19
HETATM   19  O   UNL     1      -6.882  13.127  68.235  1.00  0.00    -0.082 OA 
BRANCH  19  20
HETATM   20  C   UNL     1      -7.403  12.022  68.976  1.00  0.00    -0.018 C  
BRANCH  20  21
HETATM   21  C   UNL     1      -6.307  10.974  69.122  1.00  0.00    -0.057 C  
BRANCH  21  22
HETATM   22  O   UNL     1      -6.755   9.964  70.030  1.00  0.00    -0.071 OA 
BRANCH  22  23
HETATM   23  C   UNL     1      -5.666   9.219  70.561  1.00  0.00    -0.038 C  
BRANCH  23  24
HETATM   24  C   UNL     1      -6.199   8.227  71.584  1.00  0.00    -0.047 C  
BRANCH  24  25
HETATM   25  O   UNL     1      -7.201   8.871  72.367  1.00  0.00    -0.329 OA 
BRANCH  25  26
HETATM   26  C   UNL     1      -8.331   8.029  72.552  1.00  0.00    -0.157 C  
BRANCH  26  27
HETATM   27  C   UNL     1      -8.100   6.725  71.803  1.00  0.00    -0.102 C  
BRANCH  27  28
HETATM   28  O   UNL     1      -9.301   5.960  71.817  1.00  0.00    -0.149 OA 
BRANCH  28  29
HETATM   29  C   UNL     1     -10.447   6.804  71.791  1.00  0.00    -0.207 C  
BRANCH  29  30
HETATM   30  C   UNL     1     -11.125   6.676  70.436  1.00  0.00    -0.322 C  
BRANCH  30  31
HETATM   31  O   UNL     1     -12.536   6.726  70.618  1.00  0.00    -0.320 OA 
BRANCH  31  32
HETATM   32  C   UNL     1     -12.874   7.213  71.914  1.00  0.00    -0.260 C  
BRANCH  32  33
HETATM   33  C   UNL     1     -13.884   8.343  71.770  1.00  0.00    -0.408 C  
BRANCH  33  34
HETATM   34  O   UNL     1     -13.222   9.590  71.956  1.00  0.00    -0.392 OA 
BRANCH  34  35
HETATM   35  C   UNL     1     -13.159  10.333  70.741  1.00  0.00    -0.287 C  
BRANCH  35  36
HETATM   36  C   UNL     1     -12.180  11.485  70.916  1.00  0.00    -0.322 C  
BRANCH  36  37
HETATM   37  O   UNL     1     -12.836  12.582  71.553  1.00  0.00    -0.358 OA 
BRANCH  37  38
HETATM   38  C   UNL     1     -12.373  13.831  71.025  1.00  0.00    -0.372 C  
BRANCH  38  39
HETATM   39  C   UNL     1     -11.560  13.547  69.767  1.00  0.00    -0.244 C  
HETATM   40  O   UNL     1     -10.430  14.416  69.712  1.00  0.00    -0.443 OA 
HETATM   41  H   UNL     1      -9.924  14.239  68.929  1.00  0.00     0.000 HD 
ENDBRANCH  38  39
ENDBRANCH  37  38
ENDBRANCH  36  37
ENDBRANCH  35  36
ENDBRANCH  34  35
ENDBRANCH  33  34
ENDBRANCH  32  33
ENDBRANCH  31  32
ENDBRANCH  30  31
ENDBRANCH  29  30
ENDBRANCH  28  29
ENDBRANCH  27  28
ENDBRANCH  26  27
ENDBRANCH  25  26
ENDBRANCH  24  25
ENDBRANCH  23  24
ENDBRANCH  22  23
ENDBRANCH  21  22
ENDBRANCH  20  21
ENDBRANCH  19  20
ENDBRANCH  18  19
ENDBRANCH  17  18
ENDBRANCH  16  17
ENDBRANCH  15  16
ENDBRANCH  14  15
ENDBRANCH  13  14
ENDBRANCH  12  13
ENDBRANCH  11  12
ENDBRANCH  10  11
ENDBRANCH   9  10
ENDBRANCH   8   9
ENDBRANCH   7   8
ENDBRANCH   6   7
ENDBRANCH   5   6
ENDBRANCH   4   5
ENDBRANCH   3   4
ENDBRANCH   2   3
TORSDOF 37
ENDMDL
MODEL      122
REMARK 921   NORMALIZED FREE ENERGY PREDICTED BY IDOCK:   -2.99 KCAL/MOL
REMARK 922        TOTAL FREE ENERGY PREDICTED BY IDOCK:  -13.08 KCAL/MOL
REMARK 923 INTER-LIGAND FREE ENERGY PREDICTED BY IDOCK:  -10.12 KCAL/MOL
REMARK 924 INTRA-LIGAND FREE ENERGY PREDICTED BY IDOCK:   -2.96 KCAL/MOL
REMARK 927      BINDING AFFINITY PREDICTED BY RF-SCORE:    0.00 PKD
ROOT
HETATM    1  C   UNL     1     -12.328  13.368  67.885  1.00  0.00     0.043 C  
HETATM    2  C   UNL     1     -11.812  13.088  66.484  1.00  0.00    -0.464 C  
ENDROOT
BRANCH   2   3
HETATM    3  C   UNL     1     -12.655  13.807  65.435  1.00  0.00    -0.534 C  
BRANCH   3   4
HETATM    4  C   UNL     1     -12.085  13.603  64.033  1.00  0.00    -0.474 C  
BRANCH   4   5
HETATM    5  C   UNL     1     -12.575  12.286  63.437  1.00  0.00    -0.545 C  
BRANCH   5   6
HETATM    6  C   UNL     1     -11.453  11.255  63.398  1.00  0.00     0.069 C  
BRANCH   6   7
HETATM    7  C   UNL     1     -10.095  11.929  63.566  1.00  0.00    -0.464 C  
BRANCH   7   8
HETATM    8  C   UNL     1      -9.301  11.266  64.684  1.00  0.00    -0.156 C  
BRANCH   8   9
HETATM    9  C   UNL     1      -9.450   9.749  64.633  1.00  0.00    -0.295 C  
BRANCH   9  10
HETATM   10  C   UNL     1      -8.603   9.175  63.505  1.00  0.00    -0.177 C  
BRANCH  10  11
HETATM   11  C   UNL     1      -7.423   8.384  64.050  1.00  0.00    -0.111 C  
BRANCH  11  12
HETATM   12  C   UNL     1      -6.220   9.292  64.238  1.00  0.00    -0.077 C  
BRANCH  12  13
HETATM   13  O   UNL     1      -5.708   9.083  65.548  1.00  0.00    -0.048 OA 
BRANCH  13  14
HETATM   14  C   UNL     1      -6.229  10.052  66.452  1.00  0.00    -0.068 C  
BRANCH  14  15
HETATM   15  C   UNL     1      -6.559   9.379  67.772  1.00  0.00    -0.063 C  
BRANCH  15  16
HETATM   16  O   UNL     1      -6.379   7.976  67.613  1.00  0.00    -0.050 OA 
BRANCH  16  17
HETATM   17  C   UNL     1      -7.394   7.244  68.291  1.00  0.00    -0.100 C  
BRANCH  17  18
HETATM   18  C   UNL     1      -7.910   8.090  69.444  1.00  0.00    -0.113 C  
BRANCH  18  19
HETATM   19  O   UNL     1      -8.194   7.239  70.547  1.00  0.00    -0.120 OA 
BRANCH  19  20
HETATM   20  C   UNL     1      -8.988   6.117  70.154  1.00  0.00    -0.148 C  
BRANCH  20  21
HETATM   21  C   UNL     1      -9.946   5.778  71.289  1.00  0.00    -0.191 C  
BRANCH  21  22
HETATM   22  O   UNL     1     -11.190   6.443  71.053  1.00  0.00    -0.282 OA 
BRANCH  22  23
HETATM   23  C   UNL     1     -11.404   7.496  71.985  1.00  0.00    -0.273 C  
BRANCH  23  24
HETATM   24  C   UNL     1     -11.258   8.828  71.266  1.00  0.00    -0.284 C  
BRANCH  24  25
HETATM   25  O   UNL     1     -12.311   9.692  71.683  1.00  0.00    -0.356 OA 
BRANCH  25  26
HETATM   26  C   UNL     1     -12.773  10.500  70.608  1.00  0.00    -0.355 C  
BRANCH  26  27
HETATM   27  C   UNL     1     -12.724  11.960  71.035  1.00  0.00    -0.258 C  
BRANCH  27  28
HETATM   28  O   UNL     1     -13.780  12.212  71.955  1.00  0.00    -0.278 OA 
BRANCH  28  29
HETATM   29  C   UNL     1     -13.822  13.587  72.324  1.00  0.00    -0.581 C  
BRANCH  29  30
HETATM   30  C   UNL     1     -12.764  14.342  71.535  1.00  0.00    -0.350 C  
BRANCH  30  31
HETATM   31  O   UNL     1     -12.356  15.484  72.282  1.00  0.00    -0.328 OA 
BRANCH  31  32
HETATM   32  C   UNL     1     -11.656  16.416  71.461  1.00  0.00    -0.265 C  
BRANCH  32  33
HETATM   33  C   UNL     1     -10.715  15.654  70.539  1.00  0.00    -0.273 C  
BRANCH  33  34
HETATM   34  O   UNL     1     -10.456  16.441  69.380  1.00  0.00    -0.272 OA 
BRANCH  34  35
HETATM   35  C   UNL     1      -9.563  15.777  68.489  1.00  0.00    -0.204 C  
BRANCH  35  36
HETATM   36  C   UNL     1      -9.576  16.498  67.149  1.00  0.00    -0.240 C  
BRANCH  36  37
HETATM   37  O   UNL     1      -9.167  17.855  67.328  1.00  0.00    -0.249 OA 
BRANCH  37  38
HETATM   38  C   UNL     1     -10.177  18.759  66.861  1.00  0.00    -0.386 C  
BRANCH  38  39
HETATM   39  C   UNL     1     -10.523  19.717  67.995  1.00  0.00    -0.386 C  
HETATM   40  O   UNL     1      -9.853  19.318  69.190  1.00  0.00    -0.412 OA 
HETATM   41  H   UNL     1     -10.069  19.915  69.896  1.00  0.00     0.000 HD 
ENDBRANCH  38  39
ENDBRANCH  37  38
ENDBRANCH  36  37
ENDBRANCH  35  36
ENDBRANCH  34  35
ENDBRANCH  33  34
ENDBRANCH  32  33
ENDBRANCH  31  32
ENDBRANCH  30  31
ENDBRANCH  29  30
ENDBRANCH  28  29
ENDBRANCH  27  28
ENDBRANCH  26  27
ENDBRANCH  25  26
ENDBRANCH  24  25
ENDBRANCH  23  24
ENDBRANCH  22  23
ENDBRANCH  21  22
ENDBRANCH  20  21
ENDBRANCH  19  20
ENDBRANCH  18  19
ENDBRANCH  17  18
ENDBRANCH  16  17
ENDBRANCH  15  16
ENDBRANCH  14  15
ENDBRANCH  13  14
ENDBRANCH  12  13
ENDBRANCH  11  12
ENDBRANCH  10  11
ENDBRANCH   9  10
ENDBRANCH   8   9
ENDBRANCH   7   8
ENDBRANCH   6   7
ENDBRANCH   5   6
ENDBRANCH   4   5
ENDBRANCH   3   4
ENDBRANCH   2   3
TORSDOF 37
ENDMDL
MODEL      123
REMARK 921   NORMALIZED FREE ENERGY PREDICTED BY IDOCK:   -2.99 KCAL/MOL
REMARK 922        TOTAL FREE ENERGY PREDICTED BY IDOCK:  -13.08 KCAL/MOL
REMARK 923 INTER-LIGAND FREE ENERGY PREDICTED BY IDOCK:   -9.93 KCAL/MOL
REMARK 924 INTRA-LIGAND FREE ENERGY PREDICTED BY IDOCK:   -3.15 KCAL/MOL
REMARK 927      BINDING AFFINITY PREDICTED BY RF-SCORE:    0.00 PKD
ROOT
HETATM    1  C   UNL     1     -12.374   8.334  72.697  1.00  0.00    -0.256 C  
HETATM    2  C   UNL     1     -12.657   8.402  71.206  1.00  0.00    -0.234 C  
ENDROOT
BRANCH   2   3
HETATM    3  C   UNL     1     -13.329   9.721  70.836  1.00  0.00    -0.227 C  
BRANCH   3   4
HETATM    4  C   UNL     1     -13.381  10.671  72.031  1.00  0.00    -0.409 C  
BRANCH   4   5
HETATM    5  C   UNL     1     -12.915  12.068  71.632  1.00  0.00    -0.439 C  
BRANCH   5   6
HETATM    6  C   UNL     1     -13.713  13.139  72.367  1.00  0.00    -0.640 C  
BRANCH   6   7
HETATM    7  C   UNL     1     -13.243  14.533  71.965  1.00  0.00    -0.446 C  
BRANCH   7   8
HETATM    8  C   UNL     1     -12.122  14.447  70.938  1.00  0.00    -0.414 C  
BRANCH   8   9
HETATM    9  C   UNL     1     -12.124  15.667  70.023  1.00  0.00    -0.379 C  
BRANCH   9  10
HETATM   10  C   UNL     1     -11.711  15.269  68.612  1.00  0.00    -0.367 C  
BRANCH  10  11
HETATM   11  C   UNL     1     -12.052  13.813  68.329  1.00  0.00    -0.314 C  
BRANCH  11  12
HETATM   12  C   UNL     1     -11.981  13.535  66.837  1.00  0.00    -0.399 C  
BRANCH  12  13
HETATM   13  O   UNL     1     -11.281  14.609  66.220  1.00  0.00    -0.331 OA 
BRANCH  13  14
HETATM   14  C   UNL     1     -11.679  14.752  64.861  1.00  0.00    -0.390 C  
BRANCH  14  15
HETATM   15  C   UNL     1     -12.230  13.429  64.359  1.00  0.00    -0.389 C  
BRANCH  15  16
HETATM   16  O   UNL     1     -11.302  12.885  63.428  1.00  0.00    -0.435 OA 
BRANCH  16  17
HETATM   17  C   UNL     1     -11.122  11.488  63.632  1.00  0.00    -0.385 C  
BRANCH  17  18
HETATM   18  C   UNL     1      -9.712  11.115  63.205  1.00  0.00    -0.376 C  
BRANCH  18  19
HETATM   19  O   UNL     1      -8.953  10.785  64.361  1.00  0.00    -0.191 OA 
BRANCH  19  20
HETATM   20  C   UNL     1      -9.780  10.247  65.395  1.00  0.00    -0.278 C  
BRANCH  20  21
HETATM   21  C   UNL     1      -9.046   9.081  66.047  1.00  0.00    -0.208 C  
BRANCH  21  22
HETATM   22  O   UNL     1      -7.965   8.688  65.197  1.00  0.00    -0.112 OA 
BRANCH  22  23
HETATM   23  C   UNL     1      -8.076   7.324  64.807  1.00  0.00    -0.097 C  
BRANCH  23  24
HETATM   24  C   UNL     1      -8.868   6.572  65.866  1.00  0.00    -0.119 C  
BRANCH  24  25
HETATM   25  O   UNL     1      -9.228   5.294  65.346  1.00  0.00    -0.152 OA 
BRANCH  25  26
HETATM   26  C   UNL     1      -8.178   4.351  65.522  1.00  0.00    -0.110 C  
BRANCH  26  27
HETATM   27  C   UNL     1      -8.026   4.058  67.007  1.00  0.00    -0.096 C  
BRANCH  27  28
HETATM   28  O   UNL     1      -8.974   3.065  67.385  1.00  0.00    -0.131 OA 
BRANCH  28  29
HETATM   29  C   UNL     1      -8.413   2.149  68.320  1.00  0.00    -0.062 C  
BRANCH  29  30
HETATM   30  C   UNL     1      -9.468   1.793  69.355  1.00  0.00    -0.059 C  
BRANCH  30  31
HETATM   31  O   UNL     1      -9.298   2.628  70.495  1.00  0.00    -0.125 OA 
BRANCH  31  32
HETATM   32  C   UNL     1      -7.948   3.070  70.617  1.00  0.00    -0.046 C  
BRANCH  32  33
HETATM   33  C   UNL     1      -7.942   4.521  71.075  1.00  0.00    -0.077 C  
BRANCH  33  34
HETATM   34  O   UNL     1      -9.212   4.841  71.636  1.00  0.00    -0.132 OA 
BRANCH  34  35
HETATM   35  C   UNL     1      -9.675   6.112  71.187  1.00  0.00    -0.176 C  
BRANCH  35  36
HETATM   36  C   UNL     1      -9.639   6.141  69.666  1.00  0.00    -0.148 C  
BRANCH  36  37
HETATM   37  O   UNL     1      -9.376   7.470  69.215  1.00  0.00    -0.151 OA 
BRANCH  37  38
HETATM   38  C   UNL     1      -8.329   8.074  69.987  1.00  0.00    -0.123 C  
BRANCH  38  39
HETATM   39  C   UNL     1      -8.586   9.575  70.050  1.00  0.00    -0.215 C  
HETATM   40  O   UNL     1      -9.533   9.864  71.077  1.00  0.00    -0.286 OA 
HETATM   41  H   UNL     1      -9.692  10.799  71.116  1.00  0.00     0.000 HD 
ENDBRANCH  38  39
ENDBRANCH  37  38
ENDBRANCH  36  37
ENDBRANCH  35  36
ENDBRANCH  34  35
ENDBRANCH  33  34
ENDBRANCH  32  33
ENDBRANCH  31  32
ENDBRANCH  30  31
ENDBRANCH  29  30
ENDBRANCH  28  29
ENDBRANCH  27  28
ENDBRANCH  26  27
ENDBRANCH  25  26
ENDBRANCH  24  25
ENDBRANCH  23  24
ENDBRANCH  22  23
ENDBRANCH  21  22
ENDBRANCH  20  21
ENDBRANCH  19  20
ENDBRANCH  18  19
ENDBRANCH  17  18
ENDBRANCH  16  17
ENDBRANCH  15  16
ENDBRANCH  14  15
ENDBRANCH  13  14
ENDBRANCH  12  13
ENDBRANCH  11  12
ENDBRANCH  10  11
ENDBRANCH   9  10
ENDBRANCH   8   9
ENDBRANCH   7   8
ENDBRANCH   6   7
ENDBRANCH   5   6
ENDBRANCH   4   5
ENDBRANCH   3   4
ENDBRANCH   2   3
TORSDOF 37
ENDMDL
MODEL      124
REMARK 921   NORMALIZED FREE ENERGY PREDICTED BY IDOCK:   -2.99 KCAL/MOL
REMARK 922        TOTAL FREE ENERGY PREDICTED BY IDOCK:  -13.07 KCAL/MOL
REMARK 923 INTER-LIGAND FREE ENERGY PREDICTED BY IDOCK:  -10.40 KCAL/MOL
REMARK 924 INTRA-LIGAND FREE ENERGY PREDICTED BY IDOCK:   -2.67 KCAL/MOL
REMARK 927      BINDING AFFINITY PREDICTED BY RF-SCORE:    0.00 PKD
ROOT
HETATM    1  C   UNL     1      -6.786   5.264  65.064  1.00  0.00    -0.049 C  
HETATM    2  C   UNL     1      -8.275   5.545  64.948  1.00  0.00    -0.136 C  
ENDROOT
BRANCH   2   3
HETATM    3  C   UNL     1      -9.095   4.301  65.277  1.00  0.00    -0.143 C  
BRANCH   3   4
HETATM    4  C   UNL     1     -10.531   4.666  65.645  1.00  0.00    -0.260 C  
BRANCH   4   5
HETATM    5  C   UNL     1     -10.556   5.752  66.718  1.00  0.00    -0.373 C  
BRANCH   5   6
HETATM    6  C   UNL     1     -10.096   5.200  68.062  1.00  0.00    -0.189 C  
BRANCH   6   7
HETATM    7  C   UNL     1      -9.186   6.197  68.772  1.00  0.00    -0.124 C  
BRANCH   7   8
HETATM    8  C   UNL     1      -8.726   5.643  70.115  1.00  0.00    -0.140 C  
BRANCH   8   9
HETATM    9  C   UNL     1      -9.248   4.226  70.328  1.00  0.00    -0.203 C  
BRANCH   9  10
HETATM   10  C   UNL     1     -10.103   4.164  71.587  1.00  0.00    -0.198 C  
BRANCH  10  11
HETATM   11  C   UNL     1     -10.273   5.544  72.206  1.00  0.00    -0.244 C  
BRANCH  11  12
HETATM   12  C   UNL     1     -11.711   6.013  72.065  1.00  0.00    -0.257 C  
BRANCH  12  13
HETATM   13  O   UNL     1     -11.699   7.296  71.452  1.00  0.00    -0.263 OA 
BRANCH  13  14
HETATM   14  C   UNL     1     -12.026   8.308  72.398  1.00  0.00    -0.384 C  
BRANCH  14  15
HETATM   15  C   UNL     1     -12.984   9.299  71.760  1.00  0.00    -0.396 C  
BRANCH  15  16
HETATM   16  O   UNL     1     -12.230  10.417  71.306  1.00  0.00    -0.356 OA 
BRANCH  16  17
HETATM   17  C   UNL     1     -12.333  10.571  69.894  1.00  0.00    -0.178 C  
BRANCH  17  18
HETATM   18  C   UNL     1     -10.987  10.231  69.274  1.00  0.00    -0.241 C  
BRANCH  18  19
HETATM   19  O   UNL     1     -10.793  11.042  68.123  1.00  0.00    -0.193 OA 
BRANCH  19  20
HETATM   20  C   UNL     1     -10.571  10.250  66.954  1.00  0.00    -0.217 C  
BRANCH  20  21
HETATM   21  C   UNL     1      -9.114  10.400  66.535  1.00  0.00    -0.155 C  
BRANCH  21  22
HETATM   22  O   UNL     1      -9.069  11.023  65.248  1.00  0.00    -0.202 OA 
BRANCH  22  23
HETATM   23  C   UNL     1     -10.372  11.188  64.702  1.00  0.00    -0.330 C  
BRANCH  23  24
HETATM   24  C   UNL     1     -10.314  12.222  63.588  1.00  0.00    -0.432 C  
BRANCH  24  25
HETATM   25  O   UNL     1     -10.795  13.465  64.092  1.00  0.00    -0.390 OA 
BRANCH  25  26
HETATM   26  C   UNL     1     -12.042  13.305  64.756  1.00  0.00    -0.409 C  
BRANCH  26  27
HETATM   27  C   UNL     1     -11.984  14.036  66.090  1.00  0.00    -0.420 C  
BRANCH  27  28
HETATM   28  O   UNL     1     -10.668  14.546  66.285  1.00  0.00    -0.298 OA 
BRANCH  28  29
HETATM   29  C   UNL     1     -10.126  14.104  67.525  1.00  0.00    -0.236 C  
BRANCH  29  30
HETATM   30  C   UNL     1      -8.611  14.048  67.409  1.00  0.00    -0.203 C  
BRANCH  30  31
HETATM   31  O   UNL     1      -8.048  14.014  68.717  1.00  0.00    -0.133 OA 
BRANCH  31  32
HETATM   32  C   UNL     1      -8.088  15.300  69.331  1.00  0.00    -0.230 C  
BRANCH  32  33
HETATM   33  C   UNL     1      -6.846  16.080  68.927  1.00  0.00    -0.143 C  
BRANCH  33  34
HETATM   34  O   UNL     1      -7.213  17.426  68.633  1.00  0.00    -0.217 OA 
BRANCH  34  35
HETATM   35  C   UNL     1      -7.377  17.625  67.232  1.00  0.00    -0.182 C  
BRANCH  35  36
HETATM   36  C   UNL     1      -8.834  17.969  66.951  1.00  0.00    -0.258 C  
BRANCH  36  37
HETATM   37  O   UNL     1      -9.453  18.455  68.142  1.00  0.00    -0.289 OA 
BRANCH  37  38
HETATM   38  C   UNL     1     -10.357  19.527  67.848  1.00  0.00    -0.444 C  
BRANCH  38  39
HETATM   39  C   UNL     1      -9.691  20.450  66.833  1.00  0.00    -0.426 C  
HETATM   40  O   UNL     1     -10.377  20.374  65.584  1.00  0.00    -0.454 OA 
HETATM   41  H   UNL     1      -9.963  20.948  64.952  1.00  0.00     0.000 HD 
ENDBRANCH  38  39
ENDBRANCH  37  38
ENDBRANCH  36  37
ENDBRANCH  35  36
ENDBRANCH  34  35
ENDBRANCH  33  34
ENDBRANCH  32  33
ENDBRANCH  31  32
ENDBRANCH  30  31
ENDBRANCH  29  30
ENDBRANCH  28  29
ENDBRANCH  27  28
ENDBRANCH  26  27
ENDBRANCH  25  26
ENDBRANCH  24  25
ENDBRANCH  23  24
ENDBRANCH  22  23
ENDBRANCH  21  22
ENDBRANCH  20  21
ENDBRANCH  19  20
ENDBRANCH  18  19
ENDBRANCH  17  18
ENDBRANCH  16  17
ENDBRANCH  15  16
ENDBRANCH  14  15
ENDBRANCH  13  14
ENDBRANCH  12  13
ENDBRANCH  11  12
ENDBRANCH  10  11
ENDBRANCH   9  10
ENDBRANCH   8   9
ENDBRANCH   7   8
ENDBRANCH   6   7
ENDBRANCH   5   6
ENDBRANCH   4   5
ENDBRANCH   3   4
ENDBRANCH   2   3
TORSDOF 37
ENDMDL
MODEL      125
REMARK 921   NORMALIZED FREE ENERGY PREDICTED BY IDOCK:   -2.99 KCAL/MOL
REMARK 922        TOTAL FREE ENERGY PREDICTED BY IDOCK:  -13.06 KCAL/MOL
REMARK 923 INTER-LIGAND FREE ENERGY PREDICTED BY IDOCK:   -9.53 KCAL/MOL
REMARK 924 INTRA-LIGAND FREE ENERGY PREDICTED BY IDOCK:   -3.53 KCAL/MOL
REMARK 927      BINDING AFFINITY PREDICTED BY RF-SCORE:    0.00 PKD
ROOT
HETATM    1  C   UNL     1      -8.132   6.026  67.266  1.00  0.00    -0.106 C  
HETATM    2  C   UNL     1      -6.678   6.465  67.227  1.00  0.00    -0.060 C  
ENDROOT
BRANCH   2   3
HETATM    3  C   UNL     1      -6.066   6.215  65.851  1.00  0.00    -0.033 C  
BRANCH   3   4
HETATM    4  C   UNL     1      -5.760   7.529  65.135  1.00  0.00    -0.037 C  
BRANCH   4   5
HETATM    5  C   UNL     1      -6.899   7.910  64.193  1.00  0.00    -0.061 C  
BRANCH   5   6
HETATM    6  C   UNL     1      -7.598   9.179  64.668  1.00  0.00    -0.106 C  
BRANCH   6   7
HETATM    7  C   UNL     1      -8.985   8.859  65.215  1.00  0.00    -0.213 C  
BRANCH   7   8
HETATM    8  C   UNL     1      -9.816  10.129  65.346  1.00  0.00    -0.375 C  
BRANCH   8   9
HETATM    9  C   UNL     1      -9.252  11.243  64.470  1.00  0.00    -0.072 C  
BRANCH   9  10
HETATM   10  C   UNL     1     -10.148  11.465  63.259  1.00  0.00    -0.424 C  
BRANCH  10  11
HETATM   11  C   UNL     1     -11.563  11.833  63.681  1.00  0.00    -0.521 C  
BRANCH  11  12
HETATM   12  C   UNL     1     -11.822  13.309  63.430  1.00  0.00    -0.355 C  
BRANCH  12  13
HETATM   13  O   UNL     1     -12.565  13.821  64.530  1.00  0.00    -0.620 OA 
BRANCH  13  14
HETATM   14  C   UNL     1     -12.531  12.912  65.626  1.00  0.00    -0.338 C  
BRANCH  14  15
HETATM   15  C   UNL     1     -12.185  13.671  66.895  1.00  0.00    -0.352 C  
BRANCH  15  16
HETATM   16  O   UNL     1     -10.865  13.310  67.284  1.00  0.00    -0.260 OA 
BRANCH  16  17
HETATM   17  C   UNL     1     -10.025  14.454  67.391  1.00  0.00    -0.242 C  
BRANCH  17  18
HETATM   18  C   UNL     1      -8.592  14.026  67.122  1.00  0.00    -0.205 C  
BRANCH  18  19
HETATM   19  O   UNL     1      -8.069  13.409  68.291  1.00  0.00    -0.141 OA 
BRANCH  19  20
HETATM   20  C   UNL     1      -7.772  12.029  68.068  1.00  0.00    -0.132 C  
BRANCH  20  21
HETATM   21  C   UNL     1      -6.964  11.508  69.251  1.00  0.00    -0.098 C  
BRANCH  21  22
HETATM   22  O   UNL     1      -7.612  10.344  69.771  1.00  0.00    -0.155 OA 
BRANCH  22  23
HETATM   23  C   UNL     1      -6.707   9.525  70.501  1.00  0.00    -0.101 C  
BRANCH  23  24
HETATM   24  C   UNL     1      -7.500   8.505  71.304  1.00  0.00    -0.098 C  
BRANCH  24  25
HETATM   25  O   UNL     1      -7.791   9.057  72.585  1.00  0.00    -0.330 OA 
BRANCH  25  26
HETATM   26  C   UNL     1      -8.300   8.067  73.470  1.00  0.00    -0.233 C  
BRANCH  26  27
HETATM   27  C   UNL     1      -8.203   6.708  72.793  1.00  0.00    -0.108 C  
BRANCH  27  28
HETATM   28  O   UNL     1      -9.415   5.992  73.011  1.00  0.00    -0.144 OA 
BRANCH  28  29
HETATM   29  C   UNL     1     -10.539   6.730  72.543  1.00  0.00    -0.221 C  
BRANCH  29  30
HETATM   30  C   UNL     1     -10.682   6.515  71.045  1.00  0.00    -0.243 C  
BRANCH  30  31
HETATM   31  O   UNL     1     -12.055   6.638  70.689  1.00  0.00    -0.394 OA 
BRANCH  31  32
HETATM   32  C   UNL     1     -12.900   6.500  71.828  1.00  0.00    -0.068 C  
BRANCH  32  33
HETATM   33  C   UNL     1     -14.105   7.415  71.665  1.00  0.00    -0.421 C  
BRANCH  33  34
HETATM   34  O   UNL     1     -13.820   8.677  72.261  1.00  0.00    -0.403 OA 
BRANCH  34  35
HETATM   35  C   UNL     1     -13.893   9.732  71.305  1.00  0.00    -0.037 C  
BRANCH  35  36
HETATM   36  C   UNL     1     -13.137  10.939  71.844  1.00  0.00    -0.432 C  
BRANCH  36  37
HETATM   37  O   UNL     1     -12.218  11.411  70.859  1.00  0.00    -0.370 OA 
BRANCH  37  38
HETATM   38  C   UNL     1     -11.316  10.370  70.461  1.00  0.00    -0.341 C  
BRANCH  38  39
HETATM   39  C   UNL     1     -11.253  10.347  68.938  1.00  0.00    -0.235 C  
HETATM   40  O   UNL     1     -11.206   8.998  68.475  1.00  0.00    -0.445 OA 
HETATM   41  H   UNL     1     -11.167   8.984  67.526  1.00  0.00     0.000 HD 
ENDBRANCH  38  39
ENDBRANCH  37  38
ENDBRANCH  36  37
ENDBRANCH  35  36
ENDBRANCH  34  35
ENDBRANCH  33  34
ENDBRANCH  32  33
ENDBRANCH  31  32
ENDBRANCH  30  31
ENDBRANCH  29  30
ENDBRANCH  28  29
ENDBRANCH  27  28
ENDBRANCH  26  27
ENDBRANCH  25  26
ENDBRANCH  24  25
ENDBRANCH  23  24
ENDBRANCH  22  23
ENDBRANCH  21  22
ENDBRANCH  20  21
ENDBRANCH  19  20
ENDBRANCH  18  19
ENDBRANCH  17  18
ENDBRANCH  16  17
ENDBRANCH  15  16
ENDBRANCH  14  15
ENDBRANCH  13  14
ENDBRANCH  12  13
ENDBRANCH  11  12
ENDBRANCH  10  11
ENDBRANCH   9  10
ENDBRANCH   8   9
ENDBRANCH   7   8
ENDBRANCH   6   7
ENDBRANCH   5   6
ENDBRANCH   4   5
ENDBRANCH   3   4
ENDBRANCH   2   3
TORSDOF 37
ENDMDL
MODEL      126
REMARK 921   NORMALIZED FREE ENERGY PREDICTED BY IDOCK:   -2.98 KCAL/MOL
REMARK 922        TOTAL FREE ENERGY PREDICTED BY IDOCK:  -13.06 KCAL/MOL
REMARK 923 INTER-LIGAND FREE ENERGY PREDICTED BY IDOCK:   -9.94 KCAL/MOL
REMARK 924 INTRA-LIGAND FREE ENERGY PREDICTED BY IDOCK:   -3.13 KCAL/MOL
REMARK 927      BINDING AFFINITY PREDICTED BY RF-SCORE:    0.00 PKD
ROOT
HETATM    1  C   UNL     1     -10.620   9.909  70.541  1.00  0.00    -0.359 C  
HETATM    2  C   UNL     1     -11.793  10.735  70.041  1.00  0.00    -0.424 C  
ENDROOT
BRANCH   2   3
HETATM    3  C   UNL     1     -13.034  10.501  70.898  1.00  0.00    -0.455 C  
BRANCH   3   4
HETATM    4  C   UNL     1     -12.800   9.389  71.918  1.00  0.00    -0.497 C  
BRANCH   4   5
HETATM    5  C   UNL     1     -14.032   8.496  72.036  1.00  0.00    -0.494 C  
BRANCH   5   6
HETATM    6  C   UNL     1     -13.757   7.109  71.466  1.00  0.00    -0.413 C  
BRANCH   6   7
HETATM    7  C   UNL     1     -12.258   6.837  71.407  1.00  0.00    -0.413 C  
BRANCH   7   8
HETATM    8  C   UNL     1     -11.865   5.774  72.424  1.00  0.00    -0.227 C  
BRANCH   8   9
HETATM    9  C   UNL     1     -10.852   6.323  73.424  1.00  0.00    -0.238 C  
BRANCH   9  10
HETATM   10  C   UNL     1      -9.772   7.114  72.698  1.00  0.00    -0.186 C  
BRANCH  10  11
HETATM   11  C   UNL     1      -8.570   6.238  72.376  1.00  0.00    -0.121 C  
BRANCH  11  12
HETATM   12  C   UNL     1      -8.481   5.081  73.356  1.00  0.00    -0.110 C  
BRANCH  12  13
HETATM   13  O   UNL     1      -8.684   3.873  72.634  1.00  0.00    -0.097 OA 
BRANCH  13  14
HETATM   14  C   UNL     1      -8.352   4.047  71.260  1.00  0.00    -0.080 C  
BRANCH  14  15
HETATM   15  C   UNL     1      -9.442   3.432  70.401  1.00  0.00    -0.175 C  
BRANCH  15  16
HETATM   16  O   UNL     1      -9.097   2.075  70.149  1.00  0.00    -0.082 OA 
BRANCH  16  17
HETATM   17  C   UNL     1      -8.898   1.841  68.759  1.00  0.00    -0.088 C  
BRANCH  17  18
HETATM   18  C   UNL     1      -9.504   3.000  67.983  1.00  0.00    -0.159 C  
BRANCH  18  19
HETATM   19  O   UNL     1      -8.561   3.452  67.020  1.00  0.00    -0.103 OA 
BRANCH  19  20
HETATM   20  C   UNL     1      -8.871   4.769  66.560  1.00  0.00    -0.111 C  
BRANCH  20  21
HETATM   21  C   UNL     1      -7.643   5.651  66.748  1.00  0.00    -0.092 C  
BRANCH  21  22
HETATM   22  O   UNL     1      -7.463   5.894  68.147  1.00  0.00    -0.079 OA 
BRANCH  22  23
HETATM   23  C   UNL     1      -8.393   6.854  68.634  1.00  0.00    -0.121 C  
BRANCH  23  24
HETATM   24  C   UNL     1      -7.985   8.233  68.140  1.00  0.00    -0.123 C  
BRANCH  24  25
HETATM   25  O   UNL     1      -9.131   8.882  67.595  1.00  0.00    -0.133 OA 
BRANCH  25  26
HETATM   26  C   UNL     1      -8.899  10.273  67.415  1.00  0.00    -0.131 C  
BRANCH  26  27
HETATM   27  C   UNL     1      -9.953  10.827  66.468  1.00  0.00    -0.213 C  
BRANCH  27  28
HETATM   28  O   UNL     1      -9.312  11.344  65.307  1.00  0.00    -0.217 OA 
BRANCH  28  29
HETATM   29  C   UNL     1      -9.670  10.598  64.148  1.00  0.00    -0.320 C  
BRANCH  29  30
HETATM   30  C   UNL     1     -10.707  11.381  63.359  1.00  0.00    -0.332 C  
BRANCH  30  31
HETATM   31  O   UNL     1     -10.644  12.750  63.743  1.00  0.00    -0.412 OA 
BRANCH  31  32
HETATM   32  C   UNL     1     -11.944  13.334  63.792  1.00  0.00    -0.491 C  
BRANCH  32  33
HETATM   33  C   UNL     1     -12.459  13.275  65.223  1.00  0.00    -0.489 C  
BRANCH  33  34
HETATM   34  O   UNL     1     -11.779  14.251  66.007  1.00  0.00    -0.358 OA 
BRANCH  34  35
HETATM   35  C   UNL     1     -11.273  15.309  65.197  1.00  0.00    -0.370 C  
BRANCH  35  36
HETATM   36  C   UNL     1     -10.295  16.136  66.020  1.00  0.00    -0.358 C  
BRANCH  36  37
HETATM   37  O   UNL     1      -9.323  15.277  66.618  1.00  0.00    -0.225 OA 
BRANCH  37  38
HETATM   38  C   UNL     1      -8.673  15.928  67.717  1.00  0.00    -0.170 C  
BRANCH  38  39
HETATM   39  C   UNL     1      -8.614  14.951  68.886  1.00  0.00    -0.177 C  
HETATM   40  O   UNL     1      -9.529  13.878  68.669  1.00  0.00    -0.293 OA 
HETATM   41  H   UNL     1      -9.492  13.269  69.397  1.00  0.00     0.000 HD 
ENDBRANCH  38  39
ENDBRANCH  37  38
ENDBRANCH  36  37
ENDBRANCH  35  36
ENDBRANCH  34  35
ENDBRANCH  33  34
ENDBRANCH  32  33
ENDBRANCH  31  32
ENDBRANCH  30  31
ENDBRANCH  29  30
ENDBRANCH  28  29
ENDBRANCH  27  28
ENDBRANCH  26  27
ENDBRANCH  25  26
ENDBRANCH  24  25
ENDBRANCH  23  24
ENDBRANCH  22  23
ENDBRANCH  21  22
ENDBRANCH  20  21
ENDBRANCH  19  20
ENDBRANCH  18  19
ENDBRANCH  17  18
ENDBRANCH  16  17
ENDBRANCH  15  16
ENDBRANCH  14  15
ENDBRANCH  13  14
ENDBRANCH  12  13
ENDBRANCH  11  12
ENDBRANCH  10  11
ENDBRANCH   9  10
ENDBRANCH   8   9
ENDBRANCH   7   8
ENDBRANCH   6   7
ENDBRANCH   5   6
ENDBRANCH   4   5
ENDBRANCH   3   4
ENDBRANCH   2   3
TORSDOF 37
ENDMDL
MODEL      127
REMARK 921   NORMALIZED FREE ENERGY PREDICTED BY IDOCK:   -2.98 KCAL/MOL
REMARK 922        TOTAL FREE ENERGY PREDICTED BY IDOCK:  -13.06 KCAL/MOL
REMARK 923 INTER-LIGAND FREE ENERGY PREDICTED BY IDOCK:  -10.19 KCAL/MOL
REMARK 924 INTRA-LIGAND FREE ENERGY PREDICTED BY IDOCK:   -2.87 KCAL/MOL
REMARK 927      BINDING AFFINITY PREDICTED BY RF-SCORE:    0.00 PKD
ROOT
HETATM    1  C   UNL     1      -6.095   3.252  65.138  1.00  0.00    -0.023 C  
HETATM    2  C   UNL     1      -7.267   3.262  66.104  1.00  0.00    -0.067 C  
ENDROOT
BRANCH   2   3
HETATM    3  C   UNL     1      -7.848   1.861  66.276  1.00  0.00    -0.075 C  
BRANCH   3   4
HETATM    4  C   UNL     1      -9.041   1.870  67.229  1.00  0.00    -0.148 C  
BRANCH   4   5
HETATM    5  C   UNL     1      -9.154   3.214  67.943  1.00  0.00    -0.221 C  
BRANCH   5   6
HETATM    6  C   UNL     1      -9.234   3.024  69.453  1.00  0.00    -0.214 C  
BRANCH   6   7
HETATM    7  C   UNL     1      -8.073   3.727  70.148  1.00  0.00    -0.054 C  
BRANCH   7   8
HETATM    8  C   UNL     1      -8.586   4.806  71.093  1.00  0.00    -0.126 C  
BRANCH   8   9
HETATM    9  C   UNL     1      -9.852   4.347  71.809  1.00  0.00    -0.253 C  
BRANCH   9  10
HETATM   10  C   UNL     1     -10.046   5.141  73.094  1.00  0.00    -0.191 C  
BRANCH  10  11
HETATM   11  C   UNL     1      -9.536   6.566  72.944  1.00  0.00    -0.158 C  
BRANCH  11  12
HETATM   12  C   UNL     1     -10.575   7.555  73.445  1.00  0.00    -0.354 C  
BRANCH  12  13
HETATM   13  O   UNL     1     -11.121   8.231  72.319  1.00  0.00    -0.308 OA 
BRANCH  13  14
HETATM   14  C   UNL     1     -12.448   7.786  72.060  1.00  0.00    -0.286 C  
BRANCH  14  15
HETATM   15  C   UNL     1     -12.460   6.968  70.781  1.00  0.00    -0.203 C  
BRANCH  15  16
HETATM   16  O   UNL     1     -11.356   7.375  69.981  1.00  0.00    -0.227 OA 
BRANCH  16  17
HETATM   17  C   UNL     1     -11.071   6.419  68.966  1.00  0.00    -0.358 C  
BRANCH  17  18
HETATM   18  C   UNL     1     -10.224   7.088  67.897  1.00  0.00    -0.183 C  
BRANCH  18  19
HETATM   19  O   UNL     1      -9.971   8.433  68.284  1.00  0.00    -0.174 OA 
BRANCH  19  20
HETATM   20  C   UNL     1      -9.020   9.058  67.420  1.00  0.00    -0.124 C  
BRANCH  20  21
HETATM   21  C   UNL     1      -9.404   8.758  65.977  1.00  0.00    -0.232 C  
BRANCH  21  22
HETATM   22  O   UNL     1     -10.336   9.750  65.535  1.00  0.00    -0.178 OA 
BRANCH  22  23
HETATM   23  C   UNL     1     -10.212  10.953  66.284  1.00  0.00    -0.247 C  
BRANCH  23  24
HETATM   24  C   UNL     1     -11.523  11.720  66.207  1.00  0.00    -0.227 C  
BRANCH  24  25
HETATM   25  O   UNL     1     -11.721  12.411  67.437  1.00  0.00    -0.347 OA 
BRANCH  25  26
HETATM   26  C   UNL     1     -11.176  11.685  68.531  1.00  0.00    -0.256 C  
BRANCH  26  27
HETATM   27  C   UNL     1     -12.308  11.283  69.466  1.00  0.00    -0.175 C  
BRANCH  27  28
HETATM   28  O   UNL     1     -11.855  11.377  70.813  1.00  0.00    -0.309 OA 
BRANCH  28  29
HETATM   29  C   UNL     1     -12.931  11.679  71.696  1.00  0.00    -0.378 C  
BRANCH  29  30
HETATM   30  C   UNL     1     -13.410  13.096  71.423  1.00  0.00    -0.135 C  
BRANCH  30  31
HETATM   31  O   UNL     1     -12.803  13.979  72.361  1.00  0.00    -0.351 OA 
BRANCH  31  32
HETATM   32  C   UNL     1     -12.210  15.099  71.709  1.00  0.00    -0.355 C  
BRANCH  32  33
HETATM   33  C   UNL     1     -12.411  14.961  70.207  1.00  0.00    -0.336 C  
BRANCH  33  34
HETATM   34  O   UNL     1     -11.151  15.081  69.552  1.00  0.00    -0.252 OA 
BRANCH  34  35
HETATM   35  C   UNL     1     -10.836  16.443  69.275  1.00  0.00    -0.327 C  
BRANCH  35  36
HETATM   36  C   UNL     1      -9.949  16.503  68.039  1.00  0.00    -0.245 C  
BRANCH  36  37
HETATM   37  O   UNL     1     -10.761  16.619  66.870  1.00  0.00    -0.266 OA 
BRANCH  37  38
HETATM   38  C   UNL     1     -11.123  15.326  66.368  1.00  0.00    -0.273 C  
BRANCH  38  39
HETATM   39  C   UNL     1     -10.603  15.204  64.940  1.00  0.00    -0.365 C  
HETATM   40  O   UNL     1     -11.039  16.321  64.167  1.00  0.00    -1.187 OA 
HETATM   41  H   UNL     1     -10.715  16.244  63.278  1.00  0.00     0.000 HD 
ENDBRANCH  38  39
ENDBRANCH  37  38
ENDBRANCH  36  37
ENDBRANCH  35  36
ENDBRANCH  34  35
ENDBRANCH  33  34
ENDBRANCH  32  33
ENDBRANCH  31  32
ENDBRANCH  30  31
ENDBRANCH  29  30
ENDBRANCH  28  29
ENDBRANCH  27  28
ENDBRANCH  26  27
ENDBRANCH  25  26
ENDBRANCH  24  25
ENDBRANCH  23  24
ENDBRANCH  22  23
ENDBRANCH  21  22
ENDBRANCH  20  21
ENDBRANCH  19  20
ENDBRANCH  18  19
ENDBRANCH  17  18
ENDBRANCH  16  17
ENDBRANCH  15  16
ENDBRANCH  14  15
ENDBRANCH  13  14
ENDBRANCH  12  13
ENDBRANCH  11  12
ENDBRANCH  10  11
ENDBRANCH   9  10
ENDBRANCH   8   9
ENDBRANCH   7   8
ENDBRANCH   6   7
ENDBRANCH   5   6
ENDBRANCH   4   5
ENDBRANCH   3   4
ENDBRANCH   2   3
TORSDOF 37
ENDMDL
MODEL      128
REMARK 921   NORMALIZED FREE ENERGY PREDICTED BY IDOCK:   -2.98 KCAL/MOL
REMARK 922        TOTAL FREE ENERGY PREDICTED BY IDOCK:  -13.06 KCAL/MOL
REMARK 923 INTER-LIGAND FREE ENERGY PREDICTED BY IDOCK:  -10.73 KCAL/MOL
REMARK 924 INTRA-LIGAND FREE ENERGY PREDICTED BY IDOCK:   -2.33 KCAL/MOL
REMARK 927      BINDING AFFINITY PREDICTED BY RF-SCORE:    0.00 PKD
ROOT
HETATM    1  C   UNL     1     -13.109  16.032  73.511  1.00  0.00    -0.665 C  
HETATM    2  C   UNL     1     -13.218  14.846  72.568  1.00  0.00    -0.499 C  
ENDROOT
BRANCH   2   3
HETATM    3  C   UNL     1     -13.221  15.301  71.112  1.00  0.00    -0.567 C  
BRANCH   3   4
HETATM    4  C   UNL     1     -13.006  14.123  70.163  1.00  0.00     0.039 C  
BRANCH   4   5
HETATM    5  C   UNL     1     -11.731  14.314  69.346  1.00  0.00    -0.363 C  
BRANCH   5   6
HETATM    6  C   UNL     1     -10.713  15.152  70.110  1.00  0.00    -0.245 C  
BRANCH   6   7
HETATM    7  C   UNL     1      -9.824  15.932  69.147  1.00  0.00    -0.247 C  
BRANCH   7   8
HETATM    8  C   UNL     1      -8.761  15.024  68.542  1.00  0.00    -0.175 C  
BRANCH   8   9
HETATM    9  C   UNL     1      -7.429  15.186  69.267  1.00  0.00    -0.193 C  
BRANCH   9  10
HETATM   10  C   UNL     1      -6.373  15.725  68.311  1.00  0.00    -0.120 C  
BRANCH  10  11
HETATM   11  C   UNL     1      -6.992  16.149  66.988  1.00  0.00    -0.234 C  
BRANCH  11  12
HETATM   12  C   UNL     1      -7.130  17.661  66.928  1.00  0.00    -0.185 C  
BRANCH  12  13
HETATM   13  O   UNL     1      -8.176  17.974  66.018  1.00  0.00    -0.485 OA 
BRANCH  13  14
HETATM   14  C   UNL     1      -9.288  18.539  66.705  1.00  0.00    -0.310 C  
BRANCH  14  15
HETATM   15  C   UNL     1     -10.564  17.871  66.224  1.00  0.00    -0.240 C  
BRANCH  15  16
HETATM   16  O   UNL     1     -10.222  16.936  65.207  1.00  0.00    -0.607 OA 
BRANCH  16  17
HETATM   17  C   UNL     1     -10.960  15.727  65.347  1.00  0.00    -0.309 C  
BRANCH  17  18
HETATM   18  C   UNL     1     -12.157  15.782  64.412  1.00  0.00    -0.007 C  
BRANCH  18  19
HETATM   19  O   UNL     1     -12.418  14.474  63.921  1.00  0.00    -0.814 OA 
BRANCH  19  20
HETATM   20  C   UNL     1     -11.480  13.525  64.432  1.00  0.00    -0.394 C  
BRANCH  20  21
HETATM   21  C   UNL     1     -12.068  12.128  64.277  1.00  0.00    -0.375 C  
BRANCH  21  22
HETATM   22  O   UNL     1     -11.354  11.441  63.246  1.00  0.00    -0.269 OA 
BRANCH  22  23
HETATM   23  C   UNL     1      -9.956  11.412  63.510  1.00  0.00    -0.388 C  
BRANCH  23  24
HETATM   24  C   UNL     1      -9.650  10.234  64.422  1.00  0.00    -0.316 C  
BRANCH  24  25
HETATM   25  O   UNL     1      -8.370  10.435  65.015  1.00  0.00    -0.164 OA 
BRANCH  25  26
HETATM   26  C   UNL     1      -7.969   9.302  65.775  1.00  0.00    -0.109 C  
BRANCH  26  27
HETATM   27  C   UNL     1      -9.207   8.500  66.150  1.00  0.00    -0.211 C  
BRANCH  27  28
HETATM   28  O   UNL     1      -8.884   7.616  67.218  1.00  0.00    -0.119 OA 
BRANCH  28  29
HETATM   29  C   UNL     1      -8.998   8.269  68.478  1.00  0.00    -0.137 C  
BRANCH  29  30
HETATM   30  C   UNL     1     -10.421   8.107  68.989  1.00  0.00    -0.198 C  
BRANCH  30  31
HETATM   31  O   UNL     1     -10.875   6.792  68.687  1.00  0.00    -0.230 OA 
BRANCH  31  32
HETATM   32  C   UNL     1     -11.199   6.071  69.873  1.00  0.00    -0.368 C  
BRANCH  32  33
HETATM   33  C   UNL     1     -10.036   5.157  70.230  1.00  0.00    -0.268 C  
BRANCH  33  34
HETATM   34  O   UNL     1      -9.333   4.806  69.041  1.00  0.00    -0.115 OA 
BRANCH  34  35
HETATM   35  C   UNL     1      -9.048   3.411  68.996  1.00  0.00    -0.143 C  
BRANCH  35  36
HETATM   36  C   UNL     1      -9.167   2.928  67.557  1.00  0.00    -0.193 C  
BRANCH  36  37
HETATM   37  O   UNL     1      -8.533   3.862  66.683  1.00  0.00    -0.103 OA 
BRANCH  37  38
HETATM   38  C   UNL     1      -9.494   4.497  65.829  1.00  0.00    -0.172 C  
BRANCH  38  39
HETATM   39  C   UNL     1      -9.114   4.209  64.381  1.00  0.00    -0.147 C  
HETATM   40  O   UNL     1      -7.812   3.626  64.328  1.00  0.00    -0.083 OA 
HETATM   41  H   UNL     1      -7.575   3.447  63.426  1.00  0.00     0.000 HD 
ENDBRANCH  38  39
ENDBRANCH  37  38
ENDBRANCH  36  37
ENDBRANCH  35  36
ENDBRANCH  34  35
ENDBRANCH  33  34
ENDBRANCH  32  33
ENDBRANCH  31  32
ENDBRANCH  30  31
ENDBRANCH  29  30
ENDBRANCH  28  29
ENDBRANCH  27  28
ENDBRANCH  26  27
ENDBRANCH  25  26
ENDBRANCH  24  25
ENDBRANCH  23  24
ENDBRANCH  22  23
ENDBRANCH  21  22
ENDBRANCH  20  21
ENDBRANCH  19  20
ENDBRANCH  18  19
ENDBRANCH  17  18
ENDBRANCH  16  17
ENDBRANCH  15  16
ENDBRANCH  14  15
ENDBRANCH  13  14
ENDBRANCH  12  13
ENDBRANCH  11  12
ENDBRANCH  10  11
ENDBRANCH   9  10
ENDBRANCH   8   9
ENDBRANCH   7   8
ENDBRANCH   6   7
ENDBRANCH   5   6
ENDBRANCH   4   5
ENDBRANCH   3   4
ENDBRANCH   2   3
TORSDOF 37
ENDMDL
MODEL      129
REMARK 921   NORMALIZED FREE ENERGY PREDICTED BY IDOCK:   -2.97 KCAL/MOL
REMARK 922        TOTAL FREE ENERGY PREDICTED BY IDOCK:  -13.03 KCAL/MOL
REMARK 923 INTER-LIGAND FREE ENERGY PREDICTED BY IDOCK:   -9.44 KCAL/MOL
REMARK 924 INTRA-LIGAND FREE ENERGY PREDICTED BY IDOCK:   -3.60 KCAL/MOL
REMARK 927      BINDING AFFINITY PREDICTED BY RF-SCORE:    0.00 PKD
ROOT
HETATM    1  C   UNL     1     -10.159  18.228  68.990  1.00  0.00    -0.283 C  
HETATM    2  C   UNL     1      -9.274  19.259  68.310  1.00  0.00    -0.394 C  
ENDROOT
BRANCH   2   3
HETATM    3  C   UNL     1      -7.856  19.221  68.871  1.00  0.00    -0.367 C  
BRANCH   3   4
HETATM    4  C   UNL     1      -6.971  18.266  68.074  1.00  0.00    -0.222 C  
BRANCH   4   5
HETATM    5  C   UNL     1      -6.755  16.962  68.838  1.00  0.00    -0.199 C  
BRANCH   5   6
HETATM    6  C   UNL     1      -6.852  15.761  67.905  1.00  0.00    -0.161 C  
BRANCH   6   7
HETATM    7  C   UNL     1      -8.310  15.421  67.612  1.00  0.00    -0.174 C  
BRANCH   7   8
HETATM    8  C   UNL     1      -8.666  15.776  66.174  1.00  0.00    -0.293 C  
BRANCH   8   9
HETATM    9  C   UNL     1     -10.103  16.278  66.076  1.00  0.00    -0.377 C  
BRANCH   9  10
HETATM   10  C   UNL     1     -11.074  15.173  66.470  1.00  0.00    -0.305 C  
BRANCH  10  11
HETATM   11  C   UNL     1     -11.172  14.112  65.384  1.00  0.00    -0.325 C  
BRANCH  11  12
HETATM   12  C   UNL     1     -12.516  13.407  65.454  1.00  0.00    -0.494 C  
BRANCH  12  13
HETATM   13  O   UNL     1     -12.277  12.005  65.497  1.00  0.00    -0.483 OA 
BRANCH  13  14
HETATM   14  C   UNL     1     -10.970  11.732  65.992  1.00  0.00    -0.306 C  
BRANCH  14  15
HETATM   15  C   UNL     1     -11.071  11.228  67.420  1.00  0.00    -0.297 C  
BRANCH  15  16
HETATM   16  O   UNL     1     -10.551  12.231  68.285  1.00  0.00    -0.211 OA 
BRANCH  16  17
HETATM   17  C   UNL     1     -11.511  12.621  69.261  1.00  0.00    -0.294 C  
BRANCH  17  18
HETATM   18  C   UNL     1     -12.249  11.379  69.734  1.00  0.00    -0.265 C  
BRANCH  18  19
HETATM   19  O   UNL     1     -12.007  11.201  71.124  1.00  0.00    -0.255 OA 
BRANCH  19  20
HETATM   20  C   UNL     1     -13.043  10.434  71.742  1.00  0.00    -0.462 C  
BRANCH  20  21
HETATM   21  C   UNL     1     -12.640   8.965  71.721  1.00  0.00    -0.361 C  
BRANCH  21  22
HETATM   22  O   UNL     1     -11.230   8.874  71.946  1.00  0.00    -0.338 OA 
BRANCH  22  23
HETATM   23  C   UNL     1     -10.923   7.922  72.957  1.00  0.00    -0.333 C  
BRANCH  23  24
HETATM   24  C   UNL     1      -9.717   7.106  72.518  1.00  0.00    -0.154 C  
BRANCH  24  25
HETATM   25  O   UNL     1      -9.933   5.742  72.872  1.00  0.00    -0.172 OA 
BRANCH  25  26
HETATM   26  C   UNL     1     -10.866   5.123  71.995  1.00  0.00    -0.125 C  
BRANCH  26  27
HETATM   27  C   UNL     1     -10.328   5.200  70.574  1.00  0.00    -0.243 C  
BRANCH  27  28
HETATM   28  O   UNL     1     -11.280   5.867  69.752  1.00  0.00    -0.389 OA 
BRANCH  28  29
HETATM   29  C   UNL     1     -10.646   6.819  68.903  1.00  0.00    -0.228 C  
BRANCH  29  30
HETATM   30  C   UNL     1      -9.858   6.080  67.834  1.00  0.00    -0.120 C  
BRANCH  30  31
HETATM   31  O   UNL     1      -8.620   6.750  67.624  1.00  0.00    -0.121 OA 
BRANCH  31  32
HETATM   32  C   UNL     1      -7.516   5.868  67.811  1.00  0.00    -0.078 C  
BRANCH  32  33
HETATM   33  C   UNL     1      -7.080   5.921  69.268  1.00  0.00    -0.066 C  
BRANCH  33  34
HETATM   34  O   UNL     1      -6.429   7.164  69.517  1.00  0.00    -0.038 OA 
BRANCH  34  35
HETATM   35  C   UNL     1      -7.137   7.937  70.483  1.00  0.00    -0.046 C  
BRANCH  35  36
HETATM   36  C   UNL     1      -7.673   9.194  69.811  1.00  0.00    -0.082 C  
BRANCH  36  37
HETATM   37  O   UNL     1      -6.598   9.907  69.197  1.00  0.00    -0.051 OA 
BRANCH  37  38
HETATM   38  C   UNL     1      -6.753  11.321  69.378  1.00  0.00    -0.123 C  
BRANCH  38  39
HETATM   39  C   UNL     1      -6.447  12.010  68.053  1.00  0.00    -0.061 C  
HETATM   40  O   UNL     1      -7.617  12.036  67.237  1.00  0.00    -0.141 OA 
HETATM   41  H   UNL     1      -7.427  12.465  66.412  1.00  0.00     0.000 HD 
ENDBRANCH  38  39
ENDBRANCH  37  38
ENDBRANCH  36  37
ENDBRANCH  35  36
ENDBRANCH  34  35
ENDBRANCH  33  34
ENDBRANCH  32  33
ENDBRANCH  31  32
ENDBRANCH  30  31
ENDBRANCH  29  30
ENDBRANCH  28  29
ENDBRANCH  27  28
ENDBRANCH  26  27
ENDBRANCH  25  26
ENDBRANCH  24  25
ENDBRANCH  23  24
ENDBRANCH  22  23
ENDBRANCH  21  22
ENDBRANCH  20  21
ENDBRANCH  19  20
ENDBRANCH  18  19
ENDBRANCH  17  18
ENDBRANCH  16  17
ENDBRANCH  15  16
ENDBRANCH  14  15
ENDBRANCH  13  14
ENDBRANCH  12  13
ENDBRANCH  11  12
ENDBRANCH  10  11
ENDBRANCH   9  10
ENDBRANCH   8   9
ENDBRANCH   7   8
ENDBRANCH   6   7
ENDBRANCH   5   6
ENDBRANCH   4   5
ENDBRANCH   3   4
ENDBRANCH   2   3
TORSDOF 37
ENDMDL
MODEL      130
REMARK 921   NORMALIZED FREE ENERGY PREDICTED BY IDOCK:   -2.96 KCAL/MOL
REMARK 922        TOTAL FREE ENERGY PREDICTED BY IDOCK:  -12.98 KCAL/MOL
REMARK 923 INTER-LIGAND FREE ENERGY PREDICTED BY IDOCK:  -10.28 KCAL/MOL
REMARK 924 INTRA-LIGAND FREE ENERGY PREDICTED BY IDOCK:   -2.71 KCAL/MOL
REMARK 927      BINDING AFFINITY PREDICTED BY RF-SCORE:    0.00 PKD
ROOT
HETATM    1  C   UNL     1      -8.617  14.734  68.557  1.00  0.00    -0.168 C  
HETATM    2  C   UNL     1      -7.828  16.029  68.651  1.00  0.00    -0.179 C  
ENDROOT
BRANCH   2   3
HETATM    3  C   UNL     1      -6.580  15.849  69.509  1.00  0.00    -0.191 C  
BRANCH   3   4
HETATM    4  C   UNL     1      -5.335  16.365  68.790  1.00  0.00    -0.112 C  
BRANCH   4   5
HETATM    5  C   UNL     1      -5.699  17.475  67.807  1.00  0.00    -0.146 C  
BRANCH   5   6
HETATM    6  C   UNL     1      -5.308  18.841  68.359  1.00  0.00    -0.188 C  
BRANCH   6   7
HETATM    7  C   UNL     1      -6.549  19.658  68.706  1.00  0.00    -0.337 C  
BRANCH   7   8
HETATM    8  C   UNL     1      -6.927  20.576  67.551  1.00  0.00    -0.370 C  
BRANCH   8   9
HETATM    9  C   UNL     1      -8.094  19.999  66.756  1.00  0.00    -0.356 C  
BRANCH   9  10
HETATM   10  C   UNL     1      -9.412  20.310  67.454  1.00  0.00    -0.547 C  
BRANCH  10  11
HETATM   11  C   UNL     1     -10.040  19.050  68.030  1.00  0.00    -0.458 C  
BRANCH  11  12
HETATM   12  C   UNL     1     -10.904  18.365  66.985  1.00  0.00    -0.182 C  
BRANCH  12  13
HETATM   13  O   UNL     1     -10.392  17.054  66.778  1.00  0.00    -0.309 OA 
BRANCH  13  14
HETATM   14  C   UNL     1     -10.575  16.651  65.425  1.00  0.00    -0.237 C  
BRANCH  14  15
HETATM   15  C   UNL     1     -10.628  15.135  65.358  1.00  0.00    -0.391 C  
BRANCH  15  16
HETATM   16  O   UNL     1     -11.575  14.680  66.318  1.00  0.00    -0.366 OA 
BRANCH  16  17
HETATM   17  C   UNL     1     -12.712  14.100  65.687  1.00  0.00    -0.441 C  
BRANCH  17  18
HETATM   18  C   UNL     1     -12.388  12.656  65.342  1.00  0.00    -0.436 C  
BRANCH  18  19
HETATM   19  O   UNL     1     -12.099  11.949  66.541  1.00  0.00    -0.568 OA 
BRANCH  19  20
HETATM   20  C   UNL     1     -10.824  11.307  66.478  1.00  0.00    -0.265 C  
BRANCH  20  21
HETATM   21  C   UNL     1     -10.389  11.236  65.019  1.00  0.00    -0.301 C  
BRANCH  21  22
HETATM   22  O   UNL     1      -9.529  10.104  64.852  1.00  0.00    -0.242 OA 
BRANCH  22  23
HETATM   23  C   UNL     1      -9.396   9.368  66.062  1.00  0.00    -0.220 C  
BRANCH  23  24
HETATM   24  C   UNL     1      -8.643   8.078  65.774  1.00  0.00    -0.153 C  
BRANCH  24  25
HETATM   25  O   UNL     1      -7.573   7.954  66.708  1.00  0.00    -0.094 OA 
BRANCH  25  26
HETATM   26  C   UNL     1      -7.439   6.614  67.164  1.00  0.00    -0.088 C  
BRANCH  26  27
HETATM   27  C   UNL     1      -8.726   5.861  66.860  1.00  0.00    -0.111 C  
BRANCH  27  28
HETATM   28  O   UNL     1      -9.347   5.487  68.085  1.00  0.00    -0.108 OA 
BRANCH  28  29
HETATM   29  C   UNL     1      -8.385   5.021  69.026  1.00  0.00    -0.086 C  
BRANCH  29  30
HETATM   30  C   UNL     1      -9.033   4.952  70.400  1.00  0.00    -0.112 C  
BRANCH  30  31
HETATM   31  O   UNL     1     -10.384   5.392  70.298  1.00  0.00    -0.249 OA 
BRANCH  31  32
HETATM   32  C   UNL     1     -10.918   5.723  71.577  1.00  0.00    -0.239 C  
BRANCH  32  33
HETATM   33  C   UNL     1     -11.887   6.886  71.422  1.00  0.00    -0.330 C  
BRANCH  33  34
HETATM   34  O   UNL     1     -11.312   8.055  71.998  1.00  0.00    -0.265 OA 
BRANCH  34  35
HETATM   35  C   UNL     1     -10.603   7.751  73.196  1.00  0.00    -0.352 C  
BRANCH  35  36
HETATM   36  C   UNL     1      -9.139   8.127  73.013  1.00  0.00    -0.274 C  
BRANCH  36  37
HETATM   37  O   UNL     1      -8.942   8.671  71.707  1.00  0.00    -0.205 OA 
BRANCH  37  38
HETATM   38  C   UNL     1      -7.702   8.219  71.147  1.00  0.00    -0.094 C  
BRANCH  38  39
HETATM   39  C   UNL     1      -7.264   9.219  70.084  1.00  0.00    -0.083 C  
HETATM   40  O   UNL     1      -7.343  10.546  70.603  1.00  0.00    -0.424 OA 
HETATM   41  H   UNL     1      -7.070  11.169  69.940  1.00  0.00     0.000 HD 
ENDBRANCH  38  39
ENDBRANCH  37  38
ENDBRANCH  36  37
ENDBRANCH  35  36
ENDBRANCH  34  35
ENDBRANCH  33  34
ENDBRANCH  32  33
ENDBRANCH  31  32
ENDBRANCH  30  31
ENDBRANCH  29  30
ENDBRANCH  28  29
ENDBRANCH  27  28
ENDBRANCH  26  27
ENDBRANCH  25  26
ENDBRANCH  24  25
ENDBRANCH  23  24
ENDBRANCH  22  23
ENDBRANCH  21  22
ENDBRANCH  20  21
ENDBRANCH  19  20
ENDBRANCH  18  19
ENDBRANCH  17  18
ENDBRANCH  16  17
ENDBRANCH  15  16
ENDBRANCH  14  15
ENDBRANCH  13  14
ENDBRANCH  12  13
ENDBRANCH  11  12
ENDBRANCH  10  11
ENDBRANCH   9  10
ENDBRANCH   8   9
ENDBRANCH   7   8
ENDBRANCH   6   7
ENDBRANCH   5   6
ENDBRANCH   4   5
ENDBRANCH   3   4
ENDBRANCH   2   3
TORSDOF 37
ENDMDL
MODEL      131
REMARK 921   NORMALIZED FREE ENERGY PREDICTED BY IDOCK:   -2.95 KCAL/MOL
REMARK 922        TOTAL FREE ENERGY PREDICTED BY IDOCK:  -12.95 KCAL/MOL
REMARK 923 INTER-LIGAND FREE ENERGY PREDICTED BY IDOCK:   -8.83 KCAL/MOL
REMARK 924 INTRA-LIGAND FREE ENERGY PREDICTED BY IDOCK:   -4.12 KCAL/MOL
REMARK 927      BINDING AFFINITY PREDICTED BY RF-SCORE:    0.00 PKD
ROOT
HETATM    1  C   UNL     1     -11.655   5.976  71.748  1.00  0.00    -0.288 C  
HETATM    2  C   UNL     1     -11.696   7.493  71.683  1.00  0.00    -0.313 C  
ENDROOT
BRANCH   2   3
HETATM    3  C   UNL     1     -10.987   8.112  72.885  1.00  0.00    -0.307 C  
BRANCH   3   4
HETATM    4  C   UNL     1     -10.288   7.046  73.725  1.00  0.00    -0.408 C  
BRANCH   4   5
HETATM    5  C   UNL     1      -8.855   7.462  74.045  1.00  0.00    -0.277 C  
BRANCH   5   6
HETATM    6  C   UNL     1      -7.880   6.882  73.026  1.00  0.00    -0.104 C  
BRANCH   6   7
HETATM    7  C   UNL     1      -7.236   7.993  72.203  1.00  0.00    -0.094 C  
BRANCH   7   8
HETATM    8  C   UNL     1      -7.891   8.093  70.832  1.00  0.00    -0.091 C  
BRANCH   8   9
HETATM    9  C   UNL     1      -8.294   6.715  70.317  1.00  0.00    -0.134 C  
BRANCH   9  10
HETATM   10  C   UNL     1      -8.851   6.823  68.904  1.00  0.00    -0.128 C  
BRANCH  10  11
HETATM   11  C   UNL     1      -9.805   5.678  68.598  1.00  0.00    -0.190 C  
BRANCH  11  12
HETATM   12  C   UNL     1     -10.839   6.112  67.573  1.00  0.00    -0.332 C  
BRANCH  12  13
HETATM   13  O   UNL     1     -10.485   5.541  66.320  1.00  0.00    -0.219 OA 
BRANCH  13  14
HETATM   14  C   UNL     1      -9.527   4.502  66.493  1.00  0.00    -0.173 C  
BRANCH  14  15
HETATM   15  C   UNL     1      -8.332   4.769  65.595  1.00  0.00    -0.118 C  
BRANCH  15  16
HETATM   16  O   UNL     1      -8.587   5.959  64.857  1.00  0.00    -0.127 OA 
BRANCH  16  17
HETATM   17  C   UNL     1      -7.375   6.613  64.497  1.00  0.00    -0.086 C  
BRANCH  17  18
HETATM   18  C   UNL     1      -6.598   6.921  65.766  1.00  0.00    -0.051 C  
BRANCH  18  19
HETATM   19  O   UNL     1      -5.867   8.126  65.577  1.00  0.00    -0.040 OA 
BRANCH  19  20
HETATM   20  C   UNL     1      -6.528   9.002  64.661  1.00  0.00    -0.070 C  
BRANCH  20  21
HETATM   21  C   UNL     1      -6.799  10.326  65.366  1.00  0.00    -0.140 C  
BRANCH  21  22
HETATM   22  O   UNL     1      -7.957  10.176  66.193  1.00  0.00    -0.116 OA 
BRANCH  22  23
HETATM   23  C   UNL     1      -7.634  10.310  67.572  1.00  0.00    -0.094 C  
BRANCH  23  24
HETATM   24  C   UNL     1      -8.849  10.843  68.314  1.00  0.00    -0.140 C  
BRANCH  24  25
HETATM   25  O   UNL     1     -10.004  10.135  67.870  1.00  0.00    -0.155 OA 
BRANCH  25  26
HETATM   26  C   UNL     1     -10.853   9.799  68.960  1.00  0.00    -0.199 C  
BRANCH  26  27
HETATM   27  C   UNL     1     -11.503  11.070  69.486  1.00  0.00    -0.299 C  
BRANCH  27  28
HETATM   28  O   UNL     1     -12.280  11.660  68.448  1.00  0.00    -0.498 OA 
BRANCH  28  29
HETATM   29  C   UNL     1     -11.914  13.020  68.243  1.00  0.00    -0.267 C  
BRANCH  29  30
HETATM   30  C   UNL     1     -11.300  13.564  69.523  1.00  0.00    -0.202 C  
BRANCH  30  31
HETATM   31  O   UNL     1     -10.656  14.802  69.238  1.00  0.00    -0.239 OA 
BRANCH  31  32
HETATM   32  C   UNL     1     -11.483  15.644  68.438  1.00  0.00    -0.369 C  
BRANCH  32  33
HETATM   33  C   UNL     1     -10.637  16.265  67.336  1.00  0.00    -0.307 C  
BRANCH  33  34
HETATM   34  O   UNL     1     -10.896  15.588  66.109  1.00  0.00    -0.322 OA 
BRANCH  34  35
HETATM   35  C   UNL     1      -9.734  14.914  65.632  1.00  0.00    -0.291 C  
BRANCH  35  36
HETATM   36  C   UNL     1     -10.069  13.444  65.417  1.00  0.00    -0.254 C  
BRANCH  36  37
HETATM   37  O   UNL     1     -10.729  13.280  64.161  1.00  0.00    -0.405 OA 
BRANCH  37  38
HETATM   38  C   UNL     1     -10.129  12.220  63.405  1.00  0.00    -0.255 C  
BRANCH  38  39
HETATM   39  C   UNL     1     -10.592  10.891  63.992  1.00  0.00    -0.240 C  
HETATM   40  O   UNL     1      -9.721   9.843  63.568  1.00  0.00    -0.490 OA 
HETATM   41  H   UNL     1     -10.009   9.016  63.935  1.00  0.00     0.000 HD 
ENDBRANCH  38  39
ENDBRANCH  37  38
ENDBRANCH  36  37
ENDBRANCH  35  36
ENDBRANCH  34  35
ENDBRANCH  33  34
ENDBRANCH  32  33
ENDBRANCH  31  32
ENDBRANCH  30  31
ENDBRANCH  29  30
ENDBRANCH  28  29
ENDBRANCH  27  28
ENDBRANCH  26  27
ENDBRANCH  25  26
ENDBRANCH  24  25
ENDBRANCH  23  24
ENDBRANCH  22  23
ENDBRANCH  21  22
ENDBRANCH  20  21
ENDBRANCH  19  20
ENDBRANCH  18  19
ENDBRANCH  17  18
ENDBRANCH  16  17
ENDBRANCH  15  16
ENDBRANCH  14  15
ENDBRANCH  13  14
ENDBRANCH  12  13
ENDBRANCH  11  12
ENDBRANCH  10  11
ENDBRANCH   9  10
ENDBRANCH   8   9
ENDBRANCH   7   8
ENDBRANCH   6   7
ENDBRANCH   5   6
ENDBRANCH   4   5
ENDBRANCH   3   4
ENDBRANCH   2   3
TORSDOF 37
ENDMDL
MODEL      132
REMARK 921   NORMALIZED FREE ENERGY PREDICTED BY IDOCK:   -2.94 KCAL/MOL
REMARK 922        TOTAL FREE ENERGY PREDICTED BY IDOCK:  -12.93 KCAL/MOL
REMARK 923 INTER-LIGAND FREE ENERGY PREDICTED BY IDOCK:   -9.64 KCAL/MOL
REMARK 924 INTRA-LIGAND FREE ENERGY PREDICTED BY IDOCK:   -3.28 KCAL/MOL
REMARK 927      BINDING AFFINITY PREDICTED BY RF-SCORE:    0.00 PKD
ROOT
HETATM    1  C   UNL     1     -11.445   6.127  71.047  1.00  0.00    -0.316 C  
HETATM    2  C   UNL     1     -11.638   7.627  70.905  1.00  0.00    -0.299 C  
ENDROOT
BRANCH   2   3
HETATM    3  C   UNL     1     -11.346   8.345  72.220  1.00  0.00    -0.448 C  
BRANCH   3   4
HETATM    4  C   UNL     1     -10.665   7.413  73.220  1.00  0.00    -0.441 C  
BRANCH   4   5
HETATM    5  C   UNL     1      -9.245   7.887  73.521  1.00  0.00    -0.340 C  
BRANCH   5   6
HETATM    6  C   UNL     1      -8.250   7.287  72.535  1.00  0.00    -0.122 C  
BRANCH   6   7
HETATM    7  C   UNL     1      -7.504   8.386  71.786  1.00  0.00    -0.124 C  
BRANCH   7   8
HETATM    8  C   UNL     1      -8.111   8.602  70.405  1.00  0.00    -0.107 C  
BRANCH   8   9
HETATM    9  C   UNL     1      -7.879   7.387  69.512  1.00  0.00    -0.121 C  
BRANCH   9  10
HETATM   10  C   UNL     1      -8.842   7.411  68.332  1.00  0.00    -0.121 C  
BRANCH  10  11
HETATM   11  C   UNL     1      -9.370   6.018  68.024  1.00  0.00    -0.114 C  
BRANCH  11  12
HETATM   12  C   UNL     1     -10.700   6.107  67.294  1.00  0.00    -0.335 C  
BRANCH  12  13
HETATM   13  O   UNL     1     -10.670   5.188  66.208  1.00  0.00    -0.310 OA 
BRANCH  13  14
HETATM   14  C   UNL     1      -9.845   4.070  66.518  1.00  0.00    -0.152 C  
BRANCH  14  15
HETATM   15  C   UNL     1      -9.002   3.720  65.305  1.00  0.00    -0.133 C  
BRANCH  15  16
HETATM   16  O   UNL     1      -9.503   4.447  64.190  1.00  0.00    -0.156 OA 
BRANCH  16  17
HETATM   17  C   UNL     1      -8.447   5.030  63.434  1.00  0.00    -0.123 C  
BRANCH  17  18
HETATM   18  C   UNL     1      -7.599   5.880  64.368  1.00  0.00    -0.087 C  
BRANCH  18  19
HETATM   19  O   UNL     1      -7.158   7.034  63.665  1.00  0.00    -0.054 OA 
BRANCH  19  20
HETATM   20  C   UNL     1      -8.118   7.456  62.694  1.00  0.00    -0.088 C  
BRANCH  20  21
HETATM   21  C   UNL     1      -8.219   8.976  62.739  1.00  0.00    -0.184 C  
BRANCH  21  22
HETATM   22  O   UNL     1      -8.919   9.353  63.929  1.00  0.00    -0.216 OA 
BRANCH  22  23
HETATM   23  C   UNL     1      -8.128  10.201  64.753  1.00  0.00    -0.153 C  
BRANCH  23  24
HETATM   24  C   UNL     1      -9.047  10.998  65.667  1.00  0.00    -0.206 C  
BRANCH  24  25
HETATM   25  O   UNL     1     -10.247  10.257  65.868  1.00  0.00    -0.254 OA 
BRANCH  25  26
HETATM   26  C   UNL     1     -10.652  10.292  67.231  1.00  0.00    -0.267 C  
BRANCH  26  27
HETATM   27  C   UNL     1     -10.949  11.733  67.618  1.00  0.00    -0.233 C  
BRANCH  27  28
HETATM   28  O   UNL     1     -12.101  12.177  66.909  1.00  0.00    -0.600 OA 
BRANCH  28  29
HETATM   29  C   UNL     1     -11.842  13.395  66.219  1.00  0.00    -0.394 C  
BRANCH  29  30
HETATM   30  C   UNL     1     -11.031  14.311  67.123  1.00  0.00    -0.302 C  
BRANCH  30  31
HETATM   31  O   UNL     1     -11.262  15.662  66.740  1.00  0.00    -0.231 OA 
BRANCH  31  32
HETATM   32  C   UNL     1     -10.041  16.393  66.657  1.00  0.00    -0.284 C  
BRANCH  32  33
HETATM   33  C   UNL     1     -10.170  17.667  67.479  1.00  0.00    -0.348 C  
BRANCH  33  34
HETATM   34  O   UNL     1      -9.014  18.476  67.276  1.00  0.00    -0.265 OA 
BRANCH  34  35
HETATM   35  C   UNL     1      -8.243  18.592  68.469  1.00  0.00    -0.335 C  
BRANCH  35  36
HETATM   36  C   UNL     1      -6.765  18.545  68.108  1.00  0.00    -0.223 C  
BRANCH  36  37
HETATM   37  O   UNL     1      -6.395  19.751  67.437  1.00  0.00    -0.189 OA 
BRANCH  37  38
HETATM   38  C   UNL     1      -5.654  19.465  66.244  1.00  0.00    -0.156 C  
BRANCH  38  39
HETATM   39  C   UNL     1      -6.480  19.921  65.046  1.00  0.00    -0.284 C  
HETATM   40  O   UNL     1      -7.709  20.492  65.492  1.00  0.00    -0.526 OA 
HETATM   41  H   UNL     1      -8.223  20.776  64.746  1.00  0.00     0.000 HD 
ENDBRANCH  38  39
ENDBRANCH  37  38
ENDBRANCH  36  37
ENDBRANCH  35  36
ENDBRANCH  34  35
ENDBRANCH  33  34
ENDBRANCH  32  33
ENDBRANCH  31  32
ENDBRANCH  30  31
ENDBRANCH  29  30
ENDBRANCH  28  29
ENDBRANCH  27  28
ENDBRANCH  26  27
ENDBRANCH  25  26
ENDBRANCH  24  25
ENDBRANCH  23  24
ENDBRANCH  22  23
ENDBRANCH  21  22
ENDBRANCH  20  21
ENDBRANCH  19  20
ENDBRANCH  18  19
ENDBRANCH  17  18
ENDBRANCH  16  17
ENDBRANCH  15  16
ENDBRANCH  14  15
ENDBRANCH  13  14
ENDBRANCH  12  13
ENDBRANCH  11  12
ENDBRANCH  10  11
ENDBRANCH   9  10
ENDBRANCH   8   9
ENDBRANCH   7   8
ENDBRANCH   6   7
ENDBRANCH   5   6
ENDBRANCH   4   5
ENDBRANCH   3   4
ENDBRANCH   2   3
TORSDOF 37
ENDMDL
MODEL      133
REMARK 921   NORMALIZED FREE ENERGY PREDICTED BY IDOCK:   -2.94 KCAL/MOL
REMARK 922        TOTAL FREE ENERGY PREDICTED BY IDOCK:  -12.92 KCAL/MOL
REMARK 923 INTER-LIGAND FREE ENERGY PREDICTED BY IDOCK:   -9.98 KCAL/MOL
REMARK 924 INTRA-LIGAND FREE ENERGY PREDICTED BY IDOCK:   -2.94 KCAL/MOL
REMARK 927      BINDING AFFINITY PREDICTED BY RF-SCORE:    0.00 PKD
ROOT
HETATM    1  C   UNL     1     -10.710  10.175  70.059  1.00  0.00    -0.356 C  
HETATM    2  C   UNL     1     -11.941  11.008  69.745  1.00  0.00    -0.428 C  
ENDROOT
BRANCH   2   3
HETATM    3  C   UNL     1     -13.017  10.820  70.811  1.00  0.00    -0.348 C  
BRANCH   3   4
HETATM    4  C   UNL     1     -12.632   9.720  71.798  1.00  0.00    -0.506 C  
BRANCH   4   5
HETATM    5  C   UNL     1     -13.846   8.866  72.156  1.00  0.00    -0.531 C  
BRANCH   5   6
HETATM    6  C   UNL     1     -13.826   7.545  71.397  1.00  0.00    -0.439 C  
BRANCH   6   7
HETATM    7  C   UNL     1     -12.393   7.066  71.186  1.00  0.00    -0.423 C  
BRANCH   7   8
HETATM    8  C   UNL     1     -12.000   6.059  72.260  1.00  0.00    -0.259 C  
BRANCH   8   9
HETATM    9  C   UNL     1     -10.899   6.619  73.155  1.00  0.00    -0.298 C  
BRANCH   9  10
HETATM   10  C   UNL     1      -9.957   7.498  72.343  1.00  0.00    -0.233 C  
BRANCH  10  11
HETATM   11  C   UNL     1      -8.723   6.724  71.903  1.00  0.00    -0.123 C  
BRANCH  11  12
HETATM   12  C   UNL     1      -8.570   5.459  72.730  1.00  0.00    -0.119 C  
BRANCH  12  13
HETATM   13  O   UNL     1      -8.858   4.346  71.893  1.00  0.00    -0.113 OA 
BRANCH  13  14
HETATM   14  C   UNL     1      -8.520   4.633  70.540  1.00  0.00    -0.090 C  
BRANCH  14  15
HETATM   15  C   UNL     1      -9.666   4.214  69.638  1.00  0.00    -0.199 C  
BRANCH  15  16
HETATM   16  O   UNL     1      -9.449   2.865  69.239  1.00  0.00    -0.152 OA 
BRANCH  16  17
HETATM   17  C   UNL     1      -9.195   2.773  67.842  1.00  0.00    -0.204 C  
BRANCH  17  18
HETATM   18  C   UNL     1      -9.711   4.037  67.174  1.00  0.00    -0.166 C  
BRANCH  18  19
HETATM   19  O   UNL     1      -8.660   4.618  66.413  1.00  0.00    -0.113 OA 
BRANCH  19  20
HETATM   20  C   UNL     1      -9.073   5.837  65.792  1.00  0.00    -0.109 C  
BRANCH  20  21
HETATM   21  C   UNL     1      -7.831   6.634  65.412  1.00  0.00    -0.111 C  
BRANCH  21  22
HETATM   22  O   UNL     1      -7.131   6.989  66.607  1.00  0.00    -0.073 OA 
BRANCH  22  23
HETATM   23  C   UNL     1      -7.880   7.903  67.399  1.00  0.00    -0.121 C  
BRANCH  23  24
HETATM   24  C   UNL     1      -7.919   9.250  66.695  1.00  0.00    -0.108 C  
BRANCH  24  25
HETATM   25  O   UNL     1      -9.277   9.588  66.426  1.00  0.00    -0.150 OA 
BRANCH  25  26
HETATM   26  C   UNL     1      -9.466  10.997  66.414  1.00  0.00    -0.193 C  
BRANCH  26  27
HETATM   27  C   UNL     1     -10.781  11.309  65.716  1.00  0.00    -0.223 C  
BRANCH  27  28
HETATM   28  O   UNL     1     -10.553  12.289  64.708  1.00  0.00    -0.275 OA 
BRANCH  28  29
HETATM   29  C   UNL     1     -11.779  12.734  64.138  1.00  0.00    -0.401 C  
BRANCH  29  30
HETATM   30  C   UNL     1     -11.963  14.210  64.454  1.00  0.00    -0.457 C  
BRANCH  30  31
HETATM   31  O   UNL     1     -10.696  14.778  64.766  1.00  0.00    -0.407 OA 
BRANCH  31  32
HETATM   32  C   UNL     1     -10.765  15.585  65.939  1.00  0.00    -0.339 C  
BRANCH  32  33
HETATM   33  C   UNL     1     -10.914  14.681  67.154  1.00  0.00    -0.316 C  
BRANCH  33  34
HETATM   34  O   UNL     1      -9.980  15.081  68.153  1.00  0.00    -0.215 OA 
BRANCH  34  35
HETATM   35  C   UNL     1      -8.673  14.589  67.871  1.00  0.00    -0.165 C  
BRANCH  35  36
HETATM   36  C   UNL     1      -7.658  15.683  68.173  1.00  0.00    -0.120 C  
BRANCH  36  37
HETATM   37  O   UNL     1      -8.338  16.914  68.423  1.00  0.00    -0.218 OA 
BRANCH  37  38
HETATM   38  C   UNL     1      -7.475  18.033  68.181  1.00  0.00    -0.249 C  
BRANCH  38  39
HETATM   39  C   UNL     1      -8.291  19.131  67.509  1.00  0.00    -0.287 C  
HETATM   40  O   UNL     1      -9.367  19.526  68.359  1.00  0.00    -0.342 OA 
HETATM   41  H   UNL     1      -9.875  20.210  67.940  1.00  0.00     0.000 HD 
ENDBRANCH  38  39
ENDBRANCH  37  38
ENDBRANCH  36  37
ENDBRANCH  35  36
ENDBRANCH  34  35
ENDBRANCH  33  34
ENDBRANCH  32  33
ENDBRANCH  31  32
ENDBRANCH  30  31
ENDBRANCH  29  30
ENDBRANCH  28  29
ENDBRANCH  27  28
ENDBRANCH  26  27
ENDBRANCH  25  26
ENDBRANCH  24  25
ENDBRANCH  23  24
ENDBRANCH  22  23
ENDBRANCH  21  22
ENDBRANCH  20  21
ENDBRANCH  19  20
ENDBRANCH  18  19
ENDBRANCH  17  18
ENDBRANCH  16  17
ENDBRANCH  15  16
ENDBRANCH  14  15
ENDBRANCH  13  14
ENDBRANCH  12  13
ENDBRANCH  11  12
ENDBRANCH  10  11
ENDBRANCH   9  10
ENDBRANCH   8   9
ENDBRANCH   7   8
ENDBRANCH   6   7
ENDBRANCH   5   6
ENDBRANCH   4   5
ENDBRANCH   3   4
ENDBRANCH   2   3
TORSDOF 37
ENDMDL
MODEL      134
REMARK 921   NORMALIZED FREE ENERGY PREDICTED BY IDOCK:   -2.93 KCAL/MOL
REMARK 922        TOTAL FREE ENERGY PREDICTED BY IDOCK:  -12.88 KCAL/MOL
REMARK 923 INTER-LIGAND FREE ENERGY PREDICTED BY IDOCK:   -9.32 KCAL/MOL
REMARK 924 INTRA-LIGAND FREE ENERGY PREDICTED BY IDOCK:   -3.56 KCAL/MOL
REMARK 927      BINDING AFFINITY PREDICTED BY RF-SCORE:    0.00 PKD
ROOT
HETATM    1  C   UNL     1      -5.533   6.321  67.997  1.00  0.00    -0.004 C  
HETATM    2  C   UNL     1      -6.927   6.525  67.428  1.00  0.00    -0.078 C  
ENDROOT
BRANCH   2   3
HETATM    3  C   UNL     1      -6.866   7.168  66.045  1.00  0.00    -0.057 C  
BRANCH   3   4
HETATM    4  C   UNL     1      -6.719   6.114  64.951  1.00  0.00    -0.043 C  
BRANCH   4   5
HETATM    5  C   UNL     1      -7.071   6.699  63.585  1.00  0.00    -0.056 C  
BRANCH   5   6
HETATM    6  C   UNL     1      -6.894   8.213  63.579  1.00  0.00    -0.076 C  
BRANCH   6   7
HETATM    7  C   UNL     1      -7.691   8.845  62.442  1.00  0.00    -0.117 C  
BRANCH   7   8
HETATM    8  C   UNL     1      -8.708   9.838  62.988  1.00  0.00    -0.228 C  
BRANCH   8   9
HETATM    9  C   UNL     1      -8.484  10.087  64.476  1.00  0.00    -0.180 C  
BRANCH   9  10
HETATM   10  C   UNL     1      -9.818  10.139  65.208  1.00  0.00    -0.388 C  
BRANCH  10  11
HETATM   11  C   UNL     1      -9.890   9.081  66.298  1.00  0.00    -0.361 C  
BRANCH  11  12
HETATM   12  C   UNL     1     -10.645   9.614  67.504  1.00  0.00    -0.277 C  
BRANCH  12  13
HETATM   13  O   UNL     1     -10.198   8.907  68.654  1.00  0.00    -0.190 OA 
BRANCH  13  14
HETATM   14  C   UNL     1     -10.920   9.320  69.810  1.00  0.00    -0.196 C  
BRANCH  14  15
HETATM   15  C   UNL     1     -11.488  10.708  69.576  1.00  0.00    -0.291 C  
BRANCH  15  16
HETATM   16  O   UNL     1     -12.537  10.924  70.513  1.00  0.00    -0.329 OA 
BRANCH  16  17
HETATM   17  C   UNL     1     -12.451  12.219  71.096  1.00  0.00    -0.226 C  
BRANCH  17  18
HETATM   18  C   UNL     1     -13.492  12.321  72.200  1.00  0.00    -0.327 C  
BRANCH  18  19
HETATM   19  O   UNL     1     -13.436  13.624  72.767  1.00  0.00    -0.624 OA 
BRANCH  19  20
HETATM   20  C   UNL     1     -14.340  14.518  72.115  1.00  0.00    -0.510 C  
BRANCH  20  21
HETATM   21  C   UNL     1     -13.530  15.590  71.396  1.00  0.00    -0.499 C  
BRANCH  21  22
HETATM   22  O   UNL     1     -12.211  15.614  71.948  1.00  0.00    -0.347 OA 
BRANCH  22  23
HETATM   23  C   UNL     1     -11.247  16.010  70.979  1.00  0.00    -0.302 C  
BRANCH  23  24
HETATM   24  C   UNL     1     -11.709  15.549  69.606  1.00  0.00    -0.357 C  
BRANCH  24  25
HETATM   25  O   UNL     1     -10.678  14.761  69.017  1.00  0.00    -0.235 OA 
BRANCH  25  26
HETATM   26  C   UNL     1     -11.123  14.142  67.816  1.00  0.00    -0.276 C  
BRANCH  26  27
HETATM   27  C   UNL     1      -9.909  13.710  67.008  1.00  0.00    -0.251 C  
BRANCH  27  28
HETATM   28  O   UNL     1      -9.064  12.909  67.829  1.00  0.00    -0.179 OA 
BRANCH  28  29
HETATM   29  C   UNL     1      -7.760  12.797  67.268  1.00  0.00    -0.127 C  
BRANCH  29  30
HETATM   30  C   UNL     1      -7.163  11.459  67.673  1.00  0.00    -0.097 C  
BRANCH  30  31
HETATM   31  O   UNL     1      -7.581  11.147  68.998  1.00  0.00    -0.123 OA 
BRANCH  31  32
HETATM   32  C   UNL     1      -6.589  10.393  69.690  1.00  0.00    -0.085 C  
BRANCH  32  33
HETATM   33  C   UNL     1      -7.217   9.106  70.206  1.00  0.00    -0.075 C  
BRANCH  33  34
HETATM   34  O   UNL     1      -7.430   9.219  71.611  1.00  0.00    -0.339 OA 
BRANCH  34  35
HETATM   35  C   UNL     1      -6.996   8.049  72.299  1.00  0.00    -0.082 C  
BRANCH  35  36
HETATM   36  C   UNL     1      -8.123   7.560  73.199  1.00  0.00    -0.116 C  
BRANCH  36  37
HETATM   37  O   UNL     1      -9.374   8.043  72.709  1.00  0.00    -0.206 OA 
BRANCH  37  38
HETATM   38  C   UNL     1     -10.461   7.530  73.491  1.00  0.00    -0.306 C  
BRANCH  38  39
HETATM   39  C   UNL     1     -10.586   6.036  73.214  1.00  0.00    -0.256 C  
HETATM   40  O   UNL     1     -11.963   5.664  73.166  1.00  0.00    -0.499 OA 
HETATM   41  H   UNL     1     -12.041   4.734  72.994  1.00  0.00     0.000 HD 
ENDBRANCH  38  39
ENDBRANCH  37  38
ENDBRANCH  36  37
ENDBRANCH  35  36
ENDBRANCH  34  35
ENDBRANCH  33  34
ENDBRANCH  32  33
ENDBRANCH  31  32
ENDBRANCH  30  31
ENDBRANCH  29  30
ENDBRANCH  28  29
ENDBRANCH  27  28
ENDBRANCH  26  27
ENDBRANCH  25  26
ENDBRANCH  24  25
ENDBRANCH  23  24
ENDBRANCH  22  23
ENDBRANCH  21  22
ENDBRANCH  20  21
ENDBRANCH  19  20
ENDBRANCH  18  19
ENDBRANCH  17  18
ENDBRANCH  16  17
ENDBRANCH  15  16
ENDBRANCH  14  15
ENDBRANCH  13  14
ENDBRANCH  12  13
ENDBRANCH  11  12
ENDBRANCH  10  11
ENDBRANCH   9  10
ENDBRANCH   8   9
ENDBRANCH   7   8
ENDBRANCH   6   7
ENDBRANCH   5   6
ENDBRANCH   4   5
ENDBRANCH   3   4
ENDBRANCH   2   3
TORSDOF 37
ENDMDL
MODEL      135
REMARK 921   NORMALIZED FREE ENERGY PREDICTED BY IDOCK:   -2.91 KCAL/MOL
REMARK 922        TOTAL FREE ENERGY PREDICTED BY IDOCK:  -12.84 KCAL/MOL
REMARK 923 INTER-LIGAND FREE ENERGY PREDICTED BY IDOCK:   -9.97 KCAL/MOL
REMARK 924 INTRA-LIGAND FREE ENERGY PREDICTED BY IDOCK:   -2.87 KCAL/MOL
REMARK 927      BINDING AFFINITY PREDICTED BY RF-SCORE:    0.00 PKD
ROOT
HETATM    1  C   UNL     1      -8.519  14.883  69.142  1.00  0.00    -0.152 C  
HETATM    2  C   UNL     1      -7.724  16.158  68.919  1.00  0.00    -0.207 C  
ENDROOT
BRANCH   2   3
HETATM    3  C   UNL     1      -6.225  15.897  69.038  1.00  0.00    -0.125 C  
BRANCH   3   4
HETATM    4  C   UNL     1      -5.518  16.112  67.701  1.00  0.00    -0.163 C  
BRANCH   4   5
HETATM    5  C   UNL     1      -5.978  17.413  67.049  1.00  0.00    -0.190 C  
BRANCH   5   6
HETATM    6  C   UNL     1      -5.311  18.617  67.706  1.00  0.00    -0.168 C  
BRANCH   6   7
HETATM    7  C   UNL     1      -6.355  19.542  68.322  1.00  0.00    -0.264 C  
BRANCH   7   8
HETATM    8  C   UNL     1      -6.851  20.551  67.294  1.00  0.00    -0.340 C  
BRANCH   8   9
HETATM    9  C   UNL     1      -8.099  20.037  66.583  1.00  0.00    -0.351 C  
BRANCH   9  10
HETATM   10  C   UNL     1      -9.347  20.422  67.367  1.00  0.00    -0.536 C  
BRANCH  10  11
HETATM   11  C   UNL     1      -9.924  19.225  68.107  1.00  0.00    -0.482 C  
BRANCH  11  12
HETATM   12  C   UNL     1     -10.896  18.471  67.216  1.00  0.00    -0.282 C  
BRANCH  12  13
HETATM   13  O   UNL     1     -10.280  17.251  66.822  1.00  0.00    -0.301 OA 
BRANCH  13  14
HETATM   14  C   UNL     1     -10.640  16.914  65.486  1.00  0.00    -0.202 C  
BRANCH  14  15
HETATM   15  C   UNL     1     -10.711  15.403  65.353  1.00  0.00    -0.400 C  
BRANCH  15  16
HETATM   16  O   UNL     1     -11.159  14.868  66.594  1.00  0.00    -0.322 OA 
BRANCH  16  17
HETATM   17  C   UNL     1     -12.331  14.079  66.423  1.00  0.00    -0.431 C  
BRANCH  17  18
HETATM   18  C   UNL     1     -11.952  12.614  66.578  1.00  0.00    -0.331 C  
BRANCH  18  19
HETATM   19  O   UNL     1     -12.269  12.194  67.899  1.00  0.00    -0.438 OA 
BRANCH  19  20
HETATM   20  C   UNL     1     -11.398  11.151  68.340  1.00  0.00    -0.288 C  
BRANCH  20  21
HETATM   21  C   UNL     1     -10.510  10.734  67.174  1.00  0.00    -0.237 C  
BRANCH  21  22
HETATM   22  O   UNL     1     -10.374   9.310  67.188  1.00  0.00    -0.236 OA 
BRANCH  22  23
HETATM   23  C   UNL     1      -9.331   8.877  66.324  1.00  0.00    -0.219 C  
BRANCH  23  24
HETATM   24  C   UNL     1      -8.203   8.295  67.163  1.00  0.00    -0.119 C  
BRANCH  24  25
HETATM   25  O   UNL     1      -8.091   6.903  66.878  1.00  0.00    -0.107 OA 
BRANCH  25  26
HETATM   26  C   UNL     1      -8.412   6.627  65.520  1.00  0.00    -0.131 C  
BRANCH  26  27
HETATM   27  C   UNL     1      -8.924   5.198  65.418  1.00  0.00    -0.156 C  
BRANCH  27  28
HETATM   28  O   UNL     1      -8.307   4.409  66.431  1.00  0.00    -0.106 OA 
BRANCH  28  29
HETATM   29  C   UNL     1      -9.198   3.410  66.916  1.00  0.00    -0.180 C  
BRANCH  29  30
HETATM   30  C   UNL     1      -9.614   3.766  68.335  1.00  0.00    -0.105 C  
BRANCH  30  31
HETATM   31  O   UNL     1      -8.499   4.333  69.016  1.00  0.00    -0.080 OA 
BRANCH  31  32
HETATM   32  C   UNL     1      -8.915   5.082  70.155  1.00  0.00    -0.111 C  
BRANCH  32  33
HETATM   33  C   UNL     1      -9.930   6.128  69.716  1.00  0.00    -0.170 C  
BRANCH  33  34
HETATM   34  O   UNL     1     -10.086   7.093  70.752  1.00  0.00    -0.190 OA 
BRANCH  34  35
HETATM   35  C   UNL     1      -9.578   8.365  70.359  1.00  0.00    -0.169 C  
BRANCH  35  36
HETATM   36  C   UNL     1     -10.182   9.437  71.256  1.00  0.00    -0.270 C  
BRANCH  36  37
HETATM   37  O   UNL     1     -11.297   8.897  71.967  1.00  0.00    -0.353 OA 
BRANCH  37  38
HETATM   38  C   UNL     1     -12.519   9.137  71.258  1.00  0.00    -0.300 C  
BRANCH  38  39
HETATM   39  C   UNL     1     -13.411   7.910  71.413  1.00  0.00    -0.244 C  
HETATM   40  O   UNL     1     -12.733   6.908  72.169  1.00  0.00    -0.517 OA 
HETATM   41  H   UNL     1     -13.289   6.145  72.265  1.00  0.00     0.000 HD 
ENDBRANCH  38  39
ENDBRANCH  37  38
ENDBRANCH  36  37
ENDBRANCH  35  36
ENDBRANCH  34  35
ENDBRANCH  33  34
ENDBRANCH  32  33
ENDBRANCH  31  32
ENDBRANCH  30  31
ENDBRANCH  29  30
ENDBRANCH  28  29
ENDBRANCH  27  28
ENDBRANCH  26  27
ENDBRANCH  25  26
ENDBRANCH  24  25
ENDBRANCH  23  24
ENDBRANCH  22  23
ENDBRANCH  21  22
ENDBRANCH  20  21
ENDBRANCH  19  20
ENDBRANCH  18  19
ENDBRANCH  17  18
ENDBRANCH  16  17
ENDBRANCH  15  16
ENDBRANCH  14  15
ENDBRANCH  13  14
ENDBRANCH  12  13
ENDBRANCH  11  12
ENDBRANCH  10  11
ENDBRANCH   9  10
ENDBRANCH   8   9
ENDBRANCH   7   8
ENDBRANCH   6   7
ENDBRANCH   5   6
ENDBRANCH   4   5
ENDBRANCH   3   4
ENDBRANCH   2   3
TORSDOF 37
ENDMDL
MODEL      136
REMARK 921   NORMALIZED FREE ENERGY PREDICTED BY IDOCK:   -2.91 KCAL/MOL
REMARK 922        TOTAL FREE ENERGY PREDICTED BY IDOCK:  -12.83 KCAL/MOL
REMARK 923 INTER-LIGAND FREE ENERGY PREDICTED BY IDOCK:  -10.01 KCAL/MOL
REMARK 924 INTRA-LIGAND FREE ENERGY PREDICTED BY IDOCK:   -2.81 KCAL/MOL
REMARK 927      BINDING AFFINITY PREDICTED BY RF-SCORE:    0.00 PKD
ROOT
HETATM    1  C   UNL     1      -8.828  14.562  68.515  1.00  0.00    -0.182 C  
HETATM    2  C   UNL     1      -8.072  15.845  68.816  1.00  0.00    -0.190 C  
ENDROOT
BRANCH   2   3
HETATM    3  C   UNL     1      -6.814  15.562  69.632  1.00  0.00    -0.178 C  
BRANCH   3   4
HETATM    4  C   UNL     1      -5.553  15.785  68.799  1.00  0.00    -0.100 C  
BRANCH   4   5
HETATM    5  C   UNL     1      -5.714  16.999  67.888  1.00  0.00    -0.130 C  
BRANCH   5   6
HETATM    6  C   UNL     1      -5.135  18.249  68.539  1.00  0.00    -0.165 C  
BRANCH   6   7
HETATM    7  C   UNL     1      -6.248  19.193  68.982  1.00  0.00    -0.287 C  
BRANCH   7   8
HETATM    8  C   UNL     1      -6.566  20.201  67.885  1.00  0.00    -0.298 C  
BRANCH   8   9
HETATM    9  C   UNL     1      -7.748  19.736  67.041  1.00  0.00    -0.304 C  
BRANCH   9  10
HETATM   10  C   UNL     1      -9.059  20.129  67.709  1.00  0.00    -0.403 C  
BRANCH  10  11
HETATM   11  C   UNL     1      -9.750  18.920  68.320  1.00  0.00    -0.412 C  
BRANCH  11  12
HETATM   12  C   UNL     1     -10.855  18.423  67.403  1.00  0.00    -0.268 C  
BRANCH  12  13
HETATM   13  O   UNL     1     -10.574  17.071  67.064  1.00  0.00    -0.303 OA 
BRANCH  13  14
HETATM   14  C   UNL     1     -10.574  16.897  65.651  1.00  0.00    -0.221 C  
BRANCH  14  15
HETATM   15  C   UNL     1     -10.530  15.413  65.330  1.00  0.00    -0.415 C  
BRANCH  15  16
HETATM   16  O   UNL     1     -11.781  14.842  65.697  1.00  0.00    -0.335 OA 
BRANCH  16  17
HETATM   17  C   UNL     1     -12.375  14.151  64.604  1.00  0.00    -0.410 C  
BRANCH  17  18
HETATM   18  C   UNL     1     -11.556  12.901  64.321  1.00  0.00    -0.378 C  
BRANCH  18  19
HETATM   19  O   UNL     1     -11.655  12.024  65.436  1.00  0.00    -0.343 OA 
BRANCH  19  20
HETATM   20  C   UNL     1     -10.405  11.392  65.719  1.00  0.00    -0.255 C  
BRANCH  20  21
HETATM   21  C   UNL     1      -9.975  10.595  64.494  1.00  0.00    -0.345 C  
BRANCH  21  22
HETATM   22  O   UNL     1      -8.776   9.882  64.809  1.00  0.00    -0.160 OA 
BRANCH  22  23
HETATM   23  C   UNL     1      -8.193  10.351  66.019  1.00  0.00    -0.144 C  
BRANCH  23  24
HETATM   24  C   UNL     1      -7.431   9.209  66.675  1.00  0.00    -0.086 C  
BRANCH  24  25
HETATM   25  O   UNL     1      -6.284   9.741  67.332  1.00  0.00    -0.058 OA 
BRANCH  25  26
HETATM   26  C   UNL     1      -6.550  10.002  68.704  1.00  0.00    -0.049 C  
BRANCH  26  27
HETATM   27  C   UNL     1      -7.135   8.749  69.337  1.00  0.00    -0.057 C  
BRANCH  27  28
HETATM   28  O   UNL     1      -8.271   9.108  70.117  1.00  0.00    -0.120 OA 
BRANCH  28  29
HETATM   29  C   UNL     1      -8.074   8.785  71.490  1.00  0.00    -0.122 C  
BRANCH  29  30
HETATM   30  C   UNL     1      -9.429   8.582  72.149  1.00  0.00    -0.305 C  
BRANCH  30  31
HETATM   31  O   UNL     1     -10.449   8.739  71.168  1.00  0.00    -0.210 OA 
BRANCH  31  32
HETATM   32  C   UNL     1     -11.271   9.869  71.452  1.00  0.00    -0.209 C  
BRANCH  32  33
HETATM   33  C   UNL     1     -12.002  10.280  70.182  1.00  0.00    -0.234 C  
BRANCH  33  34
HETATM   34  O   UNL     1     -11.248  11.286  69.511  1.00  0.00    -0.252 OA 
BRANCH  34  35
HETATM   35  C   UNL     1     -12.044  12.436  69.236  1.00  0.00    -0.165 C  
BRANCH  35  36
HETATM   36  C   UNL     1     -12.625  12.958  70.543  1.00  0.00    -0.129 C  
BRANCH  36  37
HETATM   37  O   UNL     1     -12.563  14.385  70.561  1.00  0.00    -0.328 OA 
BRANCH  37  38
HETATM   38  C   UNL     1     -13.665  14.935  71.293  1.00  0.00    -0.435 C  
BRANCH  38  39
HETATM   39  C   UNL     1     -13.672  14.316  72.687  1.00  0.00    -0.452 C  
HETATM   40  O   UNL     1     -13.231  15.276  73.646  1.00  0.00    -0.573 OA 
HETATM   41  H   UNL     1     -13.235  14.890  74.514  1.00  0.00     0.000 HD 
ENDBRANCH  38  39
ENDBRANCH  37  38
ENDBRANCH  36  37
ENDBRANCH  35  36
ENDBRANCH  34  35
ENDBRANCH  33  34
ENDBRANCH  32  33
ENDBRANCH  31  32
ENDBRANCH  30  31
ENDBRANCH  29  30
ENDBRANCH  28  29
ENDBRANCH  27  28
ENDBRANCH  26  27
ENDBRANCH  25  26
ENDBRANCH  24  25
ENDBRANCH  23  24
ENDBRANCH  22  23
ENDBRANCH  21  22
ENDBRANCH  20  21
ENDBRANCH  19  20
ENDBRANCH  18  19
ENDBRANCH  17  18
ENDBRANCH  16  17
ENDBRANCH  15  16
ENDBRANCH  14  15
ENDBRANCH  13  14
ENDBRANCH  12  13
ENDBRANCH  11  12
ENDBRANCH  10  11
ENDBRANCH   9  10
ENDBRANCH   8   9
ENDBRANCH   7   8
ENDBRANCH   6   7
ENDBRANCH   5   6
ENDBRANCH   4   5
ENDBRANCH   3   4
ENDBRANCH   2   3
TORSDOF 37
ENDMDL
MODEL      137
REMARK 921   NORMALIZED FREE ENERGY PREDICTED BY IDOCK:   -2.88 KCAL/MOL
REMARK 922        TOTAL FREE ENERGY PREDICTED BY IDOCK:  -12.74 KCAL/MOL
REMARK 923 INTER-LIGAND FREE ENERGY PREDICTED BY IDOCK:   -9.46 KCAL/MOL
REMARK 924 INTRA-LIGAND FREE ENERGY PREDICTED BY IDOCK:   -3.28 KCAL/MOL
REMARK 927      BINDING AFFINITY PREDICTED BY RF-SCORE:    0.00 PKD
ROOT
HETATM    1  C   UNL     1      -6.247   2.376  64.540  1.00  0.00    -0.019 C  
HETATM    2  C   UNL     1      -6.599   3.098  65.829  1.00  0.00    -0.036 C  
ENDROOT
BRANCH   2   3
HETATM    3  C   UNL     1      -7.697   2.359  66.589  1.00  0.00    -0.071 C  
BRANCH   3   4
HETATM    4  C   UNL     1      -8.946   3.226  66.738  1.00  0.00    -0.170 C  
BRANCH   4   5
HETATM    5  C   UNL     1      -8.572   4.703  66.826  1.00  0.00    -0.108 C  
BRANCH   5   6
HETATM    6  C   UNL     1      -8.257   5.101  68.263  1.00  0.00    -0.093 C  
BRANCH   6   7
HETATM    7  C   UNL     1      -7.096   6.089  68.307  1.00  0.00    -0.082 C  
BRANCH   7   8
HETATM    8  C   UNL     1      -7.166   6.945  69.565  1.00  0.00    -0.081 C  
BRANCH   8   9
HETATM    9  C   UNL     1      -7.718   6.144  70.740  1.00  0.00    -0.102 C  
BRANCH   9  10
HETATM   10  C   UNL     1      -7.340   6.811  72.055  1.00  0.00    -0.088 C  
BRANCH  10  11
HETATM   11  C   UNL     1      -8.080   8.128  72.237  1.00  0.00    -0.186 C  
BRANCH  11  12
HETATM   12  C   UNL     1      -8.834   8.133  73.556  1.00  0.00    -0.241 C  
BRANCH  12  13
HETATM   13  O   UNL     1     -10.216   7.945  73.276  1.00  0.00    -0.324 OA 
BRANCH  13  14
HETATM   14  C   UNL     1     -10.628   6.631  73.636  1.00  0.00    -0.300 C  
BRANCH  14  15
HETATM   15  C   UNL     1     -11.119   5.903  72.397  1.00  0.00    -0.280 C  
BRANCH  15  16
HETATM   16  O   UNL     1     -11.597   6.873  71.472  1.00  0.00    -0.260 OA 
BRANCH  16  17
HETATM   17  C   UNL     1     -11.401   6.447  70.128  1.00  0.00    -0.420 C  
BRANCH  17  18
HETATM   18  C   UNL     1     -10.886   7.626  69.319  1.00  0.00    -0.099 C  
BRANCH  18  19
HETATM   19  O   UNL     1     -10.914   8.791  70.134  1.00  0.00    -0.239 OA 
BRANCH  19  20
HETATM   20  C   UNL     1     -10.186   9.866  69.537  1.00  0.00    -0.225 C  
BRANCH  20  21
HETATM   21  C   UNL     1     -10.965  10.368  68.328  1.00  0.00    -0.270 C  
BRANCH  21  22
HETATM   22  O   UNL     1     -12.199  10.932  68.779  1.00  0.00    -0.518 OA 
BRANCH  22  23
HETATM   23  C   UNL     1     -11.986  12.121  69.531  1.00  0.00    -0.275 C  
BRANCH  23  24
HETATM   24  C   UNL     1     -11.896  13.300  68.576  1.00  0.00    -0.349 C  
BRANCH  24  25
HETATM   25  O   UNL     1     -10.568  13.816  68.609  1.00  0.00    -0.246 OA 
BRANCH  25  26
HETATM   26  C   UNL     1     -10.555  15.183  69.001  1.00  0.00    -0.245 C  
BRANCH  26  27
HETATM   27  C   UNL     1     -10.746  16.050  67.764  1.00  0.00    -0.323 C  
BRANCH  27  28
HETATM   28  O   UNL     1      -9.921  15.552  66.715  1.00  0.00    -0.239 OA 
BRANCH  28  29
HETATM   29  C   UNL     1     -10.476  15.855  65.439  1.00  0.00    -0.405 C  
BRANCH  29  30
HETATM   30  C   UNL     1     -11.547  14.826  65.111  1.00  0.00    -0.358 C  
BRANCH  30  31
HETATM   31  O   UNL     1     -10.953  13.533  65.080  1.00  0.00    -0.299 OA 
BRANCH  31  32
HETATM   32  C   UNL     1     -11.940  12.513  64.947  1.00  0.00    -0.412 C  
BRANCH  32  33
HETATM   33  C   UNL     1     -11.769  11.832  63.597  1.00  0.00    -0.415 C  
BRANCH  33  34
HETATM   34  O   UNL     1     -10.382  11.624  63.349  1.00  0.00    -0.382 OA 
BRANCH  34  35
HETATM   35  C   UNL     1      -9.908  10.447  63.998  1.00  0.00    -0.289 C  
BRANCH  35  36
HETATM   36  C   UNL     1      -8.428  10.273  63.686  1.00  0.00    -0.183 C  
BRANCH  36  37
HETATM   37  O   UNL     1      -7.677  10.272  64.901  1.00  0.00    -0.143 OA 
BRANCH  37  38
HETATM   38  C   UNL     1      -8.422  10.880  65.963  1.00  0.00    -0.167 C  
BRANCH  38  39
HETATM   39  C   UNL     1      -7.436  11.507  66.943  1.00  0.00    -0.145 C  
HETATM   40  O   UNL     1      -6.175  11.700  66.305  1.00  0.00    -0.370 OA 
HETATM   41  H   UNL     1      -5.561  12.091  66.915  1.00  0.00     0.000 HD 
ENDBRANCH  38  39
ENDBRANCH  37  38
ENDBRANCH  36  37
ENDBRANCH  35  36
ENDBRANCH  34  35
ENDBRANCH  33  34
ENDBRANCH  32  33
ENDBRANCH  31  32
ENDBRANCH  30  31
ENDBRANCH  29  30
ENDBRANCH  28  29
ENDBRANCH  27  28
ENDBRANCH  26  27
ENDBRANCH  25  26
ENDBRANCH  24  25
ENDBRANCH  23  24
ENDBRANCH  22  23
ENDBRANCH  21  22
ENDBRANCH  20  21
ENDBRANCH  19  20
ENDBRANCH  18  19
ENDBRANCH  17  18
ENDBRANCH  16  17
ENDBRANCH  15  16
ENDBRANCH  14  15
ENDBRANCH  13  14
ENDBRANCH  12  13
ENDBRANCH  11  12
ENDBRANCH  10  11
ENDBRANCH   9  10
ENDBRANCH   8   9
ENDBRANCH   7   8
ENDBRANCH   6   7
ENDBRANCH   5   6
ENDBRANCH   4   5
ENDBRANCH   3   4
ENDBRANCH   2   3
TORSDOF 37
ENDMDL
MODEL      138
REMARK 921   NORMALIZED FREE ENERGY PREDICTED BY IDOCK:   -2.88 KCAL/MOL
REMARK 922        TOTAL FREE ENERGY PREDICTED BY IDOCK:  -12.72 KCAL/MOL
REMARK 923 INTER-LIGAND FREE ENERGY PREDICTED BY IDOCK:   -9.47 KCAL/MOL
REMARK 924 INTRA-LIGAND FREE ENERGY PREDICTED BY IDOCK:   -3.25 KCAL/MOL
REMARK 927      BINDING AFFINITY PREDICTED BY RF-SCORE:    0.00 PKD
ROOT
HETATM    1  C   UNL     1     -10.301  10.048  69.888  1.00  0.00    -0.315 C  
HETATM    2  C   UNL     1     -11.589  10.720  69.445  1.00  0.00    -0.380 C  
ENDROOT
BRANCH   2   3
HETATM    3  C   UNL     1     -12.664  10.611  70.523  1.00  0.00    -0.395 C  
BRANCH   3   4
HETATM    4  C   UNL     1     -12.256   9.623  71.614  1.00  0.00    -0.484 C  
BRANCH   4   5
HETATM    5  C   UNL     1     -13.417   8.700  71.970  1.00  0.00    -0.439 C  
BRANCH   5   6
HETATM    6  C   UNL     1     -13.311   7.376  71.223  1.00  0.00    -0.338 C  
BRANCH   6   7
HETATM    7  C   UNL     1     -11.873   6.866  71.231  1.00  0.00    -0.385 C  
BRANCH   7   8
HETATM    8  C   UNL     1     -11.633   5.958  72.430  1.00  0.00    -0.341 C  
BRANCH   8   9
HETATM    9  C   UNL     1     -10.516   6.506  73.313  1.00  0.00    -0.280 C  
BRANCH   9  10
HETATM   10  C   UNL     1      -9.524   7.301  72.475  1.00  0.00    -0.180 C  
BRANCH  10  11
HETATM   11  C   UNL     1      -8.355   6.432  72.034  1.00  0.00    -0.109 C  
BRANCH  11  12
HETATM   12  C   UNL     1      -8.273   5.181  72.892  1.00  0.00    -0.109 C  
BRANCH  12  13
HETATM   13  O   UNL     1      -8.646   4.068  72.088  1.00  0.00    -0.102 OA 
BRANCH  13  14
HETATM   14  C   UNL     1      -8.432   4.350  70.709  1.00  0.00    -0.079 C  
BRANCH  14  15
HETATM   15  C   UNL     1      -9.687   4.006  69.928  1.00  0.00    -0.193 C  
BRANCH  15  16
HETATM   16  O   UNL     1      -9.480   2.756  69.280  1.00  0.00    -0.145 OA 
BRANCH  16  17
HETATM   17  C   UNL     1      -9.272   2.926  67.882  1.00  0.00    -0.205 C  
BRANCH  17  18
HETATM   18  C   UNL     1      -9.744   4.317  67.491  1.00  0.00    -0.148 C  
BRANCH  18  19
HETATM   19  O   UNL     1      -8.705   4.970  66.771  1.00  0.00    -0.109 OA 
BRANCH  19  20
HETATM   20  C   UNL     1      -9.161   6.189  66.183  1.00  0.00    -0.131 C  
BRANCH  20  21
HETATM   21  C   UNL     1      -7.971   6.896  65.545  1.00  0.00    -0.126 C  
BRANCH  21  22
HETATM   22  O   UNL     1      -7.324   7.693  66.540  1.00  0.00    -0.083 OA 
BRANCH  22  23
HETATM   23  C   UNL     1      -8.221   8.632  67.121  1.00  0.00    -0.107 C  
BRANCH  23  24
HETATM   24  C   UNL     1      -8.171   9.924  66.320  1.00  0.00    -0.114 C  
BRANCH  24  25
HETATM   25  O   UNL     1      -9.482  10.481  66.268  1.00  0.00    -0.168 OA 
BRANCH  25  26
HETATM   26  C   UNL     1      -9.463  11.872  66.566  1.00  0.00    -0.217 C  
BRANCH  26  27
HETATM   27  C   UNL     1     -10.650  12.535  65.884  1.00  0.00    -0.265 C  
BRANCH  27  28
HETATM   28  O   UNL     1     -10.220  13.750  65.278  1.00  0.00    -0.332 OA 
BRANCH  28  29
HETATM   29  C   UNL     1     -11.329  14.504  64.798  1.00  0.00    -0.396 C  
BRANCH  29  30
HETATM   30  C   UNL     1     -11.009  15.985  64.925  1.00  0.00    -0.384 C  
BRANCH  30  31
HETATM   31  O   UNL     1      -9.672  16.132  65.392  1.00  0.00    -0.453 OA 
BRANCH  31  32
HETATM   32  C   UNL     1      -9.579  17.156  66.380  1.00  0.00    -0.278 C  
BRANCH  32  33
HETATM   33  C   UNL     1     -10.654  16.927  67.433  1.00  0.00    -0.294 C  
BRANCH  33  34
HETATM   34  O   UNL     1     -10.032  16.643  68.683  1.00  0.00    -0.237 OA 
BRANCH  34  35
HETATM   35  C   UNL     1      -9.536  15.308  68.727  1.00  0.00    -0.214 C  
BRANCH  35  36
HETATM   36  C   UNL     1      -8.151  15.316  69.358  1.00  0.00    -0.230 C  
BRANCH  36  37
HETATM   37  O   UNL     1      -7.439  14.139  68.975  1.00  0.00    -0.124 OA 
BRANCH  37  38
HETATM   38  C   UNL     1      -6.323  13.910  69.844  1.00  0.00    -0.115 C  
BRANCH  38  39
HETATM   39  C   UNL     1      -6.033  12.413  69.867  1.00  0.00    -0.146 C  
HETATM   40  O   UNL     1      -7.213  11.684  69.532  1.00  0.00    -0.324 OA 
HETATM   41  H   UNL     1      -7.032  10.752  69.546  1.00  0.00     0.000 HD 
ENDBRANCH  38  39
ENDBRANCH  37  38
ENDBRANCH  36  37
ENDBRANCH  35  36
ENDBRANCH  34  35
ENDBRANCH  33  34
ENDBRANCH  32  33
ENDBRANCH  31  32
ENDBRANCH  30  31
ENDBRANCH  29  30
ENDBRANCH  28  29
ENDBRANCH  27  28
ENDBRANCH  26  27
ENDBRANCH  25  26
ENDBRANCH  24  25
ENDBRANCH  23  24
ENDBRANCH  22  23
ENDBRANCH  21  22
ENDBRANCH  20  21
ENDBRANCH  19  20
ENDBRANCH  18  19
ENDBRANCH  17  18
ENDBRANCH  16  17
ENDBRANCH  15  16
ENDBRANCH  14  15
ENDBRANCH  13  14
ENDBRANCH  12  13
ENDBRANCH  11  12
ENDBRANCH  10  11
ENDBRANCH   9  10
ENDBRANCH   8   9
ENDBRANCH   7   8
ENDBRANCH   6   7
ENDBRANCH   5   6
ENDBRANCH   4   5
ENDBRANCH   3   4
ENDBRANCH   2   3
TORSDOF 37
ENDMDL
MODEL      139
REMARK 921   NORMALIZED FREE ENERGY PREDICTED BY IDOCK:   -2.85 KCAL/MOL
REMARK 922        TOTAL FREE ENERGY PREDICTED BY IDOCK:  -12.64 KCAL/MOL
REMARK 923 INTER-LIGAND FREE ENERGY PREDICTED BY IDOCK:   -9.66 KCAL/MOL
REMARK 924 INTRA-LIGAND FREE ENERGY PREDICTED BY IDOCK:   -2.98 KCAL/MOL
REMARK 927      BINDING AFFINITY PREDICTED BY RF-SCORE:    0.00 PKD
ROOT
HETATM    1  C   UNL     1     -13.118  11.196  71.548  1.00  0.00    -0.489 C  
HETATM    2  C   UNL     1     -12.971   9.731  71.923  1.00  0.00    -0.535 C  
ENDROOT
BRANCH   2   3
HETATM    3  C   UNL     1     -11.672   9.151  71.371  1.00  0.00    -0.413 C  
BRANCH   3   4
HETATM    4  C   UNL     1     -11.176   9.950  70.168  1.00  0.00    -0.347 C  
BRANCH   4   5
HETATM    5  C   UNL     1     -10.374   9.062  69.221  1.00  0.00    -0.227 C  
BRANCH   5   6
HETATM    6  C   UNL     1     -10.031   9.805  67.936  1.00  0.00    -0.196 C  
BRANCH   6   7
HETATM    7  C   UNL     1     -11.182  10.710  67.512  1.00  0.00    -0.326 C  
BRANCH   7   8
HETATM    8  C   UNL     1     -10.962  11.234  66.099  1.00  0.00    -0.252 C  
BRANCH   8   9
HETATM    9  C   UNL     1     -11.993  12.302  65.746  1.00  0.00    -0.362 C  
BRANCH   9  10
HETATM   10  C   UNL     1     -12.170  12.383  64.235  1.00  0.00    -0.538 C  
BRANCH  10  11
HETATM   11  C   UNL     1     -11.958  13.802  63.731  1.00  0.00    -0.365 C  
BRANCH  11  12
HETATM   12  C   UNL     1     -11.840  14.766  64.899  1.00  0.00    -0.377 C  
BRANCH  12  13
HETATM   13  O   UNL     1     -11.020  15.855  64.493  1.00  0.00    -0.527 OA 
BRANCH  13  14
HETATM   14  C   UNL     1     -10.264  16.352  65.593  1.00  0.00    -0.324 C  
BRANCH  14  15
HETATM   15  C   UNL     1     -10.555  17.831  65.772  1.00  0.00    -0.175 C  
BRANCH  15  16
HETATM   16  O   UNL     1     -10.550  18.120  67.165  1.00  0.00    -0.383 OA 
BRANCH  16  17
HETATM   17  C   UNL     1     -11.138  17.063  67.915  1.00  0.00    -0.125 C  
BRANCH  17  18
HETATM   18  C   UNL     1     -10.561  17.091  69.321  1.00  0.00    -0.276 C  
BRANCH  18  19
HETATM   19  O   UNL     1     -10.932  15.895  69.995  1.00  0.00    -0.299 OA 
BRANCH  19  20
HETATM   20  C   UNL     1     -11.415  14.907  69.082  1.00  0.00    -0.302 C  
BRANCH  20  21
HETATM   21  C   UNL     1     -10.407  13.766  69.023  1.00  0.00    -0.066 C  
BRANCH  21  22
HETATM   22  O   UNL     1      -9.365  14.121  68.109  1.00  0.00    -0.192 OA 
BRANCH  22  23
HETATM   23  C   UNL     1      -8.118  13.557  68.495  1.00  0.00    -0.108 C  
BRANCH  23  24
HETATM   24  C   UNL     1      -7.340  13.176  67.244  1.00  0.00    -0.045 C  
BRANCH  24  25
HETATM   25  O   UNL     1      -6.163  12.474  67.633  1.00  0.00    -0.108 OA 
BRANCH  25  26
HETATM   26  C   UNL     1      -5.863  11.424  66.721  1.00  0.00    -0.135 C  
BRANCH  26  27
HETATM   27  C   UNL     1      -7.151  10.693  66.374  1.00  0.00    -0.134 C  
BRANCH  27  28
HETATM   28  O   UNL     1      -7.043  10.157  65.060  1.00  0.00    -0.132 OA 
BRANCH  28  29
HETATM   29  C   UNL     1      -8.029   9.155  64.831  1.00  0.00    -0.123 C  
BRANCH  29  30
HETATM   30  C   UNL     1      -7.449   7.799  65.199  1.00  0.00    -0.083 C  
BRANCH  30  31
HETATM   31  O   UNL     1      -8.445   7.037  65.874  1.00  0.00    -0.137 OA 
BRANCH  31  32
HETATM   32  C   UNL     1      -7.867   5.949  66.590  1.00  0.00    -0.101 C  
BRANCH  32  33
HETATM   33  C   UNL     1      -8.969   5.197  67.322  1.00  0.00    -0.112 C  
BRANCH  33  34
HETATM   34  O   UNL     1      -9.247   5.856  68.555  1.00  0.00    -0.118 OA 
BRANCH  34  35
HETATM   35  C   UNL     1      -8.047   6.197  69.245  1.00  0.00    -0.109 C  
BRANCH  35  36
HETATM   36  C   UNL     1      -8.182   5.782  70.703  1.00  0.00    -0.119 C  
BRANCH  36  37
HETATM   37  O   UNL     1      -9.001   6.723  71.398  1.00  0.00    -0.142 OA 
BRANCH  37  38
HETATM   38  C   UNL     1      -9.755   6.079  72.433  1.00  0.00    -0.158 C  
BRANCH  38  39
HETATM   39  C   UNL     1     -11.012   5.482  71.811  1.00  0.00    -0.182 C  
HETATM   40  O   UNL     1     -12.154   5.836  72.589  1.00  0.00    -0.518 OA 
HETATM   41  H   UNL     1     -12.937   5.465  72.201  1.00  0.00     0.000 HD 
ENDBRANCH  38  39
ENDBRANCH  37  38
ENDBRANCH  36  37
ENDBRANCH  35  36
ENDBRANCH  34  35
ENDBRANCH  33  34
ENDBRANCH  32  33
ENDBRANCH  31  32
ENDBRANCH  30  31
ENDBRANCH  29  30
ENDBRANCH  28  29
ENDBRANCH  27  28
ENDBRANCH  26  27
ENDBRANCH  25  26
ENDBRANCH  24  25
ENDBRANCH  23  24
ENDBRANCH  22  23
ENDBRANCH  21  22
ENDBRANCH  20  21
ENDBRANCH  19  20
ENDBRANCH  18  19
ENDBRANCH  17  18
ENDBRANCH  16  17
ENDBRANCH  15  16
ENDBRANCH  14  15
ENDBRANCH  13  14
ENDBRANCH  12  13
ENDBRANCH  11  12
ENDBRANCH  10  11
ENDBRANCH   9  10
ENDBRANCH   8   9
ENDBRANCH   7   8
ENDBRANCH   6   7
ENDBRANCH   5   6
ENDBRANCH   4   5
ENDBRANCH   3   4
ENDBRANCH   2   3
TORSDOF 37
ENDMDL
MODEL      140
REMARK 921   NORMALIZED FREE ENERGY PREDICTED BY IDOCK:   -2.84 KCAL/MOL
REMARK 922        TOTAL FREE ENERGY PREDICTED BY IDOCK:  -12.60 KCAL/MOL
REMARK 923 INTER-LIGAND FREE ENERGY PREDICTED BY IDOCK:  -10.37 KCAL/MOL
REMARK 924 INTRA-LIGAND FREE ENERGY PREDICTED BY IDOCK:   -2.24 KCAL/MOL
REMARK 927      BINDING AFFINITY PREDICTED BY RF-SCORE:    0.00 PKD
ROOT
HETATM    1  C   UNL     1     -10.276   3.982  64.695  1.00  0.00    -0.226 C  
HETATM    2  C   UNL     1      -9.199   4.119  65.758  1.00  0.00    -0.148 C  
ENDROOT
BRANCH   2   3
HETATM    3  C   UNL     1      -9.754   4.773  67.020  1.00  0.00    -0.205 C  
BRANCH   3   4
HETATM    4  C   UNL     1      -9.032   4.270  68.268  1.00  0.00    -0.151 C  
BRANCH   4   5
HETATM    5  C   UNL     1      -9.855   4.556  69.521  1.00  0.00    -0.277 C  
BRANCH   5   6
HETATM    6  C   UNL     1      -8.951   4.750  70.733  1.00  0.00    -0.163 C  
BRANCH   6   7
HETATM    7  C   UNL     1      -8.070   5.982  70.557  1.00  0.00    -0.112 C  
BRANCH   7   8
HETATM    8  C   UNL     1      -7.992   6.776  71.855  1.00  0.00    -0.101 C  
BRANCH   8   9
HETATM    9  C   UNL     1      -7.445   8.178  71.604  1.00  0.00    -0.092 C  
BRANCH   9  10
HETATM   10  C   UNL     1      -8.545   9.083  71.065  1.00  0.00    -0.264 C  
BRANCH  10  11
HETATM   11  C   UNL     1      -8.078   9.842  69.832  1.00  0.00    -0.192 C  
BRANCH  11  12
HETATM   12  C   UNL     1      -6.853   9.173  69.232  1.00  0.00    -0.049 C  
BRANCH  12  13
HETATM   13  O   UNL     1      -7.210   8.660  67.954  1.00  0.00    -0.084 OA 
BRANCH  13  14
HETATM   14  C   UNL     1      -8.180   9.496  67.330  1.00  0.00    -0.114 C  
BRANCH  14  15
HETATM   15  C   UNL     1      -8.902   8.706  66.253  1.00  0.00    -0.157 C  
BRANCH  15  16
HETATM   16  O   UNL     1      -9.679   9.614  65.481  1.00  0.00    -0.280 OA 
BRANCH  16  17
HETATM   17  C   UNL     1      -8.887  10.257  64.488  1.00  0.00    -0.203 C  
BRANCH  17  18
HETATM   18  C   UNL     1      -9.727  11.338  63.828  1.00  0.00    -0.298 C  
BRANCH  18  19
HETATM   19  O   UNL     1     -11.092  11.133  64.168  1.00  0.00    -0.317 OA 
BRANCH  19  20
HETATM   20  C   UNL     1     -11.698  12.332  64.654  1.00  0.00    -0.356 C  
BRANCH  20  21
HETATM   21  C   UNL     1     -12.693  12.831  63.613  1.00  0.00    -0.157 C  
BRANCH  21  22
HETATM   22  O   UNL     1     -12.375  14.187  63.289  1.00  0.00    -0.680 OA 
BRANCH  22  23
HETATM   23  C   UNL     1     -12.164  14.968  64.459  1.00  0.00    -0.331 C  
BRANCH  23  24
HETATM   24  C   UNL     1     -10.817  15.666  64.351  1.00  0.00     0.112 C  
BRANCH  24  25
HETATM   25  O   UNL     1     -10.910  16.941  64.981  1.00  0.00    -0.666 OA 
BRANCH  25  26
HETATM   26  C   UNL     1      -9.877  17.119  65.941  1.00  0.00    -0.155 C  
BRANCH  26  27
HETATM   27  C   UNL     1     -10.488  17.662  67.225  1.00  0.00    -0.338 C  
BRANCH  27  28
HETATM   28  O   UNL     1     -10.444  16.650  68.226  1.00  0.00    -0.288 OA 
BRANCH  28  29
HETATM   29  C   UNL     1     -11.322  15.575  67.908  1.00  0.00    -0.308 C  
BRANCH  29  30
HETATM   30  C   UNL     1     -11.212  14.512  68.990  1.00  0.00    -0.268 C  
BRANCH  30  31
HETATM   31  O   UNL     1     -11.845  13.321  68.534  1.00  0.00    -0.323 OA 
BRANCH  31  32
HETATM   32  C   UNL     1     -10.890  12.293  68.277  1.00  0.00    -0.225 C  
BRANCH  32  33
HETATM   33  C   UNL     1     -11.628  11.005  67.941  1.00  0.00    -0.226 C  
BRANCH  33  34
HETATM   34  O   UNL     1     -12.399  10.599  69.069  1.00  0.00    -0.355 OA 
BRANCH  34  35
HETATM   35  C   UNL     1     -11.646  10.693  70.275  1.00  0.00    -0.336 C  
BRANCH  35  36
HETATM   36  C   UNL     1     -12.454  10.077  71.410  1.00  0.00    -0.411 C  
BRANCH  36  37
HETATM   37  O   UNL     1     -13.360  11.047  71.937  1.00  0.00    -0.422 OA 
BRANCH  37  38
HETATM   38  C   UNL     1     -12.868  12.376  71.722  1.00  0.00    -0.245 C  
BRANCH  38  39
HETATM   39  C   UNL     1     -13.745  13.344  72.508  1.00  0.00    -0.531 C  
HETATM   40  O   UNL     1     -14.219  14.379  71.647  1.00  0.00    -0.427 OA 
HETATM   41  H   UNL     1     -14.765  14.981  72.137  1.00  0.00     0.000 HD 
ENDBRANCH  38  39
ENDBRANCH  37  38
ENDBRANCH  36  37
ENDBRANCH  35  36
ENDBRANCH  34  35
ENDBRANCH  33  34
ENDBRANCH  32  33
ENDBRANCH  31  32
ENDBRANCH  30  31
ENDBRANCH  29  30
ENDBRANCH  28  29
ENDBRANCH  27  28
ENDBRANCH  26  27
ENDBRANCH  25  26
ENDBRANCH  24  25
ENDBRANCH  23  24
ENDBRANCH  22  23
ENDBRANCH  21  22
ENDBRANCH  20  21
ENDBRANCH  19  20
ENDBRANCH  18  19
ENDBRANCH  17  18
ENDBRANCH  16  17
ENDBRANCH  15  16
ENDBRANCH  14  15
ENDBRANCH  13  14
ENDBRANCH  12  13
ENDBRANCH  11  12
ENDBRANCH  10  11
ENDBRANCH   9  10
ENDBRANCH   8   9
ENDBRANCH   7   8
ENDBRANCH   6   7
ENDBRANCH   5   6
ENDBRANCH   4   5
ENDBRANCH   3   4
ENDBRANCH   2   3
TORSDOF 37
ENDMDL
MODEL      141
REMARK 921   NORMALIZED FREE ENERGY PREDICTED BY IDOCK:   -2.84 KCAL/MOL
REMARK 922        TOTAL FREE ENERGY PREDICTED BY IDOCK:  -12.60 KCAL/MOL
REMARK 923 INTER-LIGAND FREE ENERGY PREDICTED BY IDOCK:   -8.88 KCAL/MOL
REMARK 924 INTRA-LIGAND FREE ENERGY PREDICTED BY IDOCK:   -3.73 KCAL/MOL
REMARK 927      BINDING AFFINITY PREDICTED BY RF-SCORE:    0.00 PKD
ROOT
HETATM    1  C   UNL     1     -12.682  13.976  70.708  1.00  0.00    -0.396 C  
HETATM    2  C   UNL     1     -11.446  14.840  70.521  1.00  0.00    -0.300 C  
ENDROOT
BRANCH   2   3
HETATM    3  C   UNL     1     -11.181  15.106  69.042  1.00  0.00    -0.282 C  
BRANCH   3   4
HETATM    4  C   UNL     1     -12.207  14.397  68.160  1.00  0.00    -0.142 C  
BRANCH   4   5
HETATM    5  C   UNL     1     -11.707  14.300  66.721  1.00  0.00    -0.424 C  
BRANCH   5   6
HETATM    6  C   UNL     1     -12.844  13.935  65.773  1.00  0.00    -0.437 C  
BRANCH   6   7
HETATM    7  C   UNL     1     -12.527  12.645  65.023  1.00  0.00    -0.556 C  
BRANCH   7   8
HETATM    8  C   UNL     1     -11.410  12.871  64.013  1.00  0.00    -0.466 C  
BRANCH   8   9
HETATM    9  C   UNL     1     -11.177  11.623  63.168  1.00  0.00    -0.180 C  
BRANCH   9  10
HETATM   10  C   UNL     1      -9.685  11.402  62.957  1.00  0.00    -0.393 C  
BRANCH  10  11
HETATM   11  C   UNL     1      -9.279   9.986  63.338  1.00  0.00    -0.317 C  
BRANCH  11  12
HETATM   12  C   UNL     1      -7.782   9.915  63.586  1.00  0.00    -0.141 C  
BRANCH  12  13
HETATM   13  O   UNL     1      -7.545   8.933  64.588  1.00  0.00    -0.101 OA 
BRANCH  13  14
HETATM   14  C   UNL     1      -6.332   9.204  65.280  1.00  0.00    -0.064 C  
BRANCH  14  15
HETATM   15  C   UNL     1      -6.561   9.044  66.773  1.00  0.00    -0.064 C  
BRANCH  15  16
HETATM   16  O   UNL     1      -5.480   9.667  67.458  1.00  0.00    -0.036 OA 
BRANCH  16  17
HETATM   17  C   UNL     1      -5.934  10.369  68.610  1.00  0.00    -0.040 C  
BRANCH  17  18
HETATM   18  C   UNL     1      -6.750  11.568  68.153  1.00  0.00    -0.062 C  
BRANCH  18  19
HETATM   19  O   UNL     1      -7.977  11.590  68.871  1.00  0.00    -0.131 OA 
BRANCH  19  20
HETATM   20  C   UNL     1      -8.987  12.310  68.162  1.00  0.00    -0.192 C  
BRANCH  20  21
HETATM   21  C   UNL     1      -9.434  11.473  66.970  1.00  0.00    -0.183 C  
BRANCH  21  22
HETATM   22  O   UNL     1     -10.489  10.604  67.390  1.00  0.00    -0.206 OA 
BRANCH  22  23
HETATM   23  C   UNL     1     -10.237   9.256  67.013  1.00  0.00    -0.262 C  
BRANCH  23  24
HETATM   24  C   UNL     1     -10.369   8.366  68.239  1.00  0.00    -0.199 C  
BRANCH  24  25
HETATM   25  O   UNL     1     -10.029   9.127  69.395  1.00  0.00    -0.180 OA 
BRANCH  25  26
HETATM   26  C   UNL     1     -10.909   8.845  70.476  1.00  0.00    -0.236 C  
BRANCH  26  27
HETATM   27  C   UNL     1     -10.124   8.913  71.778  1.00  0.00    -0.337 C  
BRANCH  27  28
HETATM   28  O   UNL     1     -10.547   7.856  72.633  1.00  0.00    -0.275 OA 
BRANCH  28  29
HETATM   29  C   UNL     1     -11.602   7.107  72.039  1.00  0.00    -0.280 C  
BRANCH  29  30
HETATM   30  C   UNL     1     -11.588   5.697  72.609  1.00  0.00    -0.251 C  
BRANCH  30  31
HETATM   31  O   UNL     1     -10.237   5.281  72.781  1.00  0.00    -0.176 OA 
BRANCH  31  32
HETATM   32  C   UNL     1      -9.972   4.075  72.069  1.00  0.00    -0.176 C  
BRANCH  32  33
HETATM   33  C   UNL     1      -8.630   4.202  71.363  1.00  0.00    -0.101 C  
BRANCH  33  34
HETATM   34  O   UNL     1      -8.780   5.038  70.219  1.00  0.00    -0.103 OA 
BRANCH  34  35
HETATM   35  C   UNL     1      -9.749   4.514  69.315  1.00  0.00    -0.190 C  
BRANCH  35  36
HETATM   36  C   UNL     1      -9.066   3.527  68.378  1.00  0.00    -0.149 C  
BRANCH  36  37
HETATM   37  O   UNL     1      -9.482   3.772  67.034  1.00  0.00    -0.185 OA 
BRANCH  37  38
HETATM   38  C   UNL     1      -9.718   5.170  66.818  1.00  0.00    -0.165 C  
BRANCH  38  39
HETATM   39  C   UNL     1      -8.543   5.737  66.030  1.00  0.00    -0.139 C  
HETATM   40  O   UNL     1      -9.024   6.559  64.966  1.00  0.00    -0.357 OA 
HETATM   41  H   UNL     1      -8.292   6.912  64.475  1.00  0.00     0.000 HD 
ENDBRANCH  38  39
ENDBRANCH  37  38
ENDBRANCH  36  37
ENDBRANCH  35  36
ENDBRANCH  34  35
ENDBRANCH  33  34
ENDBRANCH  32  33
ENDBRANCH  31  32
ENDBRANCH  30  31
ENDBRANCH  29  30
ENDBRANCH  28  29
ENDBRANCH  27  28
ENDBRANCH  26  27
ENDBRANCH  25  26
ENDBRANCH  24  25
ENDBRANCH  23  24
ENDBRANCH  22  23
ENDBRANCH  21  22
ENDBRANCH  20  21
ENDBRANCH  19  20
ENDBRANCH  18  19
ENDBRANCH  17  18
ENDBRANCH  16  17
ENDBRANCH  15  16
ENDBRANCH  14  15
ENDBRANCH  13  14
ENDBRANCH  12  13
ENDBRANCH  11  12
ENDBRANCH  10  11
ENDBRANCH   9  10
ENDBRANCH   8   9
ENDBRANCH   7   8
ENDBRANCH   6   7
ENDBRANCH   5   6
ENDBRANCH   4   5
ENDBRANCH   3   4
ENDBRANCH   2   3
TORSDOF 37
ENDMDL
MODEL      142
REMARK 921   NORMALIZED FREE ENERGY PREDICTED BY IDOCK:   -2.84 KCAL/MOL
REMARK 922        TOTAL FREE ENERGY PREDICTED BY IDOCK:  -12.60 KCAL/MOL
REMARK 923 INTER-LIGAND FREE ENERGY PREDICTED BY IDOCK:   -9.96 KCAL/MOL
REMARK 924 INTRA-LIGAND FREE ENERGY PREDICTED BY IDOCK:   -2.64 KCAL/MOL
REMARK 927      BINDING AFFINITY PREDICTED BY RF-SCORE:    0.00 PKD
ROOT
HETATM    1  C   UNL     1      -9.705  20.685  67.450  1.00  0.00    -0.552 C  
HETATM    2  C   UNL     1      -8.418  19.885  67.340  1.00  0.00    -0.377 C  
ENDROOT
BRANCH   2   3
HETATM    3  C   UNL     1      -8.542  18.790  66.284  1.00  0.00    -0.247 C  
BRANCH   3   4
HETATM    4  C   UNL     1      -8.383  17.403  66.903  1.00  0.00    -0.260 C  
BRANCH   4   5
HETATM    5  C   UNL     1      -9.608  17.040  67.739  1.00  0.00    -0.244 C  
BRANCH   5   6
HETATM    6  C   UNL     1      -9.210  16.214  68.957  1.00  0.00    -0.252 C  
BRANCH   6   7
HETATM    7  C   UNL     1     -10.076  14.963  69.066  1.00  0.00    -0.237 C  
BRANCH   7   8
HETATM    8  C   UNL     1     -10.129  14.228  67.732  1.00  0.00    -0.231 C  
BRANCH   8   9
HETATM    9  C   UNL     1     -11.435  13.454  67.587  1.00  0.00    -0.353 C  
BRANCH   9  10
HETATM   10  C   UNL     1     -12.330  14.123  66.552  1.00  0.00    -0.405 C  
BRANCH  10  11
HETATM   11  C   UNL     1     -11.507  14.838  65.491  1.00  0.00    -0.329 C  
BRANCH  11  12
HETATM   12  C   UNL     1     -11.261  13.920  64.306  1.00  0.00    -0.262 C  
BRANCH  12  13
HETATM   13  O   UNL     1     -12.325  12.978  64.248  1.00  0.00    -0.471 OA 
BRANCH  13  14
HETATM   14  C   UNL     1     -11.957  11.852  63.458  1.00  0.00    -0.466 C  
BRANCH  14  15
HETATM   15  C   UNL     1     -10.560  11.403  63.849  1.00  0.00    -0.392 C  
BRANCH  15  16
HETATM   16  O   UNL     1     -10.631  10.794  65.133  1.00  0.00    -0.259 OA 
BRANCH  16  17
HETATM   17  C   UNL     1      -9.730   9.696  65.235  1.00  0.00    -0.260 C  
BRANCH  17  18
HETATM   18  C   UNL     1      -8.484  10.019  64.427  1.00  0.00    -0.173 C  
BRANCH  18  19
HETATM   19  O   UNL     1      -8.071   8.849  63.731  1.00  0.00    -0.147 OA 
BRANCH  19  20
HETATM   20  C   UNL     1      -7.339   7.964  64.581  1.00  0.00    -0.084 C  
BRANCH  20  21
HETATM   21  C   UNL     1      -7.926   6.564  64.444  1.00  0.00    -0.103 C  
BRANCH  21  22
HETATM   22  O   UNL     1      -8.277   6.085  65.746  1.00  0.00    -0.122 OA 
BRANCH  22  23
HETATM   23  C   UNL     1      -9.373   5.181  65.692  1.00  0.00    -0.138 C  
BRANCH  23  24
HETATM   24  C   UNL     1     -10.247   5.390  66.919  1.00  0.00    -0.240 C  
BRANCH  24  25
HETATM   25  O   UNL     1      -9.710   6.464  67.686  1.00  0.00    -0.117 OA 
BRANCH  25  26
HETATM   26  C   UNL     1     -10.640   7.534  67.799  1.00  0.00    -0.206 C  
BRANCH  26  27
HETATM   27  C   UNL     1     -10.366   8.288  69.092  1.00  0.00    -0.217 C  
BRANCH  27  28
HETATM   28  O   UNL     1     -11.404   8.005  70.025  1.00  0.00    -0.161 OA 
BRANCH  28  29
HETATM   29  C   UNL     1     -11.423   8.963  71.078  1.00  0.00    -0.294 C  
BRANCH  29  30
HETATM   30  C   UNL     1     -12.070   8.338  72.303  1.00  0.00    -0.379 C  
BRANCH  30  31
HETATM   31  O   UNL     1     -12.061   6.921  72.159  1.00  0.00    -0.291 OA 
BRANCH  31  32
HETATM   32  C   UNL     1     -10.991   6.333  72.895  1.00  0.00    -0.254 C  
BRANCH  32  33
HETATM   33  C   UNL     1     -10.101   5.555  71.937  1.00  0.00    -0.189 C  
BRANCH  33  34
HETATM   34  O   UNL     1      -8.737   5.878  72.198  1.00  0.00    -0.135 OA 
BRANCH  34  35
HETATM   35  C   UNL     1      -8.592   7.237  72.600  1.00  0.00    -0.111 C  
BRANCH  35  36
HETATM   36  C   UNL     1      -7.359   7.822  71.925  1.00  0.00    -0.070 C  
BRANCH  36  37
HETATM   37  O   UNL     1      -7.570   9.208  71.653  1.00  0.00    -0.333 OA 
BRANCH  37  38
HETATM   38  C   UNL     1      -6.748   9.647  70.564  1.00  0.00    -0.119 C  
BRANCH  38  39
HETATM   39  C   UNL     1      -7.629  10.395  69.570  1.00  0.00    -0.156 C  
HETATM   40  O   UNL     1      -7.282  11.779  69.560  1.00  0.00    -0.329 OA 
HETATM   41  H   UNL     1      -7.831  12.245  68.941  1.00  0.00     0.000 HD 
ENDBRANCH  38  39
ENDBRANCH  37  38
ENDBRANCH  36  37
ENDBRANCH  35  36
ENDBRANCH  34  35
ENDBRANCH  33  34
ENDBRANCH  32  33
ENDBRANCH  31  32
ENDBRANCH  30  31
ENDBRANCH  29  30
ENDBRANCH  28  29
ENDBRANCH  27  28
ENDBRANCH  26  27
ENDBRANCH  25  26
ENDBRANCH  24  25
ENDBRANCH  23  24
ENDBRANCH  22  23
ENDBRANCH  21  22
ENDBRANCH  20  21
ENDBRANCH  19  20
ENDBRANCH  18  19
ENDBRANCH  17  18
ENDBRANCH  16  17
ENDBRANCH  15  16
ENDBRANCH  14  15
ENDBRANCH  13  14
ENDBRANCH  12  13
ENDBRANCH  11  12
ENDBRANCH  10  11
ENDBRANCH   9  10
ENDBRANCH   8   9
ENDBRANCH   7   8
ENDBRANCH   6   7
ENDBRANCH   5   6
ENDBRANCH   4   5
ENDBRANCH   3   4
ENDBRANCH   2   3
TORSDOF 37
ENDMDL
MODEL      143
REMARK 921   NORMALIZED FREE ENERGY PREDICTED BY IDOCK:   -2.84 KCAL/MOL
REMARK 922        TOTAL FREE ENERGY PREDICTED BY IDOCK:  -12.60 KCAL/MOL
REMARK 923 INTER-LIGAND FREE ENERGY PREDICTED BY IDOCK:   -9.89 KCAL/MOL
REMARK 924 INTRA-LIGAND FREE ENERGY PREDICTED BY IDOCK:   -2.70 KCAL/MOL
REMARK 927      BINDING AFFINITY PREDICTED BY RF-SCORE:    0.00 PKD
ROOT
HETATM    1  C   UNL     1     -10.464   4.952  66.203  1.00  0.00    -0.346 C  
HETATM    2  C   UNL     1      -9.319   4.686  67.164  1.00  0.00    -0.156 C  
ENDROOT
BRANCH   2   3
HETATM    3  C   UNL     1      -9.777   3.825  68.338  1.00  0.00    -0.094 C  
BRANCH   3   4
HETATM    4  C   UNL     1      -8.843   3.981  69.536  1.00  0.00    -0.143 C  
BRANCH   4   5
HETATM    5  C   UNL     1      -9.598   4.535  70.742  1.00  0.00    -0.253 C  
BRANCH   5   6
HETATM    6  C   UNL     1      -8.929   5.800  71.268  1.00  0.00    -0.147 C  
BRANCH   6   7
HETATM    7  C   UNL     1      -9.456   7.032  70.540  1.00  0.00    -0.166 C  
BRANCH   7   8
HETATM    8  C   UNL     1      -9.553   8.217  71.492  1.00  0.00    -0.247 C  
BRANCH   8   9
HETATM    9  C   UNL     1     -10.176   7.801  72.820  1.00  0.00    -0.360 C  
BRANCH   9  10
HETATM   10  C   UNL     1     -11.691   7.712  72.686  1.00  0.00    -0.323 C  
BRANCH  10  11
HETATM   11  C   UNL     1     -12.220   8.758  71.716  1.00  0.00    -0.415 C  
BRANCH  11  12
HETATM   12  C   UNL     1     -13.515   9.356  72.239  1.00  0.00    -0.465 C  
BRANCH  12  13
HETATM   13  O   UNL     1     -13.382  10.772  72.231  1.00  0.00    -0.385 OA 
BRANCH  13  14
HETATM   14  C   UNL     1     -12.573  11.195  71.139  1.00  0.00    -0.409 C  
BRANCH  14  15
HETATM   15  C   UNL     1     -12.543  12.713  71.097  1.00  0.00    -0.258 C  
BRANCH  15  16
HETATM   16  O   UNL     1     -11.538  13.112  70.172  1.00  0.00    -0.209 OA 
BRANCH  16  17
HETATM   17  C   UNL     1     -12.088  13.889  69.114  1.00  0.00    -0.338 C  
BRANCH  17  18
HETATM   18  C   UNL     1     -10.989  14.768  68.539  1.00  0.00    -0.258 C  
BRANCH  18  19
HETATM   19  O   UNL     1     -11.312  16.130  68.787  1.00  0.00    -0.346 OA 
BRANCH  19  20
HETATM   20  C   UNL     1     -10.763  16.990  67.786  1.00  0.00    -0.318 C  
BRANCH  20  21
HETATM   21  C   UNL     1      -9.561  16.297  67.156  1.00  0.00    -0.233 C  
BRANCH  21  22
HETATM   22  O   UNL     1      -9.661  16.409  65.733  1.00  0.00    -0.440 OA 
BRANCH  22  23
HETATM   23  C   UNL     1     -10.992  16.701  65.325  1.00  0.00    -0.120 C  
BRANCH  23  24
HETATM   24  C   UNL     1     -11.416  15.695  64.266  1.00  0.00    -0.193 C  
BRANCH  24  25
HETATM   25  O   UNL     1     -10.858  14.425  64.593  1.00  0.00    -0.392 OA 
BRANCH  25  26
HETATM   26  C   UNL     1     -11.872  13.489  64.939  1.00  0.00    -0.374 C  
BRANCH  26  27
HETATM   27  C   UNL     1     -11.254  12.387  65.786  1.00  0.00    -0.333 C  
BRANCH  27  28
HETATM   28  O   UNL     1     -10.725  11.381  64.928  1.00  0.00    -0.295 OA 
BRANCH  28  29
HETATM   29  C   UNL     1     -10.134  10.325  65.678  1.00  0.00    -0.271 C  
BRANCH  29  30
HETATM   30  C   UNL     1     -10.035  10.750  67.134  1.00  0.00    -0.194 C  
BRANCH  30  31
HETATM   31  O   UNL     1      -9.651   9.626  67.920  1.00  0.00    -0.137 OA 
BRANCH  31  32
HETATM   32  C   UNL     1      -8.296   9.733  68.348  1.00  0.00    -0.110 C  
BRANCH  32  33
HETATM   33  C   UNL     1      -7.915  11.204  68.422  1.00  0.00    -0.137 C  
BRANCH  33  34
HETATM   34  O   UNL     1      -6.833  11.362  69.337  1.00  0.00    -0.109 OA 
BRANCH  34  35
HETATM   35  C   UNL     1      -6.162  12.604  69.139  1.00  0.00    -0.098 C  
BRANCH  35  36
HETATM   36  C   UNL     1      -5.731  13.152  70.493  1.00  0.00    -0.176 C  
BRANCH  36  37
HETATM   37  O   UNL     1      -6.272  14.461  70.676  1.00  0.00    -0.188 OA 
BRANCH  37  38
HETATM   38  C   UNL     1      -5.464  15.445  70.016  1.00  0.00    -0.123 C  
BRANCH  38  39
HETATM   39  C   UNL     1      -6.356  16.237  69.066  1.00  0.00    -0.153 C  
HETATM   40  O   UNL     1      -7.693  16.262  69.563  1.00  0.00    -0.179 OA 
HETATM   41  H   UNL     1      -8.248  16.755  68.971  1.00  0.00     0.000 HD 
ENDBRANCH  38  39
ENDBRANCH  37  38
ENDBRANCH  36  37
ENDBRANCH  35  36
ENDBRANCH  34  35
ENDBRANCH  33  34
ENDBRANCH  32  33
ENDBRANCH  31  32
ENDBRANCH  30  31
ENDBRANCH  29  30
ENDBRANCH  28  29
ENDBRANCH  27  28
ENDBRANCH  26  27
ENDBRANCH  25  26
ENDBRANCH  24  25
ENDBRANCH  23  24
ENDBRANCH  22  23
ENDBRANCH  21  22
ENDBRANCH  20  21
ENDBRANCH  19  20
ENDBRANCH  18  19
ENDBRANCH  17  18
ENDBRANCH  16  17
ENDBRANCH  15  16
ENDBRANCH  14  15
ENDBRANCH  13  14
ENDBRANCH  12  13
ENDBRANCH  11  12
ENDBRANCH  10  11
ENDBRANCH   9  10
ENDBRANCH   8   9
ENDBRANCH   7   8
ENDBRANCH   6   7
ENDBRANCH   5   6
ENDBRANCH   4   5
ENDBRANCH   3   4
ENDBRANCH   2   3
TORSDOF 37
ENDMDL
MODEL      144
REMARK 921   NORMALIZED FREE ENERGY PREDICTED BY IDOCK:   -2.82 KCAL/MOL
REMARK 922        TOTAL FREE ENERGY PREDICTED BY IDOCK:  -12.53 KCAL/MOL
REMARK 923 INTER-LIGAND FREE ENERGY PREDICTED BY IDOCK:   -9.93 KCAL/MOL
REMARK 924 INTRA-LIGAND FREE ENERGY PREDICTED BY IDOCK:   -2.60 KCAL/MOL
REMARK 927      BINDING AFFINITY PREDICTED BY RF-SCORE:    0.00 PKD
ROOT
HETATM    1  C   UNL     1     -12.538  15.642  73.661  1.00  0.00    -0.710 C  
HETATM    2  C   UNL     1     -13.402  14.636  72.920  1.00  0.00    -0.585 C  
ENDROOT
BRANCH   2   3
HETATM    3  C   UNL     1     -13.392  14.906  71.418  1.00  0.00    -0.487 C  
BRANCH   3   4
HETATM    4  C   UNL     1     -12.598  13.838  70.668  1.00  0.00    -0.386 C  
BRANCH   4   5
HETATM    5  C   UNL     1     -11.651  14.478  69.657  1.00  0.00    -0.346 C  
BRANCH   5   6
HETATM    6  C   UNL     1     -10.891  15.641  70.282  1.00  0.00    -0.366 C  
BRANCH   6   7
HETATM    7  C   UNL     1      -9.601  15.918  69.516  1.00  0.00    -0.239 C  
BRANCH   7   8
HETATM    8  C   UNL     1      -9.304  14.787  68.540  1.00  0.00    -0.199 C  
BRANCH   8   9
HETATM    9  C   UNL     1      -7.903  14.227  68.765  1.00  0.00    -0.128 C  
BRANCH   9  10
HETATM   10  C   UNL     1      -6.906  14.918  67.845  1.00  0.00    -0.171 C  
BRANCH  10  11
HETATM   11  C   UNL     1      -7.594  15.484  66.612  1.00  0.00     0.100 C  
BRANCH  11  12
HETATM   12  C   UNL     1      -7.282  16.963  66.464  1.00  0.00    -0.262 C  
BRANCH  12  13
HETATM   13  O   UNL     1      -8.311  17.556  65.682  1.00  0.00    -0.479 OA 
BRANCH  13  14
HETATM   14  C   UNL     1      -9.358  18.043  66.514  1.00  0.00    -0.285 C  
BRANCH  14  15
HETATM   15  C   UNL     1     -10.674  17.427  66.074  1.00  0.00    -0.122 C  
BRANCH  15  16
HETATM   16  O   UNL     1     -10.444  16.695  64.876  1.00  0.00    -0.657 OA 
BRANCH  16  17
HETATM   17  C   UNL     1     -10.882  15.346  65.002  1.00  0.00    -0.444 C  
BRANCH  17  18
HETATM   18  C   UNL     1     -12.167  15.180  64.206  1.00  0.00    -0.240 C  
BRANCH  18  19
HETATM   19  O   UNL     1     -12.248  13.840  63.738  1.00  0.00    -0.599 OA 
BRANCH  19  20
HETATM   20  C   UNL     1     -11.079  13.093  64.080  1.00  0.00    -0.394 C  
BRANCH  20  21
HETATM   21  C   UNL     1     -11.436  11.612  64.097  1.00  0.00    -0.280 C  
BRANCH  21  22
HETATM   22  O   UNL     1     -10.307  10.873  64.571  1.00  0.00    -0.325 OA 
BRANCH  22  23
HETATM   23  C   UNL     1      -9.700  11.510  65.689  1.00  0.00    -0.232 C  
BRANCH  23  24
HETATM   24  C   UNL     1      -9.556  10.498  66.816  1.00  0.00    -0.170 C  
BRANCH  24  25
HETATM   25  O   UNL     1     -10.404  10.888  67.892  1.00  0.00    -0.175 OA 
BRANCH  25  26
HETATM   26  C   UNL     1      -9.804  10.606  69.150  1.00  0.00    -0.200 C  
BRANCH  26  27
HETATM   27  C   UNL     1     -10.600   9.508  69.839  1.00  0.00    -0.241 C  
BRANCH  27  28
HETATM   28  O   UNL     1      -9.795   8.915  70.853  1.00  0.00    -0.202 OA 
BRANCH  28  29
HETATM   29  C   UNL     1      -8.415   9.187  70.637  1.00  0.00    -0.209 C  
BRANCH  29  30
HETATM   30  C   UNL     1      -7.602   8.510  71.728  1.00  0.00    -0.114 C  
BRANCH  30  31
HETATM   31  O   UNL     1      -6.879   7.422  71.160  1.00  0.00    -0.050 OA 
BRANCH  31  32
HETATM   32  C   UNL     1      -7.756   6.372  70.759  1.00  0.00    -0.102 C  
BRANCH  32  33
HETATM   33  C   UNL     1      -7.189   5.044  71.236  1.00  0.00    -0.068 C  
BRANCH  33  34
HETATM   34  O   UNL     1      -6.779   4.276  70.108  1.00  0.00    -0.032 OA 
BRANCH  34  35
HETATM   35  C   UNL     1      -7.021   4.973  68.889  1.00  0.00    -0.052 C  
BRANCH  35  36
HETATM   36  C   UNL     1      -7.321   3.960  67.793  1.00  0.00    -0.067 C  
BRANCH  36  37
HETATM   37  O   UNL     1      -7.868   4.628  66.655  1.00  0.00    -0.097 OA 
BRANCH  37  38
HETATM   38  C   UNL     1      -8.844   5.599  67.053  1.00  0.00    -0.111 C  
BRANCH  38  39
HETATM   39  C   UNL     1      -8.475   6.937  66.422  1.00  0.00    -0.130 C  
HETATM   40  O   UNL     1      -7.461   6.745  65.436  1.00  0.00    -0.076 OA 
HETATM   41  H   UNL     1      -7.231   7.578  65.043  1.00  0.00     0.000 HD 
ENDBRANCH  38  39
ENDBRANCH  37  38
ENDBRANCH  36  37
ENDBRANCH  35  36
ENDBRANCH  34  35
ENDBRANCH  33  34
ENDBRANCH  32  33
ENDBRANCH  31  32
ENDBRANCH  30  31
ENDBRANCH  29  30
ENDBRANCH  28  29
ENDBRANCH  27  28
ENDBRANCH  26  27
ENDBRANCH  25  26
ENDBRANCH  24  25
ENDBRANCH  23  24
ENDBRANCH  22  23
ENDBRANCH  21  22
ENDBRANCH  20  21
ENDBRANCH  19  20
ENDBRANCH  18  19
ENDBRANCH  17  18
ENDBRANCH  16  17
ENDBRANCH  15  16
ENDBRANCH  14  15
ENDBRANCH  13  14
ENDBRANCH  12  13
ENDBRANCH  11  12
ENDBRANCH  10  11
ENDBRANCH   9  10
ENDBRANCH   8   9
ENDBRANCH   7   8
ENDBRANCH   6   7
ENDBRANCH   5   6
ENDBRANCH   4   5
ENDBRANCH   3   4
ENDBRANCH   2   3
TORSDOF 37
ENDMDL
MODEL      145
REMARK 921   NORMALIZED FREE ENERGY PREDICTED BY IDOCK:   -2.81 KCAL/MOL
REMARK 922        TOTAL FREE ENERGY PREDICTED BY IDOCK:  -12.52 KCAL/MOL
REMARK 923 INTER-LIGAND FREE ENERGY PREDICTED BY IDOCK:  -10.47 KCAL/MOL
REMARK 924 INTRA-LIGAND FREE ENERGY PREDICTED BY IDOCK:   -2.05 KCAL/MOL
REMARK 927      BINDING AFFINITY PREDICTED BY RF-SCORE:    0.00 PKD
ROOT
HETATM    1  C   UNL     1     -11.272  13.935  68.687  1.00  0.00    -0.298 C  
HETATM    2  C   UNL     1      -9.764  14.085  68.575  1.00  0.00    -0.215 C  
ENDROOT
BRANCH   2   3
HETATM    3  C   UNL     1      -9.267  15.264  69.407  1.00  0.00    -0.233 C  
BRANCH   3   4
HETATM    4  C   UNL     1      -8.575  16.307  68.531  1.00  0.00    -0.211 C  
BRANCH   4   5
HETATM    5  C   UNL     1      -7.196  16.650  69.087  1.00  0.00    -0.220 C  
BRANCH   5   6
HETATM    6  C   UNL     1      -6.112  16.407  68.044  1.00  0.00    -0.128 C  
BRANCH   6   7
HETATM    7  C   UNL     1      -5.441  17.717  67.646  1.00  0.00    -0.141 C  
BRANCH   7   8
HETATM    8  C   UNL     1      -6.390  18.576  66.819  1.00  0.00    -0.201 C  
BRANCH   8   9
HETATM    9  C   UNL     1      -6.048  20.056  66.959  1.00  0.00    -0.198 C  
BRANCH   9  10
HETATM   10  C   UNL     1      -7.323  20.884  67.047  1.00  0.00    -0.325 C  
BRANCH  10  11
HETATM   11  C   UNL     1      -8.532  20.086  66.582  1.00  0.00    -0.370 C  
BRANCH  11  12
HETATM   12  C   UNL     1      -9.742  20.411  67.442  1.00  0.00    -0.457 C  
BRANCH  12  13
HETATM   13  O   UNL     1     -10.705  19.381  67.257  1.00  0.00    -0.459 OA 
BRANCH  13  14
HETATM   14  C   UNL     1     -10.631  18.856  65.936  1.00  0.00    -0.373 C  
BRANCH  14  15
HETATM   15  C   UNL     1     -10.634  17.339  66.000  1.00  0.00    -0.217 C  
BRANCH  15  16
HETATM   16  O   UNL     1     -10.770  16.838  64.675  1.00  0.00    -0.778 OA 
BRANCH  16  17
HETATM   17  C   UNL     1     -11.616  15.693  64.639  1.00  0.00    -0.249 C  
BRANCH  17  18
HETATM   18  C   UNL     1     -10.743  14.449  64.615  1.00  0.00    -0.336 C  
BRANCH  18  19
HETATM   19  O   UNL     1     -11.469  13.365  65.180  1.00  0.00    -0.290 OA 
BRANCH  19  20
HETATM   20  C   UNL     1     -11.457  12.222  64.323  1.00  0.00    -0.362 C  
BRANCH  20  21
HETATM   21  C   UNL     1     -10.045  11.649  64.298  1.00  0.00    -0.287 C  
BRANCH  21  22
HETATM   22  O   UNL     1      -9.643  11.362  65.640  1.00  0.00    -0.219 OA 
BRANCH  22  23
HETATM   23  C   UNL     1     -10.442  10.336  66.217  1.00  0.00    -0.144 C  
BRANCH  23  24
HETATM   24  C   UNL     1      -9.728   9.003  66.051  1.00  0.00    -0.269 C  
BRANCH  24  25
HETATM   25  O   UNL     1      -8.781   8.856  67.105  1.00  0.00    -0.119 OA 
BRANCH  25  26
HETATM   26  C   UNL     1      -9.147   7.801  67.985  1.00  0.00    -0.128 C  
BRANCH  26  27
HETATM   27  C   UNL     1      -8.234   6.610  67.728  1.00  0.00    -0.119 C  
BRANCH  27  28
HETATM   28  O   UNL     1      -8.937   5.642  66.956  1.00  0.00    -0.115 OA 
BRANCH  28  29
HETATM   29  C   UNL     1      -9.760   4.825  67.783  1.00  0.00    -0.156 C  
BRANCH  29  30
HETATM   30  C   UNL     1      -8.999   3.557  68.136  1.00  0.00    -0.134 C  
BRANCH  30  31
HETATM   31  O   UNL     1      -9.439   3.092  69.408  1.00  0.00    -0.165 OA 
BRANCH  31  32
HETATM   32  C   UNL     1      -8.376   3.100  70.358  1.00  0.00    -0.051 C  
BRANCH  32  33
HETATM   33  C   UNL     1      -8.749   4.020  71.511  1.00  0.00    -0.106 C  
BRANCH  33  34
HETATM   34  O   UNL     1     -10.136   4.338  71.427  1.00  0.00    -0.179 OA 
BRANCH  34  35
HETATM   35  C   UNL     1     -10.429   5.567  72.087  1.00  0.00    -0.220 C  
BRANCH  35  36
HETATM   36  C   UNL     1     -10.790   6.614  71.043  1.00  0.00    -0.245 C  
BRANCH  36  37
HETATM   37  O   UNL     1     -12.156   7.001  71.200  1.00  0.00    -0.333 OA 
BRANCH  37  38
HETATM   38  C   UNL     1     -12.269   8.140  72.063  1.00  0.00    -0.339 C  
BRANCH  38  39
HETATM   39  C   UNL     1     -13.611   8.812  71.797  1.00  0.00    -0.410 C  
HETATM   40  O   UNL     1     -13.863   9.804  72.790  1.00  0.00    -0.671 OA 
HETATM   41  H   UNL     1     -14.699  10.223  72.624  1.00  0.00     0.000 HD 
ENDBRANCH  38  39
ENDBRANCH  37  38
ENDBRANCH  36  37
ENDBRANCH  35  36
ENDBRANCH  34  35
ENDBRANCH  33  34
ENDBRANCH  32  33
ENDBRANCH  31  32
ENDBRANCH  30  31
ENDBRANCH  29  30
ENDBRANCH  28  29
ENDBRANCH  27  28
ENDBRANCH  26  27
ENDBRANCH  25  26
ENDBRANCH  24  25
ENDBRANCH  23  24
ENDBRANCH  22  23
ENDBRANCH  21  22
ENDBRANCH  20  21
ENDBRANCH  19  20
ENDBRANCH  18  19
ENDBRANCH  17  18
ENDBRANCH  16  17
ENDBRANCH  15  16
ENDBRANCH  14  15
ENDBRANCH  13  14
ENDBRANCH  12  13
ENDBRANCH  11  12
ENDBRANCH  10  11
ENDBRANCH   9  10
ENDBRANCH   8   9
ENDBRANCH   7   8
ENDBRANCH   6   7
ENDBRANCH   5   6
ENDBRANCH   4   5
ENDBRANCH   3   4
ENDBRANCH   2   3
TORSDOF 37
ENDMDL
MODEL      146
REMARK 921   NORMALIZED FREE ENERGY PREDICTED BY IDOCK:   -2.80 KCAL/MOL
REMARK 922        TOTAL FREE ENERGY PREDICTED BY IDOCK:  -12.48 KCAL/MOL
REMARK 923 INTER-LIGAND FREE ENERGY PREDICTED BY IDOCK:   -9.48 KCAL/MOL
REMARK 924 INTRA-LIGAND FREE ENERGY PREDICTED BY IDOCK:   -3.01 KCAL/MOL
REMARK 927      BINDING AFFINITY PREDICTED BY RF-SCORE:    0.00 PKD
ROOT
HETATM    1  C   UNL     1     -10.614  19.370  67.370  1.00  0.00    -0.603 C  
HETATM    2  C   UNL     1      -9.249  18.914  66.883  1.00  0.00    -0.322 C  
ENDROOT
BRANCH   2   3
HETATM    3  C   UNL     1      -8.872  17.567  67.492  1.00  0.00    -0.229 C  
BRANCH   3   4
HETATM    4  C   UNL     1      -8.533  16.545  66.408  1.00  0.00    -0.357 C  
BRANCH   4   5
HETATM    5  C   UNL     1      -9.796  15.856  65.900  1.00  0.00    -0.383 C  
BRANCH   5   6
HETATM    6  C   UNL     1      -9.753  14.359  66.187  1.00  0.00    -0.335 C  
BRANCH   6   7
HETATM    7  C   UNL     1     -10.242  14.067  67.602  1.00  0.00    -0.241 C  
BRANCH   7   8
HETATM    8  C   UNL     1      -9.351  13.030  68.274  1.00  0.00    -0.199 C  
BRANCH   8   9
HETATM    9  C   UNL     1      -8.570  12.229  67.239  1.00  0.00    -0.183 C  
BRANCH   9  10
HETATM   10  C   UNL     1      -7.084  12.240  67.576  1.00  0.00    -0.142 C  
BRANCH  10  11
HETATM   11  C   UNL     1      -6.687  10.996  68.356  1.00  0.00    -0.060 C  
BRANCH  11  12
HETATM   12  C   UNL     1      -6.325  11.362  69.785  1.00  0.00    -0.139 C  
BRANCH  12  13
HETATM   13  O   UNL     1      -7.012  10.472  70.657  1.00  0.00    -0.300 OA 
BRANCH  13  14
HETATM   14  C   UNL     1      -6.785   9.120  70.275  1.00  0.00    -0.055 C  
BRANCH  14  15
HETATM   15  C   UNL     1      -7.670   8.210  71.108  1.00  0.00    -0.091 C  
BRANCH  15  16
HETATM   16  O   UNL     1      -8.309   9.001  72.104  1.00  0.00    -0.362 OA 
BRANCH  16  17
HETATM   17  C   UNL     1      -8.564   8.242  73.281  1.00  0.00    -0.203 C  
BRANCH  17  18
HETATM   18  C   UNL     1      -9.654   7.229  72.975  1.00  0.00    -0.175 C  
BRANCH  18  19
HETATM   19  O   UNL     1     -10.919   7.874  73.055  1.00  0.00    -0.393 OA 
BRANCH  19  20
HETATM   20  C   UNL     1     -11.767   7.504  71.966  1.00  0.00    -0.294 C  
BRANCH  20  21
HETATM   21  C   UNL     1     -10.913   6.848  70.887  1.00  0.00    -0.253 C  
BRANCH  21  22
HETATM   22  O   UNL     1     -11.780   6.263  69.911  1.00  0.00    -0.408 OA 
BRANCH  22  23
HETATM   23  C   UNL     1     -11.230   6.357  68.602  1.00  0.00    -0.248 C  
BRANCH  23  24
HETATM   24  C   UNL     1      -9.796   5.850  68.632  1.00  0.00    -0.136 C  
BRANCH  24  25
HETATM   25  O   UNL     1      -9.808   4.433  68.484  1.00  0.00    -0.144 OA 
BRANCH  25  26
HETATM   26  C   UNL     1      -8.526   3.876  68.744  1.00  0.00    -0.078 C  
BRANCH  26  27
HETATM   27  C   UNL     1      -7.889   3.472  67.422  1.00  0.00    -0.078 C  
BRANCH  27  28
HETATM   28  O   UNL     1      -6.676   4.197  67.248  1.00  0.00    -0.045 OA 
BRANCH  28  29
HETATM   29  C   UNL     1      -6.882   5.358  66.449  1.00  0.00    -0.059 C  
BRANCH  29  30
HETATM   30  C   UNL     1      -6.396   6.577  67.216  1.00  0.00    -0.037 C  
BRANCH  30  31
HETATM   31  O   UNL     1      -7.141   7.716  66.796  1.00  0.00    -0.079 OA 
BRANCH  31  32
HETATM   32  C   UNL     1      -7.074   7.884  65.382  1.00  0.00    -0.060 C  
BRANCH  32  33
HETATM   33  C   UNL     1      -8.416   8.401  64.882  1.00  0.00    -0.122 C  
BRANCH  33  34
HETATM   34  O   UNL     1      -8.368   9.822  64.797  1.00  0.00    -0.136 OA 
BRANCH  34  35
HETATM   35  C   UNL     1      -9.199  10.310  63.747  1.00  0.00    -0.275 C  
BRANCH  35  36
HETATM   36  C   UNL     1     -10.357  11.089  64.355  1.00  0.00    -0.358 C  
BRANCH  36  37
HETATM   37  O   UNL     1     -10.660  12.219  63.535  1.00  0.00    -0.436 OA 
BRANCH  37  38
HETATM   38  C   UNL     1     -12.076  12.359  63.361  1.00  0.00    -0.524 C  
BRANCH  38  39
HETATM   39  C   UNL     1     -12.487  13.735  63.872  1.00  0.00    -0.202 C  
HETATM   40  O   UNL     1     -13.266  13.600  65.060  1.00  0.00    -0.729 OA 
HETATM   41  H   UNL     1     -13.522  14.457  65.378  1.00  0.00     0.000 HD 
ENDBRANCH  38  39
ENDBRANCH  37  38
ENDBRANCH  36  37
ENDBRANCH  35  36
ENDBRANCH  34  35
ENDBRANCH  33  34
ENDBRANCH  32  33
ENDBRANCH  31  32
ENDBRANCH  30  31
ENDBRANCH  29  30
ENDBRANCH  28  29
ENDBRANCH  27  28
ENDBRANCH  26  27
ENDBRANCH  25  26
ENDBRANCH  24  25
ENDBRANCH  23  24
ENDBRANCH  22  23
ENDBRANCH  21  22
ENDBRANCH  20  21
ENDBRANCH  19  20
ENDBRANCH  18  19
ENDBRANCH  17  18
ENDBRANCH  16  17
ENDBRANCH  15  16
ENDBRANCH  14  15
ENDBRANCH  13  14
ENDBRANCH  12  13
ENDBRANCH  11  12
ENDBRANCH  10  11
ENDBRANCH   9  10
ENDBRANCH   8   9
ENDBRANCH   7   8
ENDBRANCH   6   7
ENDBRANCH   5   6
ENDBRANCH   4   5
ENDBRANCH   3   4
ENDBRANCH   2   3
TORSDOF 37
ENDMDL
MODEL      147
REMARK 921   NORMALIZED FREE ENERGY PREDICTED BY IDOCK:   -2.79 KCAL/MOL
REMARK 922        TOTAL FREE ENERGY PREDICTED BY IDOCK:  -12.44 KCAL/MOL
REMARK 923 INTER-LIGAND FREE ENERGY PREDICTED BY IDOCK:   -9.90 KCAL/MOL
REMARK 924 INTRA-LIGAND FREE ENERGY PREDICTED BY IDOCK:   -2.54 KCAL/MOL
REMARK 927      BINDING AFFINITY PREDICTED BY RF-SCORE:    0.00 PKD
ROOT
HETATM    1  C   UNL     1     -10.160  18.347  69.043  1.00  0.00    -0.274 C  
HETATM    2  C   UNL     1      -9.512  19.517  68.322  1.00  0.00    -0.442 C  
ENDROOT
BRANCH   2   3
HETATM    3  C   UNL     1      -8.043  19.657  68.714  1.00  0.00    -0.301 C  
BRANCH   3   4
HETATM    4  C   UNL     1      -7.161  18.718  67.895  1.00  0.00    -0.253 C  
BRANCH   4   5
HETATM    5  C   UNL     1      -6.749  17.503  68.723  1.00  0.00    -0.225 C  
BRANCH   5   6
HETATM    6  C   UNL     1      -6.829  16.226  67.895  1.00  0.00    -0.152 C  
BRANCH   6   7
HETATM    7  C   UNL     1      -8.281  15.847  67.628  1.00  0.00    -0.164 C  
BRANCH   7   8
HETATM    8  C   UNL     1      -8.616  16.008  66.150  1.00  0.00    -0.315 C  
BRANCH   8   9
HETATM    9  C   UNL     1     -10.045  16.509  65.966  1.00  0.00    -0.368 C  
BRANCH   9  10
HETATM   10  C   UNL     1     -11.024  15.579  66.670  1.00  0.00    -0.248 C  
BRANCH  10  11
HETATM   11  C   UNL     1     -11.009  14.191  66.048  1.00  0.00    -0.304 C  
BRANCH  11  12
HETATM   12  C   UNL     1     -12.397  13.576  66.096  1.00  0.00    -0.407 C  
BRANCH  12  13
HETATM   13  O   UNL     1     -12.275  12.186  65.820  1.00  0.00    -0.586 OA 
BRANCH  13  14
HETATM   14  C   UNL     1     -11.028  11.688  66.293  1.00  0.00    -0.289 C  
BRANCH  14  15
HETATM   15  C   UNL     1     -11.253  10.918  67.582  1.00  0.00    -0.309 C  
BRANCH  15  16
HETATM   16  O   UNL     1     -10.842  11.741  68.669  1.00  0.00    -0.201 OA 
BRANCH  16  17
HETATM   17  C   UNL     1     -11.877  11.873  69.637  1.00  0.00    -0.337 C  
BRANCH  17  18
HETATM   18  C   UNL     1     -12.252  10.486  70.133  1.00  0.00    -0.280 C  
BRANCH  18  19
HETATM   19  O   UNL     1     -12.130  10.455  71.550  1.00  0.00    -0.353 OA 
BRANCH  19  20
HETATM   20  C   UNL     1     -13.003   9.483  72.130  1.00  0.00    -0.412 C  
BRANCH  20  21
HETATM   21  C   UNL     1     -12.292   8.135  72.138  1.00  0.00    -0.338 C  
BRANCH  21  22
HETATM   22  O   UNL     1     -10.981   8.312  72.681  1.00  0.00    -0.352 OA 
BRANCH  22  23
HETATM   23  C   UNL     1     -10.616   7.229  73.528  1.00  0.00    -0.362 C  
BRANCH  23  24
HETATM   24  C   UNL     1      -9.180   6.829  73.227  1.00  0.00    -0.134 C  
BRANCH  24  25
HETATM   25  O   UNL     1      -9.082   5.408  73.268  1.00  0.00    -0.127 OA 
BRANCH  25  26
HETATM   26  C   UNL     1      -9.557   4.823  72.062  1.00  0.00    -0.149 C  
BRANCH  26  27
HETATM   27  C   UNL     1      -9.032   5.632  70.885  1.00  0.00    -0.140 C  
BRANCH  27  28
HETATM   28  O   UNL     1     -10.108   5.907  69.993  1.00  0.00    -0.175 OA 
BRANCH  28  29
HETATM   29  C   UNL     1      -9.762   6.940  69.076  1.00  0.00    -0.150 C  
BRANCH  29  30
HETATM   30  C   UNL     1      -8.643   6.445  68.174  1.00  0.00    -0.117 C  
BRANCH  30  31
HETATM   31  O   UNL     1      -7.838   7.553  67.783  1.00  0.00    -0.113 OA 
BRANCH  31  32
HETATM   32  C   UNL     1      -8.585   8.489  67.011  1.00  0.00    -0.121 C  
BRANCH  32  33
HETATM   33  C   UNL     1      -8.637   8.009  65.567  1.00  0.00    -0.135 C  
BRANCH  33  34
HETATM   34  O   UNL     1      -7.395   7.395  65.233  1.00  0.00    -0.070 OA 
BRANCH  34  35
HETATM   35  C   UNL     1      -7.514   6.581  64.069  1.00  0.00    -0.082 C  
BRANCH  35  36
HETATM   36  C   UNL     1      -8.409   5.392  64.388  1.00  0.00    -0.129 C  
BRANCH  36  37
HETATM   37  O   UNL     1      -7.937   4.235  63.696  1.00  0.00    -0.084 OA 
BRANCH  37  38
HETATM   38  C   UNL     1      -8.840   3.135  63.864  1.00  0.00    -0.092 C  
BRANCH  38  39
HETATM   39  C   UNL     1     -10.222   3.573  63.392  1.00  0.00    -0.202 C  
HETATM   40  O   UNL     1     -11.226   2.797  64.045  1.00  0.00    -0.605 OA 
HETATM   41  H   UNL     1     -12.087   3.070  63.751  1.00  0.00     0.000 HD 
ENDBRANCH  38  39
ENDBRANCH  37  38
ENDBRANCH  36  37
ENDBRANCH  35  36
ENDBRANCH  34  35
ENDBRANCH  33  34
ENDBRANCH  32  33
ENDBRANCH  31  32
ENDBRANCH  30  31
ENDBRANCH  29  30
ENDBRANCH  28  29
ENDBRANCH  27  28
ENDBRANCH  26  27
ENDBRANCH  25  26
ENDBRANCH  24  25
ENDBRANCH  23  24
ENDBRANCH  22  23
ENDBRANCH  21  22
ENDBRANCH  20  21
ENDBRANCH  19  20
ENDBRANCH  18  19
ENDBRANCH  17  18
ENDBRANCH  16  17
ENDBRANCH  15  16
ENDBRANCH  14  15
ENDBRANCH  13  14
ENDBRANCH  12  13
ENDBRANCH  11  12
ENDBRANCH  10  11
ENDBRANCH   9  10
ENDBRANCH   8   9
ENDBRANCH   7   8
ENDBRANCH   6   7
ENDBRANCH   5   6
ENDBRANCH   4   5
ENDBRANCH   3   4
ENDBRANCH   2   3
TORSDOF 37
ENDMDL
MODEL      148
REMARK 921   NORMALIZED FREE ENERGY PREDICTED BY IDOCK:   -2.77 KCAL/MOL
REMARK 922        TOTAL FREE ENERGY PREDICTED BY IDOCK:  -12.37 KCAL/MOL
REMARK 923 INTER-LIGAND FREE ENERGY PREDICTED BY IDOCK:   -9.78 KCAL/MOL
REMARK 924 INTRA-LIGAND FREE ENERGY PREDICTED BY IDOCK:   -2.59 KCAL/MOL
REMARK 927      BINDING AFFINITY PREDICTED BY RF-SCORE:    0.00 PKD
ROOT
HETATM    1  C   UNL     1     -11.394   1.890  73.490  1.00  0.00    -0.311 C  
HETATM    2  C   UNL     1     -10.882   3.276  73.841  1.00  0.00    -0.298 C  
ENDROOT
BRANCH   2   3
HETATM    3  C   UNL     1     -10.630   4.102  72.582  1.00  0.00    -0.200 C  
BRANCH   3   4
HETATM    4  C   UNL     1     -11.346   5.449  72.652  1.00  0.00    -0.327 C  
BRANCH   4   5
HETATM    5  C   UNL     1     -10.339   6.594  72.727  1.00  0.00    -0.226 C  
BRANCH   5   6
HETATM    6  C   UNL     1      -9.841   6.789  74.155  1.00  0.00    -0.352 C  
BRANCH   6   7
HETATM    7  C   UNL     1      -8.347   6.498  74.250  1.00  0.00    -0.139 C  
BRANCH   7   8
HETATM    8  C   UNL     1      -7.721   6.449  72.863  1.00  0.00    -0.102 C  
BRANCH   8   9
HETATM    9  C   UNL     1      -7.189   5.053  72.553  1.00  0.00    -0.087 C  
BRANCH   9  10
HETATM   10  C   UNL     1      -6.788   4.956  71.087  1.00  0.00    -0.043 C  
BRANCH  10  11
HETATM   11  C   UNL     1      -7.371   6.106  70.279  1.00  0.00    -0.088 C  
BRANCH  11  12
HETATM   12  C   UNL     1      -8.348   5.579  69.241  1.00  0.00    -0.101 C  
BRANCH  12  13
HETATM   13  O   UNL     1      -7.844   5.908  67.952  1.00  0.00    -0.102 OA 
BRANCH  13  14
HETATM   14  C   UNL     1      -8.717   5.429  66.934  1.00  0.00    -0.112 C  
BRANCH  14  15
HETATM   15  C   UNL     1      -8.723   6.412  65.777  1.00  0.00    -0.127 C  
BRANCH  15  16
HETATM   16  O   UNL     1      -9.633   7.461  66.089  1.00  0.00    -0.097 OA 
BRANCH  16  17
HETATM   17  C   UNL     1      -9.088   8.734  65.760  1.00  0.00    -0.212 C  
BRANCH  17  18
HETATM   18  C   UNL     1      -8.126   8.560  64.595  1.00  0.00    -0.153 C  
BRANCH  18  19
HETATM   19  O   UNL     1      -8.809   8.863  63.385  1.00  0.00    -0.106 OA 
BRANCH  19  20
HETATM   20  C   UNL     1      -8.156   9.909  62.663  1.00  0.00    -0.130 C  
BRANCH  20  21
HETATM   21  C   UNL     1      -9.045  11.146  62.689  1.00  0.00    -0.330 C  
BRANCH  21  22
HETATM   22  O   UNL     1     -10.370  10.751  63.058  1.00  0.00    -0.207 OA 
BRANCH  22  23
HETATM   23  C   UNL     1     -10.893  11.578  64.091  1.00  0.00    -0.372 C  
BRANCH  23  24
HETATM   24  C   UNL     1     -12.184  12.218  63.605  1.00  0.00    -0.567 C  
BRANCH  24  25
HETATM   25  O   UNL     1     -12.985  12.549  64.736  1.00  0.00    -0.827 OA 
BRANCH  25  26
HETATM   26  C   UNL     1     -12.541  13.755  65.347  1.00  0.00    -0.497 C  
BRANCH  26  27
HETATM   27  C   UNL     1     -12.265  13.485  66.819  1.00  0.00    -0.340 C  
BRANCH  27  28
HETATM   28  O   UNL     1     -10.864  13.580  67.055  1.00  0.00    -0.278 OA 
BRANCH  28  29
HETATM   29  C   UNL     1     -10.322  12.321  67.439  1.00  0.00    -0.206 C  
BRANCH  29  30
HETATM   30  C   UNL     1      -8.960  12.544  68.076  1.00  0.00    -0.192 C  
BRANCH  30  31
HETATM   31  O   UNL     1      -8.063  13.042  67.089  1.00  0.00    -0.171 OA 
BRANCH  31  32
HETATM   32  C   UNL     1      -7.091  13.912  67.664  1.00  0.00    -0.177 C  
BRANCH  32  33
HETATM   33  C   UNL     1      -7.674  15.314  67.758  1.00  0.00    -0.149 C  
BRANCH  33  34
HETATM   34  O   UNL     1      -8.091  15.736  66.462  1.00  0.00    -0.265 OA 
BRANCH  34  35
HETATM   35  C   UNL     1      -9.366  16.371  66.506  1.00  0.00    -0.273 C  
BRANCH  35  36
HETATM   36  C   UNL     1      -9.790  16.525  67.960  1.00  0.00    -0.240 C  
BRANCH  36  37
HETATM   37  O   UNL     1     -11.178  16.854  68.024  1.00  0.00    -0.271 OA 
BRANCH  37  38
HETATM   38  C   UNL     1     -11.882  15.938  68.873  1.00  0.00    -0.304 C  
BRANCH  38  39
HETATM   39  C   UNL     1     -10.949  15.521  70.005  1.00  0.00    -0.319 C  
HETATM   40  O   UNL     1     -11.244  14.185  70.410  1.00  0.00    -0.483 OA 
HETATM   41  H   UNL     1     -10.663  13.925  71.114  1.00  0.00     0.000 HD 
ENDBRANCH  38  39
ENDBRANCH  37  38
ENDBRANCH  36  37
ENDBRANCH  35  36
ENDBRANCH  34  35
ENDBRANCH  33  34
ENDBRANCH  32  33
ENDBRANCH  31  32
ENDBRANCH  30  31
ENDBRANCH  29  30
ENDBRANCH  28  29
ENDBRANCH  27  28
ENDBRANCH  26  27
ENDBRANCH  25  26
ENDBRANCH  24  25
ENDBRANCH  23  24
ENDBRANCH  22  23
ENDBRANCH  21  22
ENDBRANCH  20  21
ENDBRANCH  19  20
ENDBRANCH  18  19
ENDBRANCH  17  18
ENDBRANCH  16  17
ENDBRANCH  15  16
ENDBRANCH  14  15
ENDBRANCH  13  14
ENDBRANCH  12  13
ENDBRANCH  11  12
ENDBRANCH  10  11
ENDBRANCH   9  10
ENDBRANCH   8   9
ENDBRANCH   7   8
ENDBRANCH   6   7
ENDBRANCH   5   6
ENDBRANCH   4   5
ENDBRANCH   3   4
ENDBRANCH   2   3
TORSDOF 37
ENDMDL
MODEL      149
REMARK 921   NORMALIZED FREE ENERGY PREDICTED BY IDOCK:   -2.76 KCAL/MOL
REMARK 922        TOTAL FREE ENERGY PREDICTED BY IDOCK:  -12.36 KCAL/MOL
REMARK 923 INTER-LIGAND FREE ENERGY PREDICTED BY IDOCK:   -9.82 KCAL/MOL
REMARK 924 INTRA-LIGAND FREE ENERGY PREDICTED BY IDOCK:   -2.55 KCAL/MOL
REMARK 927      BINDING AFFINITY PREDICTED BY RF-SCORE:    0.00 PKD
ROOT
HETATM    1  C   UNL     1      -9.383   2.729  67.878  1.00  0.00    -0.251 C  
HETATM    2  C   UNL     1      -8.977   4.129  68.305  1.00  0.00    -0.154 C  
ENDROOT
BRANCH   2   3
HETATM    3  C   UNL     1      -7.545   4.148  68.831  1.00  0.00    -0.055 C  
BRANCH   3   4
HETATM    4  C   UNL     1      -7.439   4.961  70.120  1.00  0.00    -0.059 C  
BRANCH   4   5
HETATM    5  C   UNL     1      -8.642   5.887  70.275  1.00  0.00    -0.134 C  
BRANCH   5   6
HETATM    6  C   UNL     1      -9.167   5.865  71.706  1.00  0.00    -0.157 C  
BRANCH   6   7
HETATM    7  C   UNL     1     -10.444   5.037  71.799  1.00  0.00    -0.246 C  
BRANCH   7   8
HETATM    8  C   UNL     1     -11.603   5.891  72.295  1.00  0.00    -0.338 C  
BRANCH   8   9
HETATM    9  C   UNL     1     -12.058   6.871  71.219  1.00  0.00    -0.419 C  
BRANCH   9  10
HETATM   10  C   UNL     1     -12.590   8.147  71.859  1.00  0.00    -0.368 C  
BRANCH  10  11
HETATM   11  C   UNL     1     -11.590   9.286  71.729  1.00  0.00    -0.458 C  
BRANCH  11  12
HETATM   12  C   UNL     1     -10.590   8.988  70.626  1.00  0.00    -0.236 C  
BRANCH  12  13
HETATM   13  O   UNL     1     -11.000   9.686  69.457  1.00  0.00    -0.232 OA 
BRANCH  13  14
HETATM   14  C   UNL     1     -10.388   9.129  68.298  1.00  0.00    -0.214 C  
BRANCH  14  15
HETATM   15  C   UNL     1      -8.929   9.544  68.254  1.00  0.00    -0.124 C  
BRANCH  15  16
HETATM   16  O   UNL     1      -8.135   8.368  68.143  1.00  0.00    -0.117 OA 
BRANCH  16  17
HETATM   17  C   UNL     1      -7.699   8.163  66.804  1.00  0.00    -0.095 C  
BRANCH  17  18
HETATM   18  C   UNL     1      -7.689   9.505  66.090  1.00  0.00    -0.101 C  
BRANCH  18  19
HETATM   19  O   UNL     1      -8.199   9.329  64.774  1.00  0.00    -0.131 OA 
BRANCH  19  20
HETATM   20  C   UNL     1      -8.640  10.568  64.214  1.00  0.00    -0.152 C  
BRANCH  20  21
HETATM   21  C   UNL     1      -9.374  10.277  62.910  1.00  0.00    -0.311 C  
BRANCH  21  22
HETATM   22  O   UNL     1     -10.538  11.105  62.845  1.00  0.00    -0.127 OA 
BRANCH  22  23
HETATM   23  C   UNL     1     -10.911  11.584  64.131  1.00  0.00    -0.372 C  
BRANCH  23  24
HETATM   24  C   UNL     1     -11.987  12.647  63.970  1.00  0.00    -0.451 C  
BRANCH  24  25
HETATM   25  O   UNL     1     -12.904  12.537  65.056  1.00  0.00    -0.742 OA 
BRANCH  25  26
HETATM   26  C   UNL     1     -13.029  13.771  65.752  1.00  0.00    -0.256 C  
BRANCH  26  27
HETATM   27  C   UNL     1     -11.684  14.124  66.369  1.00  0.00    -0.390 C  
BRANCH  27  28
HETATM   28  O   UNL     1     -11.358  13.156  67.361  1.00  0.00    -0.277 OA 
BRANCH  28  29
HETATM   29  C   UNL     1      -9.949  12.983  67.466  1.00  0.00    -0.212 C  
BRANCH  29  30
HETATM   30  C   UNL     1      -9.261  13.962  66.528  1.00  0.00    -0.200 C  
BRANCH  30  31
HETATM   31  O   UNL     1      -8.019  14.357  67.101  1.00  0.00    -0.192 OA 
BRANCH  31  32
HETATM   32  C   UNL     1      -8.213  15.045  68.334  1.00  0.00    -0.151 C  
BRANCH  32  33
HETATM   33  C   UNL     1      -8.225  16.544  68.068  1.00  0.00    -0.172 C  
BRANCH  33  34
HETATM   34  O   UNL     1      -6.996  17.109  68.516  1.00  0.00    -0.183 OA 
BRANCH  34  35
HETATM   35  C   UNL     1      -6.324  17.794  67.462  1.00  0.00    -0.166 C  
BRANCH  35  36
HETATM   36  C   UNL     1      -6.599  19.286  67.591  1.00  0.00    -0.210 C  
BRANCH  36  37
HETATM   37  O   UNL     1      -7.788  19.620  66.873  1.00  0.00    -0.256 OA 
BRANCH  37  38
HETATM   38  C   UNL     1      -8.764  20.205  67.745  1.00  0.00    -0.258 C  
BRANCH  38  39
HETATM   39  C   UNL     1     -10.060  19.413  67.613  1.00  0.00    -0.397 C  
HETATM   40  O   UNL     1     -10.687  19.712  66.366  1.00  0.00    -0.458 OA 
HETATM   41  H   UNL     1     -11.494  19.218  66.284  1.00  0.00     0.000 HD 
ENDBRANCH  38  39
ENDBRANCH  37  38
ENDBRANCH  36  37
ENDBRANCH  35  36
ENDBRANCH  34  35
ENDBRANCH  33  34
ENDBRANCH  32  33
ENDBRANCH  31  32
ENDBRANCH  30  31
ENDBRANCH  29  30
ENDBRANCH  28  29
ENDBRANCH  27  28
ENDBRANCH  26  27
ENDBRANCH  25  26
ENDBRANCH  24  25
ENDBRANCH  23  24
ENDBRANCH  22  23
ENDBRANCH  21  22
ENDBRANCH  20  21
ENDBRANCH  19  20
ENDBRANCH  18  19
ENDBRANCH  17  18
ENDBRANCH  16  17
ENDBRANCH  15  16
ENDBRANCH  14  15
ENDBRANCH  13  14
ENDBRANCH  12  13
ENDBRANCH  11  12
ENDBRANCH  10  11
ENDBRANCH   9  10
ENDBRANCH   8   9
ENDBRANCH   7   8
ENDBRANCH   6   7
ENDBRANCH   5   6
ENDBRANCH   4   5
ENDBRANCH   3   4
ENDBRANCH   2   3
TORSDOF 37
ENDMDL
MODEL      150
REMARK 921   NORMALIZED FREE ENERGY PREDICTED BY IDOCK:   -2.76 KCAL/MOL
REMARK 922        TOTAL FREE ENERGY PREDICTED BY IDOCK:  -12.36 KCAL/MOL
REMARK 923 INTER-LIGAND FREE ENERGY PREDICTED BY IDOCK:  -10.14 KCAL/MOL
REMARK 924 INTRA-LIGAND FREE ENERGY PREDICTED BY IDOCK:   -2.22 KCAL/MOL
REMARK 927      BINDING AFFINITY PREDICTED BY RF-SCORE:    0.00 PKD
ROOT
HETATM    1  C   UNL     1     -12.527  16.235  74.454  1.00  0.00    -0.597 C  
HETATM    2  C   UNL     1     -12.224  15.861  73.013  1.00  0.00    -0.609 C  
ENDROOT
BRANCH   2   3
HETATM    3  C   UNL     1     -13.478  15.363  72.300  1.00  0.00    -0.573 C  
BRANCH   3   4
HETATM    4  C   UNL     1     -13.289  13.942  71.775  1.00  0.00    -0.461 C  
BRANCH   4   5
HETATM    5  C   UNL     1     -12.389  13.936  70.542  1.00  0.00    -0.439 C  
BRANCH   5   6
HETATM    6  C   UNL     1     -12.330  15.319  69.904  1.00  0.00    -0.323 C  
BRANCH   6   7
HETATM    7  C   UNL     1     -11.541  15.278  68.599  1.00  0.00    -0.370 C  
BRANCH   7   8
HETATM    8  C   UNL     1     -11.266  13.839  68.182  1.00  0.00    -0.298 C  
BRANCH   8   9
HETATM    9  C   UNL     1     -12.100  13.456  66.964  1.00  0.00    -0.390 C  
BRANCH   9  10
HETATM   10  C   UNL     1     -12.028  14.555  65.911  1.00  0.00    -0.315 C  
BRANCH  10  11
HETATM   11  C   UNL     1     -10.629  14.665  65.323  1.00  0.00    -0.409 C  
BRANCH  11  12
HETATM   12  C   UNL     1     -10.314  13.443  64.477  1.00  0.00    -0.373 C  
BRANCH  12  13
HETATM   13  O   UNL     1     -11.348  13.295  63.511  1.00  0.00    -0.277 OA 
BRANCH  13  14
HETATM   14  C   UNL     1     -11.737  11.931  63.395  1.00  0.00    -0.403 C  
BRANCH  14  15
HETATM   15  C   UNL     1     -10.569  11.043  63.788  1.00  0.00    -0.295 C  
BRANCH  15  16
HETATM   16  O   UNL     1      -9.858  10.694  62.606  1.00  0.00    -0.263 OA 
BRANCH  16  17
HETATM   17  C   UNL     1      -8.817   9.764  62.885  1.00  0.00    -0.250 C  
BRANCH  17  18
HETATM   18  C   UNL     1      -7.490  10.395  62.497  1.00  0.00    -0.141 C  
BRANCH  18  19
HETATM   19  O   UNL     1      -6.476   9.907  63.367  1.00  0.00    -0.114 OA 
BRANCH  19  20
HETATM   20  C   UNL     1      -6.978   9.695  64.689  1.00  0.00    -0.112 C  
BRANCH  20  21
HETATM   21  C   UNL     1      -5.914  10.132  65.688  1.00  0.00    -0.092 C  
BRANCH  21  22
HETATM   22  O   UNL     1      -5.834   9.153  66.729  1.00  0.00    -0.050 OA 
BRANCH  22  23
HETATM   23  C   UNL     1      -7.118   8.646  67.068  1.00  0.00    -0.075 C  
BRANCH  23  24
HETATM   24  C   UNL     1      -7.057   8.040  68.462  1.00  0.00    -0.080 C  
BRANCH  24  25
HETATM   25  O   UNL     1      -6.724   6.659  68.346  1.00  0.00    -0.059 OA 
BRANCH  25  26
HETATM   26  C   UNL     1      -5.668   6.307  69.231  1.00  0.00    -0.020 C  
BRANCH  26  27
HETATM   27  C   UNL     1      -6.046   6.736  70.641  1.00  0.00    -0.028 C  
BRANCH  27  28
HETATM   28  O   UNL     1      -6.558   5.612  71.349  1.00  0.00    -0.042 OA 
BRANCH  28  29
HETATM   29  C   UNL     1      -6.516   5.829  72.756  1.00  0.00    -0.063 C  
BRANCH  29  30
HETATM   30  C   UNL     1      -7.900   6.238  73.233  1.00  0.00    -0.099 C  
BRANCH  30  31
HETATM   31  O   UNL     1      -8.872   5.420  72.590  1.00  0.00    -0.123 OA 
BRANCH  31  32
HETATM   32  C   UNL     1     -10.190   5.738  73.033  1.00  0.00    -0.187 C  
BRANCH  32  33
HETATM   33  C   UNL     1     -10.754   6.844  72.152  1.00  0.00    -0.219 C  
BRANCH  33  34
HETATM   34  O   UNL     1     -11.590   6.266  71.154  1.00  0.00    -0.318 OA 
BRANCH  34  35
HETATM   35  C   UNL     1     -11.132   6.586  69.843  1.00  0.00    -0.371 C  
BRANCH  35  36
HETATM   36  C   UNL     1     -10.499   7.970  69.865  1.00  0.00    -0.233 C  
BRANCH  36  37
HETATM   37  O   UNL     1     -11.408   8.924  69.314  1.00  0.00     0.112 OA 
BRANCH  37  38
HETATM   38  C   UNL     1     -11.208  10.217  69.898  1.00  0.00    -0.299 C  
BRANCH  38  39
HETATM   39  C   UNL     1     -12.117  10.338  71.117  1.00  0.00    -0.395 C  
HETATM   40  O   UNL     1     -13.473  10.111  70.736  1.00  0.00    -0.488 OA 
HETATM   41  H   UNL     1     -14.038  10.186  71.495  1.00  0.00     0.000 HD 
ENDBRANCH  38  39
ENDBRANCH  37  38
ENDBRANCH  36  37
ENDBRANCH  35  36
ENDBRANCH  34  35
ENDBRANCH  33  34
ENDBRANCH  32  33
ENDBRANCH  31  32
ENDBRANCH  30  31
ENDBRANCH  29  30
ENDBRANCH  28  29
ENDBRANCH  27  28
ENDBRANCH  26  27
ENDBRANCH  25  26
ENDBRANCH  24  25
ENDBRANCH  23  24
ENDBRANCH  22  23
ENDBRANCH  21  22
ENDBRANCH  20  21
ENDBRANCH  19  20
ENDBRANCH  18  19
ENDBRANCH  17  18
ENDBRANCH  16  17
ENDBRANCH  15  16
ENDBRANCH  14  15
ENDBRANCH  13  14
ENDBRANCH  12  13
ENDBRANCH  11  12
ENDBRANCH  10  11
ENDBRANCH   9  10
ENDBRANCH   8   9
ENDBRANCH   7   8
ENDBRANCH   6   7
ENDBRANCH   5   6
ENDBRANCH   4   5
ENDBRANCH   3   4
ENDBRANCH   2   3
TORSDOF 37
ENDMDL
MODEL      151
REMARK 921   NORMALIZED FREE ENERGY PREDICTED BY IDOCK:   -2.76 KCAL/MOL
REMARK 922        TOTAL FREE ENERGY PREDICTED BY IDOCK:  -12.34 KCAL/MOL
REMARK 923 INTER-LIGAND FREE ENERGY PREDICTED BY IDOCK:   -9.25 KCAL/MOL
REMARK 924 INTRA-LIGAND FREE ENERGY PREDICTED BY IDOCK:   -3.09 KCAL/MOL
REMARK 927      BINDING AFFINITY PREDICTED BY RF-SCORE:    0.00 PKD
ROOT
HETATM    1  C   UNL     1      -6.531  19.193  69.351  1.00  0.00    -0.337 C  
HETATM    2  C   UNL     1      -5.434  18.221  68.950  1.00  0.00    -0.197 C  
ENDROOT
BRANCH   2   3
HETATM    3  C   UNL     1      -5.932  16.779  69.006  1.00  0.00    -0.163 C  
BRANCH   3   4
HETATM    4  C   UNL     1      -5.819  16.102  67.642  1.00  0.00    -0.174 C  
BRANCH   4   5
HETATM    5  C   UNL     1      -7.179  15.583  67.182  1.00  0.00    -0.208 C  
BRANCH   5   6
HETATM    6  C   UNL     1      -7.945  16.659  66.422  1.00  0.00    -0.360 C  
BRANCH   6   7
HETATM    7  C   UNL     1      -9.294  16.928  67.080  1.00  0.00    -0.241 C  
BRANCH   7   8
HETATM    8  C   UNL     1     -10.424  16.772  66.071  1.00  0.00    -0.300 C  
BRANCH   8   9
HETATM    9  C   UNL     1     -10.350  15.418  65.374  1.00  0.00    -0.422 C  
BRANCH   9  10
HETATM   10  C   UNL     1     -10.658  14.300  66.361  1.00  0.00    -0.286 C  
BRANCH  10  11
HETATM   11  C   UNL     1     -12.151  14.201  66.633  1.00  0.00    -0.480 C  
BRANCH  11  12
HETATM   12  C   UNL     1     -12.898  13.846  65.359  1.00  0.00    -0.427 C  
BRANCH  12  13
HETATM   13  O   UNL     1     -12.782  12.443  65.155  1.00  0.00    -0.630 OA 
BRANCH  13  14
HETATM   14  C   UNL     1     -12.650  12.146  63.769  1.00  0.00    -0.475 C  
BRANCH  14  15
HETATM   15  C   UNL     1     -11.179  12.146  63.395  1.00  0.00    -0.414 C  
BRANCH  15  16
HETATM   16  O   UNL     1     -10.504  11.226  64.244  1.00  0.00    -0.309 OA 
BRANCH  16  17
HETATM   17  C   UNL     1      -9.732  10.296  63.491  1.00  0.00    -0.193 C  
BRANCH  17  18
HETATM   18  C   UNL     1      -8.396  10.939  63.155  1.00  0.00     0.015 C  
BRANCH  18  19
HETATM   19  O   UNL     1      -7.351  10.117  63.659  1.00  0.00    -0.141 OA 
BRANCH  19  20
HETATM   20  C   UNL     1      -7.638   9.652  64.979  1.00  0.00    -0.116 C  
BRANCH  20  21
HETATM   21  C   UNL     1      -6.612  10.245  65.937  1.00  0.00    -0.113 C  
BRANCH  21  22
HETATM   22  O   UNL     1      -7.184  11.394  66.568  1.00  0.00    -0.128 OA 
BRANCH  22  23
HETATM   23  C   UNL     1      -8.495  11.127  67.050  1.00  0.00    -0.146 C  
BRANCH  23  24
HETATM   24  C   UNL     1      -8.425  10.847  68.543  1.00  0.00    -0.147 C  
BRANCH  24  25
HETATM   25  O   UNL     1      -7.327  11.570  69.093  1.00  0.00    -0.111 OA 
BRANCH  25  26
HETATM   26  C   UNL     1      -6.601  10.776  70.024  1.00  0.00    -0.159 C  
BRANCH  26  27
HETATM   27  C   UNL     1      -5.504  10.029  69.279  1.00  0.00    -0.034 C  
BRANCH  27  28
HETATM   28  O   UNL     1      -5.545   8.654  69.646  1.00  0.00    -0.029 OA 
BRANCH  28  29
HETATM   29  C   UNL     1      -5.316   7.815  68.519  1.00  0.00    -0.027 C  
BRANCH  29  30
HETATM   30  C   UNL     1      -6.545   6.950  68.291  1.00  0.00    -0.058 C  
BRANCH  30  31
HETATM   31  O   UNL     1      -7.390   7.034  69.434  1.00  0.00    -0.086 OA 
BRANCH  31  32
HETATM   32  C   UNL     1      -7.440   5.794  70.134  1.00  0.00    -0.081 C  
BRANCH  32  33
HETATM   33  C   UNL     1      -8.174   5.998  71.451  1.00  0.00    -0.123 C  
BRANCH  33  34
HETATM   34  O   UNL     1      -9.566   6.159  71.192  1.00  0.00    -0.173 OA 
BRANCH  34  35
HETATM   35  C   UNL     1      -9.952   7.529  71.252  1.00  0.00    -0.186 C  
BRANCH  35  36
HETATM   36  C   UNL     1     -10.949   7.811  70.137  1.00  0.00    -0.241 C  
BRANCH  36  37
HETATM   37  O   UNL     1     -10.342   7.547  68.871  1.00  0.00    -0.204 OA 
BRANCH  37  38
HETATM   38  C   UNL     1     -10.994   6.455  68.210  1.00  0.00    -0.312 C  
BRANCH  38  39
HETATM   39  C   UNL     1     -10.708   6.560  66.716  1.00  0.00    -0.273 C  
HETATM   40  O   UNL     1     -11.093   5.352  66.061  1.00  0.00    -0.761 OA 
HETATM   41  H   UNL     1     -10.916   5.418  65.131  1.00  0.00     0.000 HD 
ENDBRANCH  38  39
ENDBRANCH  37  38
ENDBRANCH  36  37
ENDBRANCH  35  36
ENDBRANCH  34  35
ENDBRANCH  33  34
ENDBRANCH  32  33
ENDBRANCH  31  32
ENDBRANCH  30  31
ENDBRANCH  29  30
ENDBRANCH  28  29
ENDBRANCH  27  28
ENDBRANCH  26  27
ENDBRANCH  25  26
ENDBRANCH  24  25
ENDBRANCH  23  24
ENDBRANCH  22  23
ENDBRANCH  21  22
ENDBRANCH  20  21
ENDBRANCH  19  20
ENDBRANCH  18  19
ENDBRANCH  17  18
ENDBRANCH  16  17
ENDBRANCH  15  16
ENDBRANCH  14  15
ENDBRANCH  13  14
ENDBRANCH  12  13
ENDBRANCH  11  12
ENDBRANCH  10  11
ENDBRANCH   9  10
ENDBRANCH   8   9
ENDBRANCH   7   8
ENDBRANCH   6   7
ENDBRANCH   5   6
ENDBRANCH   4   5
ENDBRANCH   3   4
ENDBRANCH   2   3
TORSDOF 37
ENDMDL
MODEL      152
REMARK 921   NORMALIZED FREE ENERGY PREDICTED BY IDOCK:   -2.73 KCAL/MOL
REMARK 922        TOTAL FREE ENERGY PREDICTED BY IDOCK:  -12.27 KCAL/MOL
REMARK 923 INTER-LIGAND FREE ENERGY PREDICTED BY IDOCK:   -8.65 KCAL/MOL
REMARK 924 INTRA-LIGAND FREE ENERGY PREDICTED BY IDOCK:   -3.62 KCAL/MOL
REMARK 927      BINDING AFFINITY PREDICTED BY RF-SCORE:    0.00 PKD
ROOT
HETATM    1  C   UNL     1      -9.910  20.001  67.877  1.00  0.00    -0.538 C  
HETATM    2  C   UNL     1      -8.856  18.910  67.799  1.00  0.00    -0.318 C  
ENDROOT
BRANCH   2   3
HETATM    3  C   UNL     1      -9.087  18.009  66.589  1.00  0.00    -0.290 C  
BRANCH   3   4
HETATM    4  C   UNL     1      -9.320  16.561  67.014  1.00  0.00    -0.242 C  
BRANCH   4   5
HETATM    5  C   UNL     1     -10.812  16.250  67.085  1.00  0.00    -0.190 C  
BRANCH   5   6
HETATM    6  C   UNL     1     -11.255  16.030  68.527  1.00  0.00    -0.374 C  
BRANCH   6   7
HETATM    7  C   UNL     1     -11.999  14.706  68.667  1.00  0.00    -0.305 C  
BRANCH   7   8
HETATM    8  C   UNL     1     -11.035  13.533  68.541  1.00  0.00    -0.291 C  
BRANCH   8   9
HETATM    9  C   UNL     1     -11.753  12.289  68.029  1.00  0.00    -0.417 C  
BRANCH   9  10
HETATM   10  C   UNL     1     -11.707  12.243  66.507  1.00  0.00    -0.420 C  
BRANCH  10  11
HETATM   11  C   UNL     1     -10.395  12.805  65.979  1.00  0.00    -0.291 C  
BRANCH  11  12
HETATM   12  C   UNL     1      -9.347  11.709  65.895  1.00  0.00    -0.218 C  
BRANCH  12  13
HETATM   13  O   UNL     1     -10.015  10.475  65.660  1.00  0.00    -0.239 OA 
BRANCH  13  14
HETATM   14  C   UNL     1      -9.533   9.861  64.469  1.00  0.00    -0.264 C  
BRANCH  14  15
HETATM   15  C   UNL     1      -8.394   8.920  64.817  1.00  0.00    -0.175 C  
BRANCH  15  16
HETATM   16  O   UNL     1      -8.617   8.418  66.130  1.00  0.00    -0.125 OA 
BRANCH  16  17
HETATM   17  C   UNL     1      -9.052   7.063  66.098  1.00  0.00    -0.115 C  
BRANCH  17  18
HETATM   18  C   UNL     1      -8.214   6.312  65.076  1.00  0.00    -0.132 C  
BRANCH  18  19
HETATM   19  O   UNL     1      -8.851   5.075  64.779  1.00  0.00    -0.153 OA 
BRANCH  19  20
HETATM   20  C   UNL     1      -8.131   3.969  65.329  1.00  0.00    -0.101 C  
BRANCH  20  21
HETATM   21  C   UNL     1      -8.932   3.400  66.493  1.00  0.00    -0.150 C  
BRANCH  21  22
HETATM   22  O   UNL     1      -8.397   3.919  67.714  1.00  0.00    -0.092 OA 
BRANCH  22  23
HETATM   23  C   UNL     1      -8.766   3.116  68.829  1.00  0.00    -0.098 C  
BRANCH  23  24
HETATM   24  C   UNL     1      -9.643   3.938  69.761  1.00  0.00    -0.201 C  
BRANCH  24  25
HETATM   25  O   UNL     1      -9.547   5.310  69.387  1.00  0.00    -0.133 OA 
BRANCH  25  26
HETATM   26  C   UNL     1     -10.834   5.895  69.237  1.00  0.00    -0.344 C  
BRANCH  26  27
HETATM   27  C   UNL     1     -10.698   7.409  69.324  1.00  0.00    -0.185 C  
BRANCH  27  28
HETATM   28  O   UNL     1     -11.774   7.930  70.097  1.00  0.00    -0.037 OA 
BRANCH  28  29
HETATM   29  C   UNL     1     -11.460   9.222  70.607  1.00  0.00    -0.274 C  
BRANCH  29  30
HETATM   30  C   UNL     1     -11.905   9.301  72.059  1.00  0.00    -0.300 C  
BRANCH  30  31
HETATM   31  O   UNL     1     -11.890   7.992  72.619  1.00  0.00    -0.377 OA 
BRANCH  31  32
HETATM   32  C   UNL     1     -10.635   7.704  73.231  1.00  0.00    -0.352 C  
BRANCH  32  33
HETATM   33  C   UNL     1     -10.200   6.302  72.832  1.00  0.00    -0.190 C  
BRANCH  33  34
HETATM   34  O   UNL     1      -8.871   6.351  72.319  1.00  0.00    -0.135 OA 
BRANCH  34  35
HETATM   35  C   UNL     1      -8.385   7.690  72.263  1.00  0.00    -0.108 C  
BRANCH  35  36
HETATM   36  C   UNL     1      -7.536   7.854  71.010  1.00  0.00    -0.082 C  
BRANCH  36  37
HETATM   37  O   UNL     1      -6.433   8.719  71.286  1.00  0.00    -0.058 OA 
BRANCH  37  38
HETATM   38  C   UNL     1      -6.483   9.891  70.462  1.00  0.00    -0.116 C  
BRANCH  38  39
HETATM   39  C   UNL     1      -7.733   9.811  69.592  1.00  0.00    -0.136 C  
HETATM   40  O   UNL     1      -7.366   9.818  68.213  1.00  0.00    -0.078 OA 
HETATM   41  H   UNL     1      -8.144   9.769  67.671  1.00  0.00     0.000 HD 
ENDBRANCH  38  39
ENDBRANCH  37  38
ENDBRANCH  36  37
ENDBRANCH  35  36
ENDBRANCH  34  35
ENDBRANCH  33  34
ENDBRANCH  32  33
ENDBRANCH  31  32
ENDBRANCH  30  31
ENDBRANCH  29  30
ENDBRANCH  28  29
ENDBRANCH  27  28
ENDBRANCH  26  27
ENDBRANCH  25  26
ENDBRANCH  24  25
ENDBRANCH  23  24
ENDBRANCH  22  23
ENDBRANCH  21  22
ENDBRANCH  20  21
ENDBRANCH  19  20
ENDBRANCH  18  19
ENDBRANCH  17  18
ENDBRANCH  16  17
ENDBRANCH  15  16
ENDBRANCH  14  15
ENDBRANCH  13  14
ENDBRANCH  12  13
ENDBRANCH  11  12
ENDBRANCH  10  11
ENDBRANCH   9  10
ENDBRANCH   8   9
ENDBRANCH   7   8
ENDBRANCH   6   7
ENDBRANCH   5   6
ENDBRANCH   4   5
ENDBRANCH   3   4
ENDBRANCH   2   3
TORSDOF 37
ENDMDL
MODEL      153
REMARK 921   NORMALIZED FREE ENERGY PREDICTED BY IDOCK:   -2.72 KCAL/MOL
REMARK 922        TOTAL FREE ENERGY PREDICTED BY IDOCK:  -12.24 KCAL/MOL
REMARK 923 INTER-LIGAND FREE ENERGY PREDICTED BY IDOCK:  -10.07 KCAL/MOL
REMARK 924 INTRA-LIGAND FREE ENERGY PREDICTED BY IDOCK:   -2.17 KCAL/MOL
REMARK 927      BINDING AFFINITY PREDICTED BY RF-SCORE:    0.00 PKD
ROOT
HETATM    1  C   UNL     1     -12.877  16.033  73.689  1.00  0.00    -0.708 C  
HETATM    2  C   UNL     1     -12.409  15.052  72.627  1.00  0.00    -0.446 C  
ENDROOT
BRANCH   2   3
HETATM    3  C   UNL     1     -12.582  15.636  71.228  1.00  0.00    -0.523 C  
BRANCH   3   4
HETATM    4  C   UNL     1     -12.469  14.552  70.158  1.00  0.00    -0.375 C  
BRANCH   4   5
HETATM    5  C   UNL     1     -11.271  14.813  69.248  1.00  0.00    -0.303 C  
BRANCH   5   6
HETATM    6  C   UNL     1     -10.131  15.464  70.021  1.00  0.00    -0.224 C  
BRANCH   6   7
HETATM    7  C   UNL     1      -9.355  16.429  69.130  1.00  0.00    -0.224 C  
BRANCH   7   8
HETATM    8  C   UNL     1      -8.188  15.718  68.457  1.00  0.00    -0.166 C  
BRANCH   8   9
HETATM    9  C   UNL     1      -7.274  15.071  69.492  1.00  0.00    -0.199 C  
BRANCH   9  10
HETATM   10  C   UNL     1      -5.818  15.207  69.065  1.00  0.00    -0.097 C  
BRANCH  10  11
HETATM   11  C   UNL     1      -5.684  16.090  67.834  1.00  0.00    -0.150 C  
BRANCH  11  12
HETATM   12  C   UNL     1      -5.132  17.452  68.218  1.00  0.00    -0.133 C  
BRANCH  12  13
HETATM   13  O   UNL     1      -5.959  18.448  67.629  1.00  0.00    -0.169 OA 
BRANCH  13  14
HETATM   14  C   UNL     1      -6.690  19.150  68.628  1.00  0.00    -0.280 C  
BRANCH  14  15
HETATM   15  C   UNL     1      -7.457  20.288  67.979  1.00  0.00    -0.230 C  
BRANCH  15  16
HETATM   16  O   UNL     1      -7.209  20.250  66.578  1.00  0.00    -0.256 OA 
BRANCH  16  17
HETATM   17  C   UNL     1      -8.382  19.895  65.854  1.00  0.00    -0.187 C  
BRANCH  17  18
HETATM   18  C   UNL     1      -9.582  20.053  66.774  1.00  0.00    -0.417 C  
BRANCH  18  19
HETATM   19  O   UNL     1     -10.713  19.444  66.164  1.00  0.00    -0.443 OA 
BRANCH  19  20
HETATM   20  C   UNL     1     -10.391  18.160  65.626  1.00  0.00    -0.032 C  
BRANCH  20  21
HETATM   21  C   UNL     1     -11.030  17.092  66.506  1.00  0.00     0.191 C  
BRANCH  21  22
HETATM   22  O   UNL     1     -11.124  15.877  65.756  1.00  0.00    -0.216 OA 
BRANCH  22  23
HETATM   23  C   UNL     1      -9.849  15.271  65.582  1.00  0.00    -0.348 C  
BRANCH  23  24
HETATM   24  C   UNL     1      -9.943  13.803  65.969  1.00  0.00    -0.306 C  
BRANCH  24  25
HETATM   25  O   UNL     1     -10.860  13.156  65.091  1.00  0.00    -0.288 OA 
BRANCH  25  26
HETATM   26  C   UNL     1     -11.883  12.485  65.817  1.00  0.00    -0.437 C  
BRANCH  26  27
HETATM   27  C   UNL     1     -11.325  12.055  67.166  1.00  0.00    -0.333 C  
BRANCH  27  28
HETATM   28  O   UNL     1     -11.161  10.640  67.172  1.00  0.00    -0.296 OA 
BRANCH  28  29
HETATM   29  C   UNL     1      -9.824  10.280  67.505  1.00  0.00    -0.173 C  
BRANCH  29  30
HETATM   30  C   UNL     1      -9.649  10.372  69.012  1.00  0.00    -0.204 C  
BRANCH  30  31
HETATM   31  O   UNL     1     -10.565   9.480  69.640  1.00  0.00    -0.209 OA 
BRANCH  31  32
HETATM   32  C   UNL     1     -10.005   8.177  69.779  1.00  0.00    -0.191 C  
BRANCH  32  33
HETATM   33  C   UNL     1     -11.085   7.225  70.273  1.00  0.00    -0.266 C  
BRANCH  33  34
HETATM   34  O   UNL     1     -10.471   6.054  70.805  1.00  0.00    -0.215 OA 
BRANCH  34  35
HETATM   35  C   UNL     1     -10.256   5.073  69.793  1.00  0.00    -0.266 C  
BRANCH  35  36
HETATM   36  C   UNL     1      -9.512   3.892  70.400  1.00  0.00    -0.181 C  
BRANCH  36  37
HETATM   37  O   UNL     1      -9.596   3.952  71.825  1.00  0.00    -0.138 OA 
BRANCH  37  38
HETATM   38  C   UNL     1     -10.297   2.815  72.344  1.00  0.00    -0.092 C  
BRANCH  38  39
HETATM   39  C   UNL     1     -11.141   3.273  73.528  1.00  0.00    -0.216 C  
HETATM   40  O   UNL     1     -11.292   4.691  73.498  1.00  0.00    -0.321 OA 
HETATM   41  H   UNL     1     -11.818   4.976  74.236  1.00  0.00     0.000 HD 
ENDBRANCH  38  39
ENDBRANCH  37  38
ENDBRANCH  36  37
ENDBRANCH  35  36
ENDBRANCH  34  35
ENDBRANCH  33  34
ENDBRANCH  32  33
ENDBRANCH  31  32
ENDBRANCH  30  31
ENDBRANCH  29  30
ENDBRANCH  28  29
ENDBRANCH  27  28
ENDBRANCH  26  27
ENDBRANCH  25  26
ENDBRANCH  24  25
ENDBRANCH  23  24
ENDBRANCH  22  23
ENDBRANCH  21  22
ENDBRANCH  20  21
ENDBRANCH  19  20
ENDBRANCH  18  19
ENDBRANCH  17  18
ENDBRANCH  16  17
ENDBRANCH  15  16
ENDBRANCH  14  15
ENDBRANCH  13  14
ENDBRANCH  12  13
ENDBRANCH  11  12
ENDBRANCH  10  11
ENDBRANCH   9  10
ENDBRANCH   8   9
ENDBRANCH   7   8
ENDBRANCH   6   7
ENDBRANCH   5   6
ENDBRANCH   4   5
ENDBRANCH   3   4
ENDBRANCH   2   3
TORSDOF 37
ENDMDL
MODEL      154
REMARK 921   NORMALIZED FREE ENERGY PREDICTED BY IDOCK:   -2.72 KCAL/MOL
REMARK 922        TOTAL FREE ENERGY PREDICTED BY IDOCK:  -12.23 KCAL/MOL
REMARK 923 INTER-LIGAND FREE ENERGY PREDICTED BY IDOCK:   -9.09 KCAL/MOL
REMARK 924 INTRA-LIGAND FREE ENERGY PREDICTED BY IDOCK:   -3.14 KCAL/MOL
REMARK 927      BINDING AFFINITY PREDICTED BY RF-SCORE:    0.00 PKD
ROOT
HETATM    1  C   UNL     1     -13.059  11.105  71.508  1.00  0.00    -0.489 C  
HETATM    2  C   UNL     1     -12.707   9.671  71.864  1.00  0.00    -0.499 C  
ENDROOT
BRANCH   2   3
HETATM    3  C   UNL     1     -11.408   9.241  71.189  1.00  0.00    -0.412 C  
BRANCH   3   4
HETATM    4  C   UNL     1     -10.994  10.232  70.103  1.00  0.00    -0.377 C  
BRANCH   4   5
HETATM    5  C   UNL     1      -9.654   9.836  69.490  1.00  0.00    -0.225 C  
BRANCH   5   6
HETATM    6  C   UNL     1      -9.538  10.343  68.058  1.00  0.00    -0.156 C  
BRANCH   6   7
HETATM    7  C   UNL     1     -10.918  10.602  67.463  1.00  0.00    -0.371 C  
BRANCH   7   8
HETATM    8  C   UNL     1     -10.800  11.302  66.116  1.00  0.00    -0.281 C  
BRANCH   8   9
HETATM    9  C   UNL     1     -11.909  12.334  65.937  1.00  0.00    -0.420 C  
BRANCH   9  10
HETATM   10  C   UNL     1     -12.357  12.379  64.482  1.00  0.00    -0.519 C  
BRANCH  10  11
HETATM   11  C   UNL     1     -12.118  13.753  63.875  1.00  0.00    -0.423 C  
BRANCH  11  12
HETATM   12  C   UNL     1     -12.064  14.810  64.965  1.00  0.00    -0.291 C  
BRANCH  12  13
HETATM   13  O   UNL     1     -11.285  15.899  64.486  1.00  0.00    -0.454 OA 
BRANCH  13  14
HETATM   14  C   UNL     1     -10.373  16.342  65.485  1.00  0.00    -0.313 C  
BRANCH  14  15
HETATM   15  C   UNL     1     -10.438  17.856  65.587  1.00  0.00    -0.104 C  
BRANCH  15  16
HETATM   16  O   UNL     1     -10.372  18.212  66.963  1.00  0.00    -0.352 OA 
BRANCH  16  17
HETATM   17  C   UNL     1     -10.970  17.216  67.785  1.00  0.00    -0.180 C  
BRANCH  17  18
HETATM   18  C   UNL     1     -10.315  17.265  69.156  1.00  0.00    -0.290 C  
BRANCH  18  19
HETATM   19  O   UNL     1     -10.885  16.252  69.975  1.00  0.00    -0.335 OA 
BRANCH  19  20
HETATM   20  C   UNL     1     -11.640  15.316  69.203  1.00  0.00    -0.332 C  
BRANCH  20  21
HETATM   21  C   UNL     1     -10.904  13.982  69.201  1.00  0.00    -0.206 C  
BRANCH  21  22
HETATM   22  O   UNL     1      -9.983  13.968  68.106  1.00  0.00    -0.228 OA 
BRANCH  22  23
HETATM   23  C   UNL     1      -8.639  14.099  68.554  1.00  0.00    -0.163 C  
BRANCH  23  24
HETATM   24  C   UNL     1      -7.723  13.362  67.588  1.00  0.00    -0.177 C  
BRANCH  24  25
HETATM   25  O   UNL     1      -6.443  13.213  68.195  1.00  0.00    -0.080 OA 
BRANCH  25  26
HETATM   26  C   UNL     1      -5.608  12.350  67.433  1.00  0.00    -0.126 C  
BRANCH  26  27
HETATM   27  C   UNL     1      -6.325  11.023  67.237  1.00  0.00    -0.069 C  
BRANCH  27  28
HETATM   28  O   UNL     1      -6.283  10.671  65.858  1.00  0.00    -0.117 OA 
BRANCH  28  29
HETATM   29  C   UNL     1      -7.023   9.480  65.610  1.00  0.00    -0.092 C  
BRANCH  29  30
HETATM   30  C   UNL     1      -6.118   8.471  64.922  1.00  0.00    -0.060 C  
BRANCH  30  31
HETATM   31  O   UNL     1      -6.127   7.257  65.666  1.00  0.00    -0.036 OA 
BRANCH  31  32
HETATM   32  C   UNL     1      -5.680   7.467  67.004  1.00  0.00    -0.031 C  
BRANCH  32  33
HETATM   33  C   UNL     1      -5.672   6.134  67.738  1.00  0.00    -0.009 C  
BRANCH  33  34
HETATM   34  O   UNL     1      -6.985   5.579  67.716  1.00  0.00    -0.062 OA 
BRANCH  34  35
HETATM   35  C   UNL     1      -7.905   6.390  68.440  1.00  0.00    -0.105 C  
BRANCH  35  36
HETATM   36  C   UNL     1      -9.318   6.079  67.965  1.00  0.00    -0.114 C  
BRANCH  36  37
HETATM   37  O   UNL     1      -9.335   5.977  66.540  1.00  0.00    -0.146 OA 
BRANCH  37  38
HETATM   38  C   UNL     1     -10.178   4.898  66.115  1.00  0.00    -0.277 C  
BRANCH  38  39
HETATM   39  C   UNL     1      -9.675   3.613  66.764  1.00  0.00    -0.068 C  
HETATM   40  O   UNL     1      -8.459   3.199  66.143  1.00  0.00    -0.101 OA 
HETATM   41  H   UNL     1      -8.146   2.399  66.547  1.00  0.00     0.000 HD 
ENDBRANCH  38  39
ENDBRANCH  37  38
ENDBRANCH  36  37
ENDBRANCH  35  36
ENDBRANCH  34  35
ENDBRANCH  33  34
ENDBRANCH  32  33
ENDBRANCH  31  32
ENDBRANCH  30  31
ENDBRANCH  29  30
ENDBRANCH  28  29
ENDBRANCH  27  28
ENDBRANCH  26  27
ENDBRANCH  25  26
ENDBRANCH  24  25
ENDBRANCH  23  24
ENDBRANCH  22  23
ENDBRANCH  21  22
ENDBRANCH  20  21
ENDBRANCH  19  20
ENDBRANCH  18  19
ENDBRANCH  17  18
ENDBRANCH  16  17
ENDBRANCH  15  16
ENDBRANCH  14  15
ENDBRANCH  13  14
ENDBRANCH  12  13
ENDBRANCH  11  12
ENDBRANCH  10  11
ENDBRANCH   9  10
ENDBRANCH   8   9
ENDBRANCH   7   8
ENDBRANCH   6   7
ENDBRANCH   5   6
ENDBRANCH   4   5
ENDBRANCH   3   4
ENDBRANCH   2   3
TORSDOF 37
ENDMDL
MODEL      155
REMARK 921   NORMALIZED FREE ENERGY PREDICTED BY IDOCK:   -2.71 KCAL/MOL
REMARK 922        TOTAL FREE ENERGY PREDICTED BY IDOCK:  -12.18 KCAL/MOL
REMARK 923 INTER-LIGAND FREE ENERGY PREDICTED BY IDOCK:   -9.50 KCAL/MOL
REMARK 924 INTRA-LIGAND FREE ENERGY PREDICTED BY IDOCK:   -2.68 KCAL/MOL
REMARK 927      BINDING AFFINITY PREDICTED BY RF-SCORE:    0.00 PKD
ROOT
HETATM    1  C   UNL     1      -8.771  14.522  68.575  1.00  0.00    -0.177 C  
HETATM    2  C   UNL     1      -7.955  15.802  68.540  1.00  0.00    -0.141 C  
ENDROOT
BRANCH   2   3
HETATM    3  C   UNL     1      -6.699  15.675  69.398  1.00  0.00    -0.180 C  
BRANCH   3   4
HETATM    4  C   UNL     1      -5.449  16.057  68.608  1.00  0.00    -0.101 C  
BRANCH   4   5
HETATM    5  C   UNL     1      -5.783  17.085  67.530  1.00  0.00    -0.161 C  
BRANCH   5   6
HETATM    6  C   UNL     1      -5.320  18.477  67.942  1.00  0.00    -0.165 C  
BRANCH   6   7
HETATM    7  C   UNL     1      -6.514  19.372  68.257  1.00  0.00    -0.270 C  
BRANCH   7   8
HETATM    8  C   UNL     1      -6.799  20.316  67.096  1.00  0.00    -0.290 C  
BRANCH   8   9
HETATM    9  C   UNL     1      -8.095  19.934  66.388  1.00  0.00    -0.357 C  
BRANCH   9  10
HETATM   10  C   UNL     1      -9.296  20.364  67.220  1.00  0.00    -0.547 C  
BRANCH  10  11
HETATM   11  C   UNL     1      -9.875  19.192  67.999  1.00  0.00    -0.432 C  
BRANCH  11  12
HETATM   12  C   UNL     1     -10.943  18.489  67.178  1.00  0.00    -0.095 C  
BRANCH  12  13
HETATM   13  O   UNL     1     -10.484  17.174  66.888  1.00  0.00    -0.320 OA 
BRANCH  13  14
HETATM   14  C   UNL     1     -10.778  16.825  65.540  1.00  0.00    -0.196 C  
BRANCH  14  15
HETATM   15  C   UNL     1     -10.797  15.313  65.407  1.00  0.00    -0.387 C  
BRANCH  15  16
HETATM   16  O   UNL     1     -11.593  14.784  66.461  1.00  0.00    -0.355 OA 
BRANCH  16  17
HETATM   17  C   UNL     1     -12.772  14.165  65.958  1.00  0.00    -0.289 C  
BRANCH  17  18
HETATM   18  C   UNL     1     -12.363  13.024  65.041  1.00  0.00    -0.473 C  
BRANCH  18  19
HETATM   19  O   UNL     1     -11.757  12.001  65.820  1.00  0.00    -0.398 OA 
BRANCH  19  20
HETATM   20  C   UNL     1     -10.608  11.455  65.168  1.00  0.00    -0.293 C  
BRANCH  20  21
HETATM   21  C   UNL     1     -10.841  11.494  63.662  1.00  0.00    -0.415 C  
BRANCH  21  22
HETATM   22  O   UNL     1      -9.818  10.726  63.021  1.00  0.00    -0.322 OA 
BRANCH  22  23
HETATM   23  C   UNL     1      -9.149   9.874  63.943  1.00  0.00    -0.259 C  
BRANCH  23  24
HETATM   24  C   UNL     1      -7.862   9.372  63.307  1.00  0.00    -0.131 C  
BRANCH  24  25
HETATM   25  O   UNL     1      -7.035   8.816  64.326  1.00  0.00    -0.087 OA 
BRANCH  25  26
HETATM   26  C   UNL     1      -6.605   7.505  63.983  1.00  0.00    -0.052 C  
BRANCH  26  27
HETATM   27  C   UNL     1      -7.651   6.865  63.082  1.00  0.00    -0.096 C  
BRANCH  27  28
HETATM   28  O   UNL     1      -8.404   5.923  63.839  1.00  0.00    -0.097 OA 
BRANCH  28  29
HETATM   29  C   UNL     1      -7.560   5.164  64.699  1.00  0.00    -0.079 C  
BRANCH  29  30
HETATM   30  C   UNL     1      -8.397   4.591  65.832  1.00  0.00    -0.114 C  
BRANCH  30  31
HETATM   31  O   UNL     1      -9.741   5.038  65.686  1.00  0.00    -0.160 OA 
BRANCH  31  32
HETATM   32  C   UNL     1     -10.399   5.119  66.948  1.00  0.00    -0.240 C  
BRANCH  32  33
HETATM   33  C   UNL     1     -11.035   6.494  67.087  1.00  0.00    -0.408 C  
BRANCH  33  34
HETATM   34  O   UNL     1     -10.043   7.494  66.867  1.00  0.00    -0.224 OA 
BRANCH  34  35
HETATM   35  C   UNL     1     -10.231   8.611  67.732  1.00  0.00    -0.225 C  
BRANCH  35  36
HETATM   36  C   UNL     1      -8.873   9.225  68.046  1.00  0.00    -0.128 C  
BRANCH  36  37
HETATM   37  O   UNL     1      -8.837   9.640  69.412  1.00  0.00    -0.153 OA 
BRANCH  37  38
HETATM   38  C   UNL     1      -9.846   8.969  70.177  1.00  0.00    -0.187 C  
BRANCH  38  39
HETATM   39  C   UNL     1      -9.157   8.146  71.260  1.00  0.00    -0.150 C  
HETATM   40  O   UNL     1      -8.167   8.937  71.916  1.00  0.00    -0.345 OA 
HETATM   41  H   UNL     1      -7.739   8.424  72.590  1.00  0.00     0.000 HD 
ENDBRANCH  38  39
ENDBRANCH  37  38
ENDBRANCH  36  37
ENDBRANCH  35  36
ENDBRANCH  34  35
ENDBRANCH  33  34
ENDBRANCH  32  33
ENDBRANCH  31  32
ENDBRANCH  30  31
ENDBRANCH  29  30
ENDBRANCH  28  29
ENDBRANCH  27  28
ENDBRANCH  26  27
ENDBRANCH  25  26
ENDBRANCH  24  25
ENDBRANCH  23  24
ENDBRANCH  22  23
ENDBRANCH  21  22
ENDBRANCH  20  21
ENDBRANCH  19  20
ENDBRANCH  18  19
ENDBRANCH  17  18
ENDBRANCH  16  17
ENDBRANCH  15  16
ENDBRANCH  14  15
ENDBRANCH  13  14
ENDBRANCH  12  13
ENDBRANCH  11  12
ENDBRANCH  10  11
ENDBRANCH   9  10
ENDBRANCH   8   9
ENDBRANCH   7   8
ENDBRANCH   6   7
ENDBRANCH   5   6
ENDBRANCH   4   5
ENDBRANCH   3   4
ENDBRANCH   2   3
TORSDOF 37
ENDMDL
MODEL      156
REMARK 921   NORMALIZED FREE ENERGY PREDICTED BY IDOCK:   -2.70 KCAL/MOL
REMARK 922        TOTAL FREE ENERGY PREDICTED BY IDOCK:  -12.16 KCAL/MOL
REMARK 923 INTER-LIGAND FREE ENERGY PREDICTED BY IDOCK:   -8.93 KCAL/MOL
REMARK 924 INTRA-LIGAND FREE ENERGY PREDICTED BY IDOCK:   -3.23 KCAL/MOL
REMARK 927      BINDING AFFINITY PREDICTED BY RF-SCORE:    0.00 PKD
ROOT
HETATM    1  C   UNL     1     -11.002   5.582  71.454  1.00  0.00    -0.208 C  
HETATM    2  C   UNL     1     -11.615   6.960  71.276  1.00  0.00    -0.352 C  
ENDROOT
BRANCH   2   3
HETATM    3  C   UNL     1     -11.396   7.822  72.517  1.00  0.00    -0.429 C  
BRANCH   3   4
HETATM    4  C   UNL     1     -10.556   7.088  73.559  1.00  0.00    -0.405 C  
BRANCH   4   5
HETATM    5  C   UNL     1      -9.208   7.779  73.751  1.00  0.00    -0.316 C  
BRANCH   5   6
HETATM    6  C   UNL     1      -8.133   7.125  72.891  1.00  0.00    -0.120 C  
BRANCH   6   7
HETATM    7  C   UNL     1      -7.391   8.172  72.067  1.00  0.00    -0.105 C  
BRANCH   7   8
HETATM    8  C   UNL     1      -8.138   8.464  70.772  1.00  0.00    -0.114 C  
BRANCH   8   9
HETATM    9  C   UNL     1      -7.842   7.399  69.720  1.00  0.00    -0.116 C  
BRANCH   9  10
HETATM   10  C   UNL     1      -8.978   7.330  68.708  1.00  0.00    -0.129 C  
BRANCH  10  11
HETATM   11  C   UNL     1      -9.350   5.888  68.395  1.00  0.00    -0.124 C  
BRANCH  11  12
HETATM   12  C   UNL     1     -10.687   5.832  67.676  1.00  0.00    -0.229 C  
BRANCH  12  13
HETATM   13  O   UNL     1     -10.535   5.013  66.523  1.00  0.00    -0.271 OA 
BRANCH  13  14
HETATM   14  C   UNL     1      -9.468   4.087  66.702  1.00  0.00    -0.197 C  
BRANCH  14  15
HETATM   15  C   UNL     1      -8.811   3.816  65.360  1.00  0.00    -0.121 C  
BRANCH  15  16
HETATM   16  O   UNL     1      -9.520   4.544  64.363  1.00  0.00    -0.148 OA 
BRANCH  16  17
HETATM   17  C   UNL     1      -8.645   5.007  63.341  1.00  0.00    -0.109 C  
BRANCH  17  18
HETATM   18  C   UNL     1      -7.331   5.421  63.982  1.00  0.00    -0.057 C  
BRANCH  18  19
HETATM   19  O   UNL     1      -6.958   6.700  63.484  1.00  0.00    -0.047 OA 
BRANCH  19  20
HETATM   20  C   UNL     1      -7.955   7.234  62.610  1.00  0.00    -0.123 C  
BRANCH  20  21
HETATM   21  C   UNL     1      -7.905   8.755  62.687  1.00  0.00    -0.136 C  
BRANCH  21  22
HETATM   22  O   UNL     1      -8.700   9.184  63.796  1.00  0.00    -0.197 OA 
BRANCH  22  23
HETATM   23  C   UNL     1      -7.924   9.904  64.747  1.00  0.00    -0.143 C  
BRANCH  23  24
HETATM   24  C   UNL     1      -8.858  10.542  65.764  1.00  0.00    -0.175 C  
BRANCH  24  25
HETATM   25  O   UNL     1     -10.037   9.749  65.864  1.00  0.00    -0.282 OA 
BRANCH  25  26
HETATM   26  C   UNL     1     -10.687   9.946  67.113  1.00  0.00    -0.207 C  
BRANCH  26  27
HETATM   27  C   UNL     1     -10.828  11.441  67.362  1.00  0.00    -0.254 C  
BRANCH  27  28
HETATM   28  O   UNL     1     -12.088  11.879  66.865  1.00  0.00    -0.599 OA 
BRANCH  28  29
HETATM   29  C   UNL     1     -11.925  12.750  65.750  1.00  0.00    -0.449 C  
BRANCH  29  30
HETATM   30  C   UNL     1     -11.085  13.943  66.174  1.00  0.00    -0.299 C  
BRANCH  30  31
HETATM   31  O   UNL     1     -11.703  15.136  65.704  1.00  0.00    -0.203 OA 
BRANCH  31  32
HETATM   32  C   UNL     1     -10.790  15.932  64.952  1.00  0.00    -0.400 C  
BRANCH  32  33
HETATM   33  C   UNL     1     -10.724  17.323  65.566  1.00  0.00    -0.100 C  
BRANCH  33  34
HETATM   34  O   UNL     1      -9.409  17.553  66.065  1.00  0.00    -0.482 OA 
BRANCH  34  35
HETATM   35  C   UNL     1      -9.441  18.171  67.349  1.00  0.00    -0.255 C  
BRANCH  35  36
HETATM   36  C   UNL     1      -8.333  17.579  68.209  1.00  0.00    -0.265 C  
BRANCH  36  37
HETATM   37  O   UNL     1      -8.000  16.274  67.734  1.00  0.00    -0.139 OA 
BRANCH  37  38
HETATM   38  C   UNL     1      -8.466  15.266  68.639  1.00  0.00    -0.168 C  
BRANCH  38  39
HETATM   39  C   UNL     1      -7.727  13.968  68.332  1.00  0.00    -0.138 C  
HETATM   40  O   UNL     1      -7.197  13.415  69.536  1.00  0.00    -0.319 OA 
HETATM   41  H   UNL     1      -6.736  12.606  69.344  1.00  0.00     0.000 HD 
ENDBRANCH  38  39
ENDBRANCH  37  38
ENDBRANCH  36  37
ENDBRANCH  35  36
ENDBRANCH  34  35
ENDBRANCH  33  34
ENDBRANCH  32  33
ENDBRANCH  31  32
ENDBRANCH  30  31
ENDBRANCH  29  30
ENDBRANCH  28  29
ENDBRANCH  27  28
ENDBRANCH  26  27
ENDBRANCH  25  26
ENDBRANCH  24  25
ENDBRANCH  23  24
ENDBRANCH  22  23
ENDBRANCH  21  22
ENDBRANCH  20  21
ENDBRANCH  19  20
ENDBRANCH  18  19
ENDBRANCH  17  18
ENDBRANCH  16  17
ENDBRANCH  15  16
ENDBRANCH  14  15
ENDBRANCH  13  14
ENDBRANCH  12  13
ENDBRANCH  11  12
ENDBRANCH  10  11
ENDBRANCH   9  10
ENDBRANCH   8   9
ENDBRANCH   7   8
ENDBRANCH   6   7
ENDBRANCH   5   6
ENDBRANCH   4   5
ENDBRANCH   3   4
ENDBRANCH   2   3
TORSDOF 37
ENDMDL
MODEL      157
REMARK 921   NORMALIZED FREE ENERGY PREDICTED BY IDOCK:   -2.70 KCAL/MOL
REMARK 922        TOTAL FREE ENERGY PREDICTED BY IDOCK:  -12.16 KCAL/MOL
REMARK 923 INTER-LIGAND FREE ENERGY PREDICTED BY IDOCK:  -10.05 KCAL/MOL
REMARK 924 INTRA-LIGAND FREE ENERGY PREDICTED BY IDOCK:   -2.10 KCAL/MOL
REMARK 927      BINDING AFFINITY PREDICTED BY RF-SCORE:    0.00 PKD
ROOT
HETATM    1  C   UNL     1     -12.579  16.335  73.815  1.00  0.00    -0.649 C  
HETATM    2  C   UNL     1     -12.196  15.284  72.786  1.00  0.00    -0.513 C  
ENDROOT
BRANCH   2   3
HETATM    3  C   UNL     1     -12.852  15.572  71.438  1.00  0.00    -0.531 C  
BRANCH   3   4
HETATM    4  C   UNL     1     -12.719  14.379  70.494  1.00  0.00    -0.401 C  
BRANCH   4   5
HETATM    5  C   UNL     1     -11.521  14.555  69.565  1.00  0.00    -0.330 C  
BRANCH   5   6
HETATM    6  C   UNL     1     -10.439  15.402  70.225  1.00  0.00    -0.264 C  
BRANCH   6   7
HETATM    7  C   UNL     1      -9.616  16.141  69.176  1.00  0.00    -0.249 C  
BRANCH   7   8
HETATM    8  C   UNL     1      -8.617  15.200  68.515  1.00  0.00    -0.163 C  
BRANCH   8   9
HETATM    9  C   UNL     1      -7.709  14.552  69.555  1.00  0.00     0.065 C  
BRANCH   9  10
HETATM   10  C   UNL     1      -6.292  14.425  69.010  1.00  0.00    -0.097 C  
BRANCH  10  11
HETATM   11  C   UNL     1      -6.117  15.238  67.736  1.00  0.00    -0.169 C  
BRANCH  11  12
HETATM   12  C   UNL     1      -5.225  16.440  67.994  1.00  0.00    -0.111 C  
BRANCH  12  13
HETATM   13  O   UNL     1      -5.920  17.606  67.568  1.00  0.00    -0.143 OA 
BRANCH  13  14
HETATM   14  C   UNL     1      -6.222  18.444  68.678  1.00  0.00    -0.208 C  
BRANCH  14  15
HETATM   15  C   UNL     1      -6.400  19.872  68.193  1.00  0.00    -0.254 C  
BRANCH  15  16
HETATM   16  O   UNL     1      -6.395  19.862  66.770  1.00  0.00    -0.182 OA 
BRANCH  16  17
HETATM   17  C   UNL     1      -7.659  20.254  66.245  1.00  0.00    -0.219 C  
BRANCH  17  18
HETATM   18  C   UNL     1      -8.471  20.885  67.365  1.00  0.00    -0.021 C  
BRANCH  18  19
HETATM   19  O   UNL     1      -9.844  20.882  66.996  1.00  0.00    -0.370 OA 
BRANCH  19  20
HETATM   20  C   UNL     1     -10.161  19.764  66.164  1.00  0.00    -0.499 C  
BRANCH  20  21
HETATM   21  C   UNL     1     -10.528  18.584  67.055  1.00  0.00    -0.402 C  
BRANCH  21  22
HETATM   22  O   UNL     1     -11.225  17.614  66.267  1.00  0.00     0.371 OA 
BRANCH  22  23
HETATM   23  C   UNL     1     -10.397  17.086  65.237  1.00  0.00     0.048 C  
BRANCH  23  24
HETATM   24  C   UNL     1     -10.605  15.581  65.159  1.00  0.00    -0.431 C  
BRANCH  24  25
HETATM   25  O   UNL     1     -12.003  15.316  65.083  1.00  0.00    -0.125 OA 
BRANCH  25  26
HETATM   26  C   UNL     1     -12.361  14.198  65.885  1.00  0.00    -0.463 C  
BRANCH  26  27
HETATM   27  C   UNL     1     -11.409  13.051  65.579  1.00  0.00    -0.300 C  
BRANCH  27  28
HETATM   28  O   UNL     1     -12.124  12.018  64.909  1.00  0.00    -0.307 OA 
BRANCH  28  29
HETATM   29  C   UNL     1     -11.558  11.748  63.630  1.00  0.00    -0.424 C  
BRANCH  29  30
HETATM   30  C   UNL     1     -10.215  11.061  63.821  1.00  0.00    -0.364 C  
BRANCH  30  31
HETATM   31  O   UNL     1     -10.324  10.119  64.883  1.00  0.00    -0.236 OA 
BRANCH  31  32
HETATM   32  C   UNL     1      -9.042   9.776  65.404  1.00  0.00    -0.204 C  
BRANCH  32  33
HETATM   33  C   UNL     1      -9.187   8.572  66.323  1.00  0.00    -0.207 C  
BRANCH  33  34
HETATM   34  O   UNL     1      -8.607   8.875  67.588  1.00  0.00    -0.123 OA 
BRANCH  34  35
HETATM   35  C   UNL     1      -9.475   9.682  68.379  1.00  0.00    -0.137 C  
BRANCH  35  36
HETATM   36  C   UNL     1     -10.776   8.925  68.612  1.00  0.00    -0.078 C  
BRANCH  36  37
HETATM   37  O   UNL     1     -10.639   8.071  69.749  1.00  0.00    -0.234 OA 
BRANCH  37  38
HETATM   38  C   UNL     1     -11.084   8.733  70.940  1.00  0.00    -0.268 C  
BRANCH  38  39
HETATM   39  C   UNL     1     -10.538   7.971  72.143  1.00  0.00    -0.272 C  
HETATM   40  O   UNL     1     -11.550   7.848  73.141  1.00  0.00    -0.587 OA 
HETATM   41  H   UNL     1     -11.210   7.374  73.889  1.00  0.00     0.000 HD 
ENDBRANCH  38  39
ENDBRANCH  37  38
ENDBRANCH  36  37
ENDBRANCH  35  36
ENDBRANCH  34  35
ENDBRANCH  33  34
ENDBRANCH  32  33
ENDBRANCH  31  32
ENDBRANCH  30  31
ENDBRANCH  29  30
ENDBRANCH  28  29
ENDBRANCH  27  28
ENDBRANCH  26  27
ENDBRANCH  25  26
ENDBRANCH  24  25
ENDBRANCH  23  24
ENDBRANCH  22  23
ENDBRANCH  21  22
ENDBRANCH  20  21
ENDBRANCH  19  20
ENDBRANCH  18  19
ENDBRANCH  17  18
ENDBRANCH  16  17
ENDBRANCH  15  16
ENDBRANCH  14  15
ENDBRANCH  13  14
ENDBRANCH  12  13
ENDBRANCH  11  12
ENDBRANCH  10  11
ENDBRANCH   9  10
ENDBRANCH   8   9
ENDBRANCH   7   8
ENDBRANCH   6   7
ENDBRANCH   5   6
ENDBRANCH   4   5
ENDBRANCH   3   4
ENDBRANCH   2   3
TORSDOF 37
ENDMDL
MODEL      158
REMARK 921   NORMALIZED FREE ENERGY PREDICTED BY IDOCK:   -2.70 KCAL/MOL
REMARK 922        TOTAL FREE ENERGY PREDICTED BY IDOCK:  -12.15 KCAL/MOL
REMARK 923 INTER-LIGAND FREE ENERGY PREDICTED BY IDOCK:   -8.75 KCAL/MOL
REMARK 924 INTRA-LIGAND FREE ENERGY PREDICTED BY IDOCK:   -3.40 KCAL/MOL
REMARK 927      BINDING AFFINITY PREDICTED BY RF-SCORE:    0.00 PKD
ROOT
HETATM    1  C   UNL     1      -9.747   8.253  69.310  1.00  0.00    -0.177 C  
HETATM    2  C   UNL     1     -10.516   9.534  69.039  1.00  0.00    -0.229 C  
ENDROOT
BRANCH   2   3
HETATM    3  C   UNL     1     -11.343   9.946  70.254  1.00  0.00    -0.357 C  
BRANCH   3   4
HETATM    4  C   UNL     1     -11.094   9.010  71.435  1.00  0.00    -0.399 C  
BRANCH   4   5
HETATM    5  C   UNL     1     -12.414   8.506  72.013  1.00  0.00    -0.417 C  
BRANCH   5   6
HETATM    6  C   UNL     1     -12.829   7.192  71.361  1.00  0.00    -0.431 C  
BRANCH   6   7
HETATM    7  C   UNL     1     -11.703   6.167  71.449  1.00  0.00    -0.236 C  
BRANCH   7   8
HETATM    8  C   UNL     1     -11.544   5.665  72.878  1.00  0.00    -0.252 C  
BRANCH   8   9
HETATM    9  C   UNL     1     -10.071   5.507  73.241  1.00  0.00    -0.202 C  
BRANCH   9  10
HETATM   10  C   UNL     1      -9.193   5.968  72.085  1.00  0.00    -0.148 C  
BRANCH  10  11
HETATM   11  C   UNL     1      -8.325   4.832  71.565  1.00  0.00    -0.109 C  
BRANCH  11  12
HETATM   12  C   UNL     1      -8.751   3.514  72.189  1.00  0.00    -0.087 C  
BRANCH  12  13
HETATM   13  O   UNL     1      -9.417   2.748  71.192  1.00  0.00    -0.134 OA 
BRANCH  13  14
HETATM   14  C   UNL     1      -8.686   2.770  69.971  1.00  0.00    -0.069 C  
BRANCH  14  15
HETATM   15  C   UNL     1      -9.658   2.877  68.809  1.00  0.00    -0.003 C  
BRANCH  15  16
HETATM   16  O   UNL     1      -9.457   1.755  67.956  1.00  0.00    -0.183 OA 
BRANCH  16  17
HETATM   17  C   UNL     1      -8.763   2.125  66.770  1.00  0.00    -0.120 C  
BRANCH  17  18
HETATM   18  C   UNL     1      -9.338   3.439  66.264  1.00  0.00    -0.145 C  
BRANCH  18  19
HETATM   19  O   UNL     1      -8.266   4.314  65.935  1.00  0.00    -0.108 OA 
BRANCH  19  20
HETATM   20  C   UNL     1      -8.634   5.226  64.898  1.00  0.00    -0.145 C  
BRANCH  20  21
HETATM   21  C   UNL     1      -7.446   6.134  64.606  1.00  0.00    -0.085 C  
BRANCH  21  22
HETATM   22  O   UNL     1      -7.114   6.853  65.798  1.00  0.00    -0.068 OA 
BRANCH  22  23
HETATM   23  C   UNL     1      -8.070   7.869  66.077  1.00  0.00    -0.112 C  
BRANCH  23  24
HETATM   24  C   UNL     1      -7.714   9.114  65.280  1.00  0.00    -0.099 C  
BRANCH  24  25
HETATM   25  O   UNL     1      -8.829   9.472  64.468  1.00  0.00    -0.196 OA 
BRANCH  25  26
HETATM   26  C   UNL     1      -9.124  10.859  64.578  1.00  0.00    -0.163 C  
BRANCH  26  27
HETATM   27  C   UNL     1     -10.374  11.160  63.765  1.00  0.00    -0.386 C  
BRANCH  27  28
HETATM   28  O   UNL     1     -10.557  12.571  63.698  1.00  0.00    -0.429 OA 
BRANCH  28  29
HETATM   29  C   UNL     1     -11.912  12.899  63.408  1.00  0.00    -0.537 C  
BRANCH  29  30
HETATM   30  C   UNL     1     -12.257  14.215  64.086  1.00  0.00    -0.390 C  
BRANCH  30  31
HETATM   31  O   UNL     1     -11.264  14.506  65.065  1.00  0.00    -0.344 OA 
BRANCH  31  32
HETATM   32  C   UNL     1     -11.855  14.879  66.307  1.00  0.00    -0.121 C  
BRANCH  32  33
HETATM   33  C   UNL     1     -11.844  13.678  67.242  1.00  0.00    -0.391 C  
BRANCH  33  34
HETATM   34  O   UNL     1     -10.781  12.805  66.869  1.00  0.00    -0.249 OA 
BRANCH  34  35
HETATM   35  C   UNL     1      -9.719  12.843  67.819  1.00  0.00    -0.214 C  
BRANCH  35  36
HETATM   36  C   UNL     1      -8.471  13.394  67.142  1.00  0.00    -0.170 C  
BRANCH  36  37
HETATM   37  O   UNL     1      -7.430  12.417  67.184  1.00  0.00    -0.148 OA 
BRANCH  37  38
HETATM   38  C   UNL     1      -7.722  11.400  68.151  1.00  0.00    -0.118 C  
BRANCH  38  39
HETATM   39  C   UNL     1      -6.596  11.380  69.179  1.00  0.00    -0.095 C  
HETATM   40  O   UNL     1      -7.102  10.959  70.445  1.00  0.00    -0.476 OA 
HETATM   41  H   UNL     1      -6.400  10.946  71.085  1.00  0.00     0.000 HD 
ENDBRANCH  38  39
ENDBRANCH  37  38
ENDBRANCH  36  37
ENDBRANCH  35  36
ENDBRANCH  34  35
ENDBRANCH  33  34
ENDBRANCH  32  33
ENDBRANCH  31  32
ENDBRANCH  30  31
ENDBRANCH  29  30
ENDBRANCH  28  29
ENDBRANCH  27  28
ENDBRANCH  26  27
ENDBRANCH  25  26
ENDBRANCH  24  25
ENDBRANCH  23  24
ENDBRANCH  22  23
ENDBRANCH  21  22
ENDBRANCH  20  21
ENDBRANCH  19  20
ENDBRANCH  18  19
ENDBRANCH  17  18
ENDBRANCH  16  17
ENDBRANCH  15  16
ENDBRANCH  14  15
ENDBRANCH  13  14
ENDBRANCH  12  13
ENDBRANCH  11  12
ENDBRANCH  10  11
ENDBRANCH   9  10
ENDBRANCH   8   9
ENDBRANCH   7   8
ENDBRANCH   6   7
ENDBRANCH   5   6
ENDBRANCH   4   5
ENDBRANCH   3   4
ENDBRANCH   2   3
TORSDOF 37
ENDMDL
MODEL      159
REMARK 921   NORMALIZED FREE ENERGY PREDICTED BY IDOCK:   -2.70 KCAL/MOL
REMARK 922        TOTAL FREE ENERGY PREDICTED BY IDOCK:  -12.15 KCAL/MOL
REMARK 923 INTER-LIGAND FREE ENERGY PREDICTED BY IDOCK:   -8.68 KCAL/MOL
REMARK 924 INTRA-LIGAND FREE ENERGY PREDICTED BY IDOCK:   -3.47 KCAL/MOL
REMARK 927      BINDING AFFINITY PREDICTED BY RF-SCORE:    0.00 PKD
ROOT
HETATM    1  C   UNL     1     -11.999  14.399  66.996  1.00  0.00    -0.424 C  
HETATM    2  C   UNL     1     -12.382  13.432  65.889  1.00  0.00    -0.493 C  
ENDROOT
BRANCH   2   3
HETATM    3  C   UNL     1     -12.217  14.077  64.516  1.00  0.00    -0.463 C  
BRANCH   3   4
HETATM    4  C   UNL     1     -11.353  13.214  63.599  1.00  0.00    -0.307 C  
BRANCH   4   5
HETATM    5  C   UNL     1     -11.801  11.756  63.650  1.00  0.00    -0.498 C  
BRANCH   5   6
HETATM    6  C   UNL     1     -10.642  10.844  64.035  1.00  0.00    -0.310 C  
BRANCH   6   7
HETATM    7  C   UNL     1      -9.632  10.743  62.897  1.00  0.00    -0.366 C  
BRANCH   7   8
HETATM    8  C   UNL     1      -8.214  10.650  63.444  1.00  0.00    -0.038 C  
BRANCH   8   9
HETATM    9  C   UNL     1      -7.695   9.217  63.375  1.00  0.00    -0.121 C  
BRANCH   9  10
HETATM   10  C   UNL     1      -7.447   8.679  64.778  1.00  0.00    -0.097 C  
BRANCH  10  11
HETATM   11  C   UNL     1      -7.782   9.721  65.835  1.00  0.00    -0.105 C  
BRANCH  11  12
HETATM   12  C   UNL     1      -6.860   9.572  67.033  1.00  0.00    -0.084 C  
BRANCH  12  13
HETATM   13  O   UNL     1      -7.255  10.522  68.015  1.00  0.00    -0.085 OA 
BRANCH  13  14
HETATM   14  C   UNL     1      -7.128   9.975  69.324  1.00  0.00    -0.074 C  
BRANCH  14  15
HETATM   15  C   UNL     1      -6.493   8.599  69.231  1.00  0.00    -0.042 C  
BRANCH  15  16
HETATM   16  O   UNL     1      -7.307   7.683  69.953  1.00  0.00    -0.077 OA 
BRANCH  16  17
HETATM   17  C   UNL     1      -7.893   8.300  71.095  1.00  0.00    -0.097 C  
BRANCH  17  18
HETATM   18  C   UNL     1      -7.289   7.676  72.343  1.00  0.00    -0.078 C  
BRANCH  18  19
HETATM   19  O   UNL     1      -8.214   7.804  73.415  1.00  0.00    -0.137 OA 
BRANCH  19  20
HETATM   20  C   UNL     1      -9.432   8.417  72.986  1.00  0.00    -0.167 C  
BRANCH  20  21
HETATM   21  C   UNL     1     -10.601   7.587  73.503  1.00  0.00    -0.292 C  
BRANCH  21  22
HETATM   22  O   UNL     1     -10.096   6.590  74.396  1.00  0.00    -0.328 OA 
BRANCH  22  23
HETATM   23  C   UNL     1     -10.541   5.289  74.031  1.00  0.00    -0.278 C  
BRANCH  23  24
HETATM   24  C   UNL     1     -10.961   5.303  72.569  1.00  0.00    -0.240 C  
BRANCH  24  25
HETATM   25  O   UNL     1      -9.856   4.883  71.772  1.00  0.00    -0.166 OA 
BRANCH  25  26
HETATM   26  C   UNL     1     -10.086   5.144  70.393  1.00  0.00    -0.262 C  
BRANCH  26  27
HETATM   27  C   UNL     1      -9.459   4.027  69.572  1.00  0.00    -0.187 C  
BRANCH  27  28
HETATM   28  O   UNL     1      -8.249   4.501  68.989  1.00  0.00    -0.079 OA 
BRANCH  28  29
HETATM   29  C   UNL     1      -8.390   4.675  67.583  1.00  0.00    -0.103 C  
BRANCH  29  30
HETATM   30  C   UNL     1      -9.785   4.236  67.170  1.00  0.00    -0.196 C  
BRANCH  30  31
HETATM   31  O   UNL     1     -10.332   5.205  66.282  1.00  0.00    -0.236 OA 
BRANCH  31  32
HETATM   32  C   UNL     1      -9.748   6.488  66.493  1.00  0.00    -0.126 C  
BRANCH  32  33
HETATM   33  C   UNL     1     -10.703   7.337  67.318  1.00  0.00    -0.321 C  
BRANCH  33  34
HETATM   34  O   UNL     1      -9.952   8.149  68.217  1.00  0.00    -0.174 OA 
BRANCH  34  35
HETATM   35  C   UNL     1     -10.800   9.005  68.978  1.00  0.00    -0.067 C  
BRANCH  35  36
HETATM   36  C   UNL     1     -11.135  10.234  68.144  1.00  0.00    -0.264 C  
BRANCH  36  37
HETATM   37  O   UNL     1     -12.111  11.026  68.823  1.00  0.00    -0.518 OA 
BRANCH  37  38
HETATM   38  C   UNL     1     -11.483  12.032  69.628  1.00  0.00    -0.252 C  
BRANCH  38  39
HETATM   39  C   UNL     1     -12.496  12.525  70.655  1.00  0.00    -0.238 C  
HETATM   40  O   UNL     1     -12.638  11.561  71.698  1.00  0.00    -0.291 OA 
HETATM   41  H   UNL     1     -13.268  11.868  72.338  1.00  0.00     0.000 HD 
ENDBRANCH  38  39
ENDBRANCH  37  38
ENDBRANCH  36  37
ENDBRANCH  35  36
ENDBRANCH  34  35
ENDBRANCH  33  34
ENDBRANCH  32  33
ENDBRANCH  31  32
ENDBRANCH  30  31
ENDBRANCH  29  30
ENDBRANCH  28  29
ENDBRANCH  27  28
ENDBRANCH  26  27
ENDBRANCH  25  26
ENDBRANCH  24  25
ENDBRANCH  23  24
ENDBRANCH  22  23
ENDBRANCH  21  22
ENDBRANCH  20  21
ENDBRANCH  19  20
ENDBRANCH  18  19
ENDBRANCH  17  18
ENDBRANCH  16  17
ENDBRANCH  15  16
ENDBRANCH  14  15
ENDBRANCH  13  14
ENDBRANCH  12  13
ENDBRANCH  11  12
ENDBRANCH  10  11
ENDBRANCH   9  10
ENDBRANCH   8   9
ENDBRANCH   7   8
ENDBRANCH   6   7
ENDBRANCH   5   6
ENDBRANCH   4   5
ENDBRANCH   3   4
ENDBRANCH   2   3
TORSDOF 37
ENDMDL
MODEL      160
REMARK 921   NORMALIZED FREE ENERGY PREDICTED BY IDOCK:   -2.69 KCAL/MOL
REMARK 922        TOTAL FREE ENERGY PREDICTED BY IDOCK:  -12.14 KCAL/MOL
REMARK 923 INTER-LIGAND FREE ENERGY PREDICTED BY IDOCK:   -9.41 KCAL/MOL
REMARK 924 INTRA-LIGAND FREE ENERGY PREDICTED BY IDOCK:   -2.73 KCAL/MOL
REMARK 927      BINDING AFFINITY PREDICTED BY RF-SCORE:    0.00 PKD
ROOT
HETATM    1  C   UNL     1      -9.402   9.324  69.489  1.00  0.00    -0.177 C  
HETATM    2  C   UNL     1     -10.494  10.370  69.345  1.00  0.00    -0.261 C  
ENDROOT
BRANCH   2   3
HETATM    3  C   UNL     1     -11.455  10.327  70.530  1.00  0.00    -0.427 C  
BRANCH   3   4
HETATM    4  C   UNL     1     -10.942   9.393  71.625  1.00  0.00    -0.382 C  
BRANCH   4   5
HETATM    5  C   UNL     1     -12.095   8.621  72.261  1.00  0.00    -0.443 C  
BRANCH   5   6
HETATM    6  C   UNL     1     -12.292   7.273  71.577  1.00  0.00    -0.397 C  
BRANCH   6   7
HETATM    7  C   UNL     1     -11.021   6.434  71.664  1.00  0.00    -0.302 C  
BRANCH   7   8
HETATM    8  C   UNL     1     -10.831   5.892  73.074  1.00  0.00    -0.300 C  
BRANCH   8   9
HETATM    9  C   UNL     1      -9.431   6.204  73.594  1.00  0.00    -0.147 C  
BRANCH   9  10
HETATM   10  C   UNL     1      -8.543   6.691  72.457  1.00  0.00    -0.125 C  
BRANCH  10  11
HETATM   11  C   UNL     1      -7.344   5.775  72.263  1.00  0.00    -0.091 C  
BRANCH  11  12
HETATM   12  C   UNL     1      -7.328   4.694  73.330  1.00  0.00    -0.082 C  
BRANCH  12  13
HETATM   13  O   UNL     1      -7.960   3.537  72.796  1.00  0.00    -0.073 OA 
BRANCH  13  14
HETATM   14  C   UNL     1      -7.495   3.274  71.476  1.00  0.00    -0.044 C  
BRANCH  14  15
HETATM   15  C   UNL     1      -8.681   2.967  70.580  1.00  0.00    -0.069 C  
BRANCH  15  16
HETATM   16  O   UNL     1      -8.588   1.608  70.168  1.00  0.00    -0.045 OA 
BRANCH  16  17
HETATM   17  C   UNL     1      -8.124   1.505  68.826  1.00  0.00    -0.048 C  
BRANCH  17  18
HETATM   18  C   UNL     1      -8.788   2.596  68.001  1.00  0.00    -0.127 C  
BRANCH  18  19
HETATM   19  O   UNL     1      -7.833   3.133  67.095  1.00  0.00    -0.077 OA 
BRANCH  19  20
HETATM   20  C   UNL     1      -8.462   3.690  65.939  1.00  0.00    -0.111 C  
BRANCH  20  21
HETATM   21  C   UNL     1      -7.442   4.541  65.193  1.00  0.00    -0.076 C  
BRANCH  21  22
HETATM   22  O   UNL     1      -6.976   5.571  66.070  1.00  0.00    -0.063 OA 
BRANCH  22  23
HETATM   23  C   UNL     1      -8.007   6.500  66.378  1.00  0.00    -0.110 C  
BRANCH  23  24
HETATM   24  C   UNL     1      -7.616   7.868  65.840  1.00  0.00    -0.083 C  
BRANCH  24  25
HETATM   25  O   UNL     1      -8.731   8.424  65.149  1.00  0.00    -0.162 OA 
BRANCH  25  26
HETATM   26  C   UNL     1      -8.867   9.813  65.420  1.00  0.00    -0.169 C  
BRANCH  26  27
HETATM   27  C   UNL     1     -10.022  10.363  64.595  1.00  0.00    -0.338 C  
BRANCH  27  28
HETATM   28  O   UNL     1      -9.872  11.773  64.466  1.00  0.00    -0.246 OA 
BRANCH  28  29
HETATM   29  C   UNL     1     -11.091  12.384  64.056  1.00  0.00    -0.396 C  
BRANCH  29  30
HETATM   30  C   UNL     1     -11.181  13.770  64.673  1.00  0.00    -0.378 C  
BRANCH  30  31
HETATM   31  O   UNL     1     -10.410  13.795  65.870  1.00  0.00    -0.293 OA 
BRANCH  31  32
HETATM   32  C   UNL     1     -10.806  14.869  66.719  1.00  0.00    -0.320 C  
BRANCH  32  33
HETATM   33  C   UNL     1     -12.034  14.446  67.512  1.00  0.00    -0.354 C  
BRANCH  33  34
HETATM   34  O   UNL     1     -11.648  13.496  68.502  1.00  0.00    -0.287 OA 
BRANCH  34  35
HETATM   35  C   UNL     1     -11.355  14.130  69.745  1.00  0.00    -0.204 C  
BRANCH  35  36
HETATM   36  C   UNL     1     -12.525  13.916  70.695  1.00  0.00    -0.366 C  
BRANCH  36  37
HETATM   37  O   UNL     1     -12.945  15.171  71.233  1.00  0.00    -0.341 OA 
BRANCH  37  38
HETATM   38  C   UNL     1     -13.499  15.006  72.544  1.00  0.00    -0.444 C  
BRANCH  38  39
HETATM   39  C   UNL     1     -12.869  16.045  73.465  1.00  0.00    -0.590 C  
HETATM   40  O   UNL     1     -11.666  16.544  72.882  1.00  0.00    -0.459 OA 
HETATM   41  H   UNL     1     -11.273  17.191  73.456  1.00  0.00     0.000 HD 
ENDBRANCH  38  39
ENDBRANCH  37  38
ENDBRANCH  36  37
ENDBRANCH  35  36
ENDBRANCH  34  35
ENDBRANCH  33  34
ENDBRANCH  32  33
ENDBRANCH  31  32
ENDBRANCH  30  31
ENDBRANCH  29  30
ENDBRANCH  28  29
ENDBRANCH  27  28
ENDBRANCH  26  27
ENDBRANCH  25  26
ENDBRANCH  24  25
ENDBRANCH  23  24
ENDBRANCH  22  23
ENDBRANCH  21  22
ENDBRANCH  20  21
ENDBRANCH  19  20
ENDBRANCH  18  19
ENDBRANCH  17  18
ENDBRANCH  16  17
ENDBRANCH  15  16
ENDBRANCH  14  15
ENDBRANCH  13  14
ENDBRANCH  12  13
ENDBRANCH  11  12
ENDBRANCH  10  11
ENDBRANCH   9  10
ENDBRANCH   8   9
ENDBRANCH   7   8
ENDBRANCH   6   7
ENDBRANCH   5   6
ENDBRANCH   4   5
ENDBRANCH   3   4
ENDBRANCH   2   3
TORSDOF 37
ENDMDL
MODEL      161
REMARK 921   NORMALIZED FREE ENERGY PREDICTED BY IDOCK:   -2.68 KCAL/MOL
REMARK 922        TOTAL FREE ENERGY PREDICTED BY IDOCK:  -12.10 KCAL/MOL
REMARK 923 INTER-LIGAND FREE ENERGY PREDICTED BY IDOCK:   -8.86 KCAL/MOL
REMARK 924 INTRA-LIGAND FREE ENERGY PREDICTED BY IDOCK:   -3.25 KCAL/MOL
REMARK 927      BINDING AFFINITY PREDICTED BY RF-SCORE:    0.00 PKD
ROOT
HETATM    1  C   UNL     1     -12.043  13.756  66.544  1.00  0.00    -0.483 C  
HETATM    2  C   UNL     1     -12.449  12.963  65.313  1.00  0.00    -0.552 C  
ENDROOT
BRANCH   2   3
HETATM    3  C   UNL     1     -11.646  13.398  64.091  1.00  0.00    -0.440 C  
BRANCH   3   4
HETATM    4  C   UNL     1     -10.372  12.569  63.942  1.00  0.00    -0.436 C  
BRANCH   4   5
HETATM    5  C   UNL     1     -10.656  11.090  64.194  1.00  0.00    -0.412 C  
BRANCH   5   6
HETATM    6  C   UNL     1      -9.790  10.555  65.329  1.00  0.00    -0.345 C  
BRANCH   6   7
HETATM    7  C   UNL     1      -8.412  10.155  64.813  1.00  0.00    -0.180 C  
BRANCH   7   8
HETATM    8  C   UNL     1      -7.374  10.248  65.924  1.00  0.00    -0.131 C  
BRANCH   8   9
HETATM    9  C   UNL     1      -6.951   8.860  66.393  1.00  0.00    -0.079 C  
BRANCH   9  10
HETATM   10  C   UNL     1      -6.942   8.798  67.914  1.00  0.00    -0.078 C  
BRANCH  10  11
HETATM   11  C   UNL     1      -7.969   9.749  68.511  1.00  0.00    -0.089 C  
BRANCH  11  12
HETATM   12  C   UNL     1      -8.091   9.523  70.008  1.00  0.00    -0.167 C  
BRANCH  12  13
HETATM   13  O   UNL     1      -9.456   9.693  70.370  1.00  0.00    -0.252 OA 
BRANCH  13  14
HETATM   14  C   UNL     1      -9.741   9.014  71.589  1.00  0.00    -0.276 C  
BRANCH  14  15
HETATM   15  C   UNL     1      -8.436   8.646  72.273  1.00  0.00    -0.078 C  
BRANCH  15  16
HETATM   16  O   UNL     1      -8.526   7.293  72.705  1.00  0.00    -0.106 OA 
BRANCH  16  17
HETATM   17  C   UNL     1      -9.861   6.951  73.061  1.00  0.00    -0.179 C  
BRANCH  17  18
HETATM   18  C   UNL     1      -9.848   6.344  74.455  1.00  0.00    -0.319 C  
BRANCH  18  19
HETATM   19  O   UNL     1     -10.831   5.319  74.519  1.00  0.00    -0.277 OA 
BRANCH  19  20
HETATM   20  C   UNL     1     -11.018   4.690  73.250  1.00  0.00    -0.303 C  
BRANCH  20  21
HETATM   21  C   UNL     1     -10.978   3.180  73.445  1.00  0.00    -0.200 C  
BRANCH  21  22
HETATM   22  O   UNL     1      -9.661   2.806  73.860  1.00  0.00    -0.087 OA 
BRANCH  22  23
HETATM   23  C   UNL     1      -9.194   1.665  73.150  1.00  0.00    -0.069 C  
BRANCH  23  24
HETATM   24  C   UNL     1      -9.694   1.737  71.715  1.00  0.00    -0.133 C  
BRANCH  24  25
HETATM   25  O   UNL     1      -8.679   2.324  70.906  1.00  0.00    -0.057 OA 
BRANCH  25  26
HETATM   26  C   UNL     1      -9.237   3.194  69.929  1.00  0.00    -0.152 C  
BRANCH  26  27
HETATM   27  C   UNL     1      -8.296   3.258  68.735  1.00  0.00    -0.065 C  
BRANCH  27  28
HETATM   28  O   UNL     1      -7.339   4.291  68.950  1.00  0.00    -0.055 OA 
BRANCH  28  29
HETATM   29  C   UNL     1      -7.033   4.968  67.736  1.00  0.00    -0.061 C  
BRANCH  29  30
HETATM   30  C   UNL     1      -7.771   4.290  66.593  1.00  0.00    -0.093 C  
BRANCH  30  31
HETATM   31  O   UNL     1      -8.240   5.285  65.689  1.00  0.00    -0.113 OA 
BRANCH  31  32
HETATM   32  C   UNL     1      -9.128   6.194  66.336  1.00  0.00    -0.148 C  
BRANCH  32  33
HETATM   33  C   UNL     1     -10.521   5.580  66.376  1.00  0.00    -0.236 C  
BRANCH  33  34
HETATM   34  O   UNL     1     -10.867   5.293  67.728  1.00  0.00    -0.055 OA 
BRANCH  34  35
HETATM   35  C   UNL     1     -10.782   6.458  68.545  1.00  0.00    -0.288 C  
BRANCH  35  36
HETATM   36  C   UNL     1     -11.584   6.227  69.818  1.00  0.00    -0.260 C  
BRANCH  36  37
HETATM   37  O   UNL     1     -12.285   7.421  70.169  1.00  0.00     0.121 OA 
BRANCH  37  38
HETATM   38  C   UNL     1     -12.884   7.300  71.465  1.00  0.00    -0.388 C  
BRANCH  38  39
HETATM   39  C   UNL     1     -13.369   8.679  71.899  1.00  0.00    -0.382 C  
HETATM   40  O   UNL     1     -13.481   8.729  73.321  1.00  0.00    -0.954 OA 
HETATM   41  H   UNL     1     -13.783   9.588  73.591  1.00  0.00     0.000 HD 
ENDBRANCH  38  39
ENDBRANCH  37  38
ENDBRANCH  36  37
ENDBRANCH  35  36
ENDBRANCH  34  35
ENDBRANCH  33  34
ENDBRANCH  32  33
ENDBRANCH  31  32
ENDBRANCH  30  31
ENDBRANCH  29  30
ENDBRANCH  28  29
ENDBRANCH  27  28
ENDBRANCH  26  27
ENDBRANCH  25  26
ENDBRANCH  24  25
ENDBRANCH  23  24
ENDBRANCH  22  23
ENDBRANCH  21  22
ENDBRANCH  20  21
ENDBRANCH  19  20
ENDBRANCH  18  19
ENDBRANCH  17  18
ENDBRANCH  16  17
ENDBRANCH  15  16
ENDBRANCH  14  15
ENDBRANCH  13  14
ENDBRANCH  12  13
ENDBRANCH  11  12
ENDBRANCH  10  11
ENDBRANCH   9  10
ENDBRANCH   8   9
ENDBRANCH   7   8
ENDBRANCH   6   7
ENDBRANCH   5   6
ENDBRANCH   4   5
ENDBRANCH   3   4
ENDBRANCH   2   3
TORSDOF 37
ENDMDL
MODEL      162
REMARK 921   NORMALIZED FREE ENERGY PREDICTED BY IDOCK:   -2.68 KCAL/MOL
REMARK 922        TOTAL FREE ENERGY PREDICTED BY IDOCK:  -12.08 KCAL/MOL
REMARK 923 INTER-LIGAND FREE ENERGY PREDICTED BY IDOCK:   -9.93 KCAL/MOL
REMARK 924 INTRA-LIGAND FREE ENERGY PREDICTED BY IDOCK:   -2.15 KCAL/MOL
REMARK 927      BINDING AFFINITY PREDICTED BY RF-SCORE:    0.00 PKD
ROOT
HETATM    1  C   UNL     1      -9.276  10.093  63.284  1.00  0.00    -0.320 C  
HETATM    2  C   UNL     1      -9.961  11.065  64.230  1.00  0.00    -0.373 C  
ENDROOT
BRANCH   2   3
HETATM    3  C   UNL     1     -10.879  12.016  63.468  1.00  0.00    -0.509 C  
BRANCH   3   4
HETATM    4  C   UNL     1     -11.422  13.113  64.383  1.00  0.00    -0.407 C  
BRANCH   4   5
HETATM    5  C   UNL     1     -12.225  12.510  65.532  1.00  0.00    -0.442 C  
BRANCH   5   6
HETATM    6  C   UNL     1     -11.772  13.079  66.871  1.00  0.00    -0.441 C  
BRANCH   6   7
HETATM    7  C   UNL     1     -11.482  14.572  66.752  1.00  0.00    -0.376 C  
BRANCH   7   8
HETATM    8  C   UNL     1     -11.874  15.299  68.032  1.00  0.00    -0.176 C  
BRANCH   8   9
HETATM    9  C   UNL     1     -12.159  14.309  69.156  1.00  0.00    -0.337 C  
BRANCH   9  10
HETATM   10  C   UNL     1     -12.568  15.052  70.421  1.00  0.00    -0.399 C  
BRANCH  10  11
HETATM   11  C   UNL     1     -12.329  14.204  71.661  1.00  0.00    -0.349 C  
BRANCH  11  12
HETATM   12  C   UNL     1     -13.439  13.180  71.822  1.00  0.00    -0.335 C  
BRANCH  12  13
HETATM   13  O   UNL     1     -13.146  12.073  70.979  1.00  0.00    -0.152 OA 
BRANCH  13  14
HETATM   14  C   UNL     1     -12.506  11.036  71.714  1.00  0.00    -0.089 C  
BRANCH  14  15
HETATM   15  C   UNL     1     -13.482   9.890  71.916  1.00  0.00    -0.372 C  
BRANCH  15  16
HETATM   16  O   UNL     1     -12.781   8.811  72.525  1.00  0.00    -0.396 OA 
BRANCH  16  17
HETATM   17  C   UNL     1     -12.846   7.635  71.725  1.00  0.00    -0.330 C  
BRANCH  17  18
HETATM   18  C   UNL     1     -11.609   6.796  71.999  1.00  0.00    -0.291 C  
BRANCH  18  19
HETATM   19  O   UNL     1     -11.103   7.129  73.286  1.00  0.00    -0.301 OA 
BRANCH  19  20
HETATM   20  C   UNL     1      -9.781   6.621  73.478  1.00  0.00    -0.191 C  
BRANCH  20  21
HETATM   21  C   UNL     1      -8.945   7.692  74.166  1.00  0.00    -0.198 C  
BRANCH  21  22
HETATM   22  O   UNL     1      -8.293   8.478  73.164  1.00  0.00    -0.369 OA 
BRANCH  22  23
HETATM   23  C   UNL     1      -7.529   7.668  72.280  1.00  0.00    -0.078 C  
BRANCH  23  24
HETATM   24  C   UNL     1      -7.356   8.403  70.960  1.00  0.00    -0.069 C  
BRANCH  24  25
HETATM   25  O   UNL     1      -8.274   9.492  70.920  1.00  0.00    -0.291 OA 
BRANCH  25  26
HETATM   26  C   UNL     1      -9.335   9.240  70.006  1.00  0.00    -0.209 C  
BRANCH  26  27
HETATM   27  C   UNL     1      -8.782   9.283  68.589  1.00  0.00    -0.132 C  
BRANCH  27  28
HETATM   28  O   UNL     1      -7.730  10.241  68.529  1.00  0.00    -0.086 OA 
BRANCH  28  29
HETATM   29  C   UNL     1      -7.309  10.456  67.185  1.00  0.00    -0.092 C  
BRANCH  29  30
HETATM   30  C   UNL     1      -6.779  11.875  67.056  1.00  0.00    -0.119 C  
BRANCH  30  31
HETATM   31  O   UNL     1      -5.700  12.051  67.969  1.00  0.00    -0.048 OA 
BRANCH  31  32
HETATM   32  C   UNL     1      -5.188  13.380  67.915  1.00  0.00    -0.096 C  
BRANCH  32  33
HETATM   33  C   UNL     1      -5.335  14.022  69.287  1.00  0.00    -0.081 C  
BRANCH  33  34
HETATM   34  O   UNL     1      -5.207  15.436  69.159  1.00  0.00    -0.095 OA 
BRANCH  34  35
HETATM   35  C   UNL     1      -6.340  16.112  69.699  1.00  0.00    -0.192 C  
BRANCH  35  36
HETATM   36  C   UNL     1      -7.423  16.190  68.631  1.00  0.00    -0.179 C  
BRANCH  36  37
HETATM   37  O   UNL     1      -7.839  17.546  68.467  1.00  0.00    -0.256 OA 
BRANCH  37  38
HETATM   38  C   UNL     1      -6.875  18.289  67.709  1.00  0.00    -0.204 C  
BRANCH  38  39
HETATM   39  C   UNL     1      -6.679  17.591  66.368  1.00  0.00    -0.262 C  
HETATM   40  O   UNL     1      -5.293  17.324  66.158  1.00  0.00    -0.290 OA 
HETATM   41  H   UNL     1      -5.172  16.889  65.322  1.00  0.00     0.000 HD 
ENDBRANCH  38  39
ENDBRANCH  37  38
ENDBRANCH  36  37
ENDBRANCH  35  36
ENDBRANCH  34  35
ENDBRANCH  33  34
ENDBRANCH  32  33
ENDBRANCH  31  32
ENDBRANCH  30  31
ENDBRANCH  29  30
ENDBRANCH  28  29
ENDBRANCH  27  28
ENDBRANCH  26  27
ENDBRANCH  25  26
ENDBRANCH  24  25
ENDBRANCH  23  24
ENDBRANCH  22  23
ENDBRANCH  21  22
ENDBRANCH  20  21
ENDBRANCH  19  20
ENDBRANCH  18  19
ENDBRANCH  17  18
ENDBRANCH  16  17
ENDBRANCH  15  16
ENDBRANCH  14  15
ENDBRANCH  13  14
ENDBRANCH  12  13
ENDBRANCH  11  12
ENDBRANCH  10  11
ENDBRANCH   9  10
ENDBRANCH   8   9
ENDBRANCH   7   8
ENDBRANCH   6   7
ENDBRANCH   5   6
ENDBRANCH   4   5
ENDBRANCH   3   4
ENDBRANCH   2   3
TORSDOF 37
ENDMDL
MODEL      163
REMARK 921   NORMALIZED FREE ENERGY PREDICTED BY IDOCK:   -2.67 KCAL/MOL
REMARK 922        TOTAL FREE ENERGY PREDICTED BY IDOCK:  -12.08 KCAL/MOL
REMARK 923 INTER-LIGAND FREE ENERGY PREDICTED BY IDOCK:  -10.40 KCAL/MOL
REMARK 924 INTRA-LIGAND FREE ENERGY PREDICTED BY IDOCK:   -1.68 KCAL/MOL
REMARK 927      BINDING AFFINITY PREDICTED BY RF-SCORE:    0.00 PKD
ROOT
HETATM    1  C   UNL     1     -12.112  16.706  74.565  1.00  0.00    -0.282 C  
HETATM    2  C   UNL     1     -12.147  16.244  73.118  1.00  0.00    -0.608 C  
ENDROOT
BRANCH   2   3
HETATM    3  C   UNL     1     -13.519  15.680  72.756  1.00  0.00    -0.662 C  
BRANCH   3   4
HETATM    4  C   UNL     1     -13.438  14.188  72.441  1.00  0.00    -0.616 C  
BRANCH   4   5
HETATM    5  C   UNL     1     -12.904  13.961  71.029  1.00  0.00    -0.394 C  
BRANCH   5   6
HETATM    6  C   UNL     1     -12.907  15.259  70.230  1.00  0.00    -0.298 C  
BRANCH   6   7
HETATM    7  C   UNL     1     -12.092  15.106  68.950  1.00  0.00    -0.227 C  
BRANCH   7   8
HETATM    8  C   UNL     1     -11.668  13.657  68.753  1.00  0.00    -0.383 C  
BRANCH   8   9
HETATM    9  C   UNL     1     -12.149  13.126  67.407  1.00  0.00    -0.316 C  
BRANCH   9  10
HETATM   10  C   UNL     1     -12.091  14.227  66.356  1.00  0.00    -0.442 C  
BRANCH  10  11
HETATM   11  C   UNL     1     -10.657  14.514  65.936  1.00  0.00    -0.315 C  
BRANCH  11  12
HETATM   12  C   UNL     1     -10.194  13.494  64.909  1.00  0.00    -0.329 C  
BRANCH  12  13
HETATM   13  O   UNL     1     -11.241  13.312  63.963  1.00  0.00    -0.381 OA 
BRANCH  13  14
HETATM   14  C   UNL     1     -11.645  11.948  63.917  1.00  0.00    -0.425 C  
BRANCH  14  15
HETATM   15  C   UNL     1     -10.423  11.059  64.058  1.00  0.00    -0.366 C  
BRANCH  15  16
HETATM   16  O   UNL     1      -9.594  11.259  62.918  1.00  0.00    -0.348 OA 
BRANCH  16  17
HETATM   17  C   UNL     1      -9.198  10.019  62.342  1.00  0.00    -0.296 C  
BRANCH  17  18
HETATM   18  C   UNL     1      -7.684   9.912  62.425  1.00  0.00    -0.120 C  
BRANCH  18  19
HETATM   19  O   UNL     1      -7.342   8.657  63.001  1.00  0.00    -0.094 OA 
BRANCH  19  20
HETATM   20  C   UNL     1      -7.580   8.645  64.410  1.00  0.00    -0.115 C  
BRANCH  20  21
HETATM   21  C   UNL     1      -6.402   9.314  65.107  1.00  0.00    -0.069 C  
BRANCH  21  22
HETATM   22  O   UNL     1      -6.907  10.278  66.037  1.00  0.00    -0.103 OA 
BRANCH  22  23
HETATM   23  C   UNL     1      -8.205   9.926  66.499  1.00  0.00    -0.121 C  
BRANCH  23  24
HETATM   24  C   UNL     1      -8.364  10.404  67.935  1.00  0.00    -0.114 C  
BRANCH  24  25
HETATM   25  O   UNL     1      -7.576   9.573  68.783  1.00  0.00    -0.074 OA 
BRANCH  25  26
HETATM   26  C   UNL     1      -7.818   9.860  70.155  1.00  0.00    -0.171 C  
BRANCH  26  27
HETATM   27  C   UNL     1      -8.361   8.608  70.829  1.00  0.00    -0.152 C  
BRANCH  27  28
HETATM   28  O   UNL     1      -9.161   8.989  71.943  1.00  0.00    -0.353 OA 
BRANCH  28  29
HETATM   29  C   UNL     1     -10.488   8.488  71.816  1.00  0.00    -0.300 C  
BRANCH  29  30
HETATM   30  C   UNL     1     -10.430   6.984  71.602  1.00  0.00    -0.199 C  
BRANCH  30  31
HETATM   31  O   UNL     1     -11.540   6.587  70.802  1.00  0.00    -0.343 OA 
BRANCH  31  32
HETATM   32  C   UNL     1     -11.110   5.979  69.587  1.00  0.00    -0.404 C  
BRANCH  32  33
HETATM   33  C   UNL     1     -10.459   7.037  68.708  1.00  0.00    -0.206 C  
BRANCH  33  34
HETATM   34  O   UNL     1      -9.249   6.515  68.165  1.00  0.00    -0.115 OA 
BRANCH  34  35
HETATM   35  C   UNL     1      -9.507   5.484  67.216  1.00  0.00    -0.117 C  
BRANCH  35  36
HETATM   36  C   UNL     1      -8.181   4.899  66.750  1.00  0.00    -0.107 C  
BRANCH  36  37
HETATM   37  O   UNL     1      -8.383   4.131  65.563  1.00  0.00    -0.108 OA 
BRANCH  37  38
HETATM   38  C   UNL     1      -8.448   4.981  64.410  1.00  0.00    -0.142 C  
BRANCH  38  39
HETATM   39  C   UNL     1      -8.829   4.127  63.206  1.00  0.00    -0.116 C  
HETATM   40  O   UNL     1      -7.829   3.134  62.979  1.00  0.00    -0.066 OA 
HETATM   41  H   UNL     1      -8.067   2.602  62.229  1.00  0.00     0.000 HD 
ENDBRANCH  38  39
ENDBRANCH  37  38
ENDBRANCH  36  37
ENDBRANCH  35  36
ENDBRANCH  34  35
ENDBRANCH  33  34
ENDBRANCH  32  33
ENDBRANCH  31  32
ENDBRANCH  30  31
ENDBRANCH  29  30
ENDBRANCH  28  29
ENDBRANCH  27  28
ENDBRANCH  26  27
ENDBRANCH  25  26
ENDBRANCH  24  25
ENDBRANCH  23  24
ENDBRANCH  22  23
ENDBRANCH  21  22
ENDBRANCH  20  21
ENDBRANCH  19  20
ENDBRANCH  18  19
ENDBRANCH  17  18
ENDBRANCH  16  17
ENDBRANCH  15  16
ENDBRANCH  14  15
ENDBRANCH  13  14
ENDBRANCH  12  13
ENDBRANCH  11  12
ENDBRANCH  10  11
ENDBRANCH   9  10
ENDBRANCH   8   9
ENDBRANCH   7   8
ENDBRANCH   6   7
ENDBRANCH   5   6
ENDBRANCH   4   5
ENDBRANCH   3   4
ENDBRANCH   2   3
TORSDOF 37
ENDMDL
MODEL      164
REMARK 921   NORMALIZED FREE ENERGY PREDICTED BY IDOCK:   -2.63 KCAL/MOL
REMARK 922        TOTAL FREE ENERGY PREDICTED BY IDOCK:  -11.94 KCAL/MOL
REMARK 923 INTER-LIGAND FREE ENERGY PREDICTED BY IDOCK:   -9.17 KCAL/MOL
REMARK 924 INTRA-LIGAND FREE ENERGY PREDICTED BY IDOCK:   -2.77 KCAL/MOL
REMARK 927      BINDING AFFINITY PREDICTED BY RF-SCORE:    0.00 PKD
ROOT
HETATM    1  C   UNL     1     -11.836  11.417  69.129  1.00  0.00    -0.413 C  
HETATM    2  C   UNL     1     -10.949  10.470  69.920  1.00  0.00    -0.359 C  
ENDROOT
BRANCH   2   3
HETATM    3  C   UNL     1     -11.602  10.085  71.244  1.00  0.00    -0.430 C  
BRANCH   3   4
HETATM    4  C   UNL     1     -13.115   9.942  71.095  1.00  0.00    -0.453 C  
BRANCH   4   5
HETATM    5  C   UNL     1     -13.589   8.602  71.651  1.00  0.00    -0.408 C  
BRANCH   5   6
HETATM    6  C   UNL     1     -12.427   7.624  71.783  1.00  0.00    -0.358 C  
BRANCH   6   7
HETATM    7  C   UNL     1     -12.246   6.824  70.497  1.00  0.00    -0.253 C  
BRANCH   7   8
HETATM    8  C   UNL     1     -10.901   6.110  70.495  1.00  0.00    -0.364 C  
BRANCH   8   9
HETATM    9  C   UNL     1     -10.610   5.490  71.857  1.00  0.00    -0.293 C  
BRANCH   9  10
HETATM   10  C   UNL     1      -9.325   4.673  71.800  1.00  0.00    -0.190 C  
BRANCH  10  11
HETATM   11  C   UNL     1      -8.172   5.497  71.247  1.00  0.00    -0.125 C  
BRANCH  11  12
HETATM   12  C   UNL     1      -7.086   4.586  70.702  1.00  0.00    -0.041 C  
BRANCH  12  13
HETATM   13  O   UNL     1      -7.703   3.394  70.231  1.00  0.00    -0.044 OA 
BRANCH  13  14
HETATM   14  C   UNL     1      -7.619   3.311  68.813  1.00  0.00    -0.048 C  
BRANCH  14  15
HETATM   15  C   UNL     1      -6.382   4.055  68.341  1.00  0.00    -0.036 C  
BRANCH  15  16
HETATM   16  O   UNL     1      -6.653   4.595  67.052  1.00  0.00    -0.047 OA 
BRANCH  16  17
HETATM   17  C   UNL     1      -6.444   3.626  66.031  1.00  0.00    -0.033 C  
BRANCH  17  18
HETATM   18  C   UNL     1      -6.240   4.352  64.711  1.00  0.00    -0.030 C  
BRANCH  18  19
HETATM   19  O   UNL     1      -7.465   4.345  63.988  1.00  0.00    -0.061 OA 
BRANCH  19  20
HETATM   20  C   UNL     1      -8.152   3.100  64.133  1.00  0.00    -0.082 C  
BRANCH  20  21
HETATM   21  C   UNL     1      -9.643   3.382  64.272  1.00  0.00    -0.153 C  
BRANCH  21  22
HETATM   22  O   UNL     1      -9.812   4.683  64.844  1.00  0.00    -0.115 OA 
BRANCH  22  23
HETATM   23  C   UNL     1     -10.233   4.605  66.200  1.00  0.00    -0.277 C  
BRANCH  23  24
HETATM   24  C   UNL     1      -9.821   5.881  66.919  1.00  0.00    -0.156 C  
BRANCH  24  25
HETATM   25  O   UNL     1     -10.923   6.785  66.913  1.00  0.00    -0.378 OA 
BRANCH  25  26
HETATM   26  C   UNL     1     -10.536   8.073  67.377  1.00  0.00    -0.287 C  
BRANCH  26  27
HETATM   27  C   UNL     1      -9.435   8.609  66.473  1.00  0.00    -0.216 C  
BRANCH  27  28
HETATM   28  O   UNL     1      -9.937   9.719  65.736  1.00  0.00    -0.284 OA 
BRANCH  28  29
HETATM   29  C   UNL     1      -8.875  10.539  65.257  1.00  0.00    -0.188 C  
BRANCH  29  30
HETATM   30  C   UNL     1      -9.381  11.366  64.086  1.00  0.00    -0.055 C  
BRANCH  30  31
HETATM   31  O   UNL     1     -10.702  11.814  64.372  1.00  0.00    -0.288 OA 
BRANCH  31  32
HETATM   32  C   UNL     1     -10.736  13.224  64.580  1.00  0.00    -0.400 C  
BRANCH  32  33
HETATM   33  C   UNL     1     -11.702  13.533  65.715  1.00  0.00    -0.345 C  
BRANCH  33  34
HETATM   34  O   UNL     1     -11.331  14.767  66.323  1.00  0.00    -0.343 OA 
BRANCH  34  35
HETATM   35  C   UNL     1      -9.915  14.919  66.370  1.00  0.00    -0.275 C  
BRANCH  35  36
HETATM   36  C   UNL     1      -9.571  16.391  66.183  1.00  0.00    -0.325 C  
BRANCH  36  37
HETATM   37  O   UNL     1      -8.159  16.573  66.298  1.00  0.00    -0.307 OA 
BRANCH  37  38
HETATM   38  C   UNL     1      -7.756  16.593  67.673  1.00  0.00    -0.166 C  
BRANCH  38  39
HETATM   39  C   UNL     1      -7.154  17.961  67.976  1.00  0.00    -0.215 C  
HETATM   40  O   UNL     1      -8.119  18.781  68.633  1.00  0.00    -0.330 OA 
HETATM   41  H   UNL     1      -7.744  19.633  68.822  1.00  0.00     0.000 HD 
ENDBRANCH  38  39
ENDBRANCH  37  38
ENDBRANCH  36  37
ENDBRANCH  35  36
ENDBRANCH  34  35
ENDBRANCH  33  34
ENDBRANCH  32  33
ENDBRANCH  31  32
ENDBRANCH  30  31
ENDBRANCH  29  30
ENDBRANCH  28  29
ENDBRANCH  27  28
ENDBRANCH  26  27
ENDBRANCH  25  26
ENDBRANCH  24  25
ENDBRANCH  23  24
ENDBRANCH  22  23
ENDBRANCH  21  22
ENDBRANCH  20  21
ENDBRANCH  19  20
ENDBRANCH  18  19
ENDBRANCH  17  18
ENDBRANCH  16  17
ENDBRANCH  15  16
ENDBRANCH  14  15
ENDBRANCH  13  14
ENDBRANCH  12  13
ENDBRANCH  11  12
ENDBRANCH  10  11
ENDBRANCH   9  10
ENDBRANCH   8   9
ENDBRANCH   7   8
ENDBRANCH   6   7
ENDBRANCH   5   6
ENDBRANCH   4   5
ENDBRANCH   3   4
ENDBRANCH   2   3
TORSDOF 37
ENDMDL
MODEL      165
REMARK 921   NORMALIZED FREE ENERGY PREDICTED BY IDOCK:   -2.62 KCAL/MOL
REMARK 922        TOTAL FREE ENERGY PREDICTED BY IDOCK:  -11.90 KCAL/MOL
REMARK 923 INTER-LIGAND FREE ENERGY PREDICTED BY IDOCK:   -9.63 KCAL/MOL
REMARK 924 INTRA-LIGAND FREE ENERGY PREDICTED BY IDOCK:   -2.27 KCAL/MOL
REMARK 927      BINDING AFFINITY PREDICTED BY RF-SCORE:    0.00 PKD
ROOT
HETATM    1  C   UNL     1     -11.351   1.751  73.531  1.00  0.00    -0.301 C  
HETATM    2  C   UNL     1     -10.854   3.108  73.998  1.00  0.00    -0.264 C  
ENDROOT
BRANCH   2   3
HETATM    3  C   UNL     1     -10.501   4.001  72.811  1.00  0.00    -0.234 C  
BRANCH   3   4
HETATM    4  C   UNL     1     -11.365   5.260  72.790  1.00  0.00    -0.342 C  
BRANCH   4   5
HETATM    5  C   UNL     1     -10.499   6.511  72.919  1.00  0.00    -0.246 C  
BRANCH   5   6
HETATM    6  C   UNL     1     -10.106   6.753  74.372  1.00  0.00    -0.282 C  
BRANCH   6   7
HETATM    7  C   UNL     1      -8.589   6.745  74.528  1.00  0.00    -0.195 C  
BRANCH   7   8
HETATM    8  C   UNL     1      -7.908   6.806  73.167  1.00  0.00    -0.099 C  
BRANCH   8   9
HETATM    9  C   UNL     1      -7.164   5.508  72.870  1.00  0.00    -0.091 C  
BRANCH   9  10
HETATM   10  C   UNL     1      -6.563   5.554  71.472  1.00  0.00    -0.045 C  
BRANCH  10  11
HETATM   11  C   UNL     1      -7.260   6.593  70.606  1.00  0.00    -0.074 C  
BRANCH  11  12
HETATM   12  C   UNL     1      -8.086   5.913  69.527  1.00  0.00    -0.106 C  
BRANCH  12  13
HETATM   13  O   UNL     1      -7.656   6.407  68.264  1.00  0.00    -0.099 OA 
BRANCH  13  14
HETATM   14  C   UNL     1      -8.373   5.778  67.208  1.00  0.00    -0.104 C  
BRANCH  14  15
HETATM   15  C   UNL     1      -8.349   6.675  65.983  1.00  0.00    -0.134 C  
BRANCH  15  16
HETATM   16  O   UNL     1      -9.391   7.635  66.114  1.00  0.00    -0.159 OA 
BRANCH  16  17
HETATM   17  C   UNL     1      -8.966   8.923  65.680  1.00  0.00    -0.201 C  
BRANCH  17  18
HETATM   18  C   UNL     1      -8.104   8.753  64.439  1.00  0.00    -0.155 C  
BRANCH  18  19
HETATM   19  O   UNL     1      -8.889   9.040  63.290  1.00  0.00    -0.157 OA 
BRANCH  19  20
HETATM   20  C   UNL     1      -8.320  10.099  62.517  1.00  0.00    -0.156 C  
BRANCH  20  21
HETATM   21  C   UNL     1      -9.199  11.335  62.663  1.00  0.00    -0.289 C  
BRANCH  21  22
HETATM   22  O   UNL     1     -10.463  10.936  63.202  1.00  0.00    -0.253 OA 
BRANCH  22  23
HETATM   23  C   UNL     1     -10.943  11.876  64.156  1.00  0.00    -0.369 C  
BRANCH  23  24
HETATM   24  C   UNL     1     -12.322  12.355  63.728  1.00  0.00    -0.528 C  
BRANCH  24  25
HETATM   25  O   UNL     1     -13.070  12.695  64.892  1.00  0.00    -0.850 OA 
BRANCH  25  26
HETATM   26  C   UNL     1     -12.647  13.942  65.431  1.00  0.00    -0.507 C  
BRANCH  26  27
HETATM   27  C   UNL     1     -12.377  13.767  66.918  1.00  0.00    -0.285 C  
BRANCH  27  28
HETATM   28  O   UNL     1     -10.977  13.877  67.153  1.00  0.00    -0.284 OA 
BRANCH  28  29
HETATM   29  C   UNL     1     -10.420  12.622  67.532  1.00  0.00    -0.221 C  
BRANCH  29  30
HETATM   30  C   UNL     1      -9.214  12.867  68.425  1.00  0.00    -0.137 C  
BRANCH  30  31
HETATM   31  O   UNL     1      -8.270  13.666  67.720  1.00  0.00    -0.150 OA 
BRANCH  31  32
HETATM   32  C   UNL     1      -7.633  14.602  68.587  1.00  0.00    -0.129 C  
BRANCH  32  33
HETATM   33  C   UNL     1      -8.600  15.739  68.884  1.00  0.00    -0.220 C  
BRANCH  33  34
HETATM   34  O   UNL     1      -8.068  16.954  68.365  1.00  0.00    -0.216 OA 
BRANCH  34  35
HETATM   35  C   UNL     1      -9.049  17.678  67.625  1.00  0.00    -0.241 C  
BRANCH  35  36
HETATM   36  C   UNL     1      -8.728  19.164  67.703  1.00  0.00    -0.296 C  
BRANCH  36  37
HETATM   37  O   UNL     1      -7.874  19.414  68.821  1.00  0.00    -0.348 OA 
BRANCH  37  38
HETATM   38  C   UNL     1      -6.587  19.872  68.388  1.00  0.00    -0.286 C  
BRANCH  38  39
HETATM   39  C   UNL     1      -6.793  20.959  67.339  1.00  0.00    -0.375 C  
HETATM   40  O   UNL     1      -5.794  20.852  66.326  1.00  0.00    -0.200 OA 
HETATM   41  H   UNL     1      -5.922  21.530  65.673  1.00  0.00     0.000 HD 
ENDBRANCH  38  39
ENDBRANCH  37  38
ENDBRANCH  36  37
ENDBRANCH  35  36
ENDBRANCH  34  35
ENDBRANCH  33  34
ENDBRANCH  32  33
ENDBRANCH  31  32
ENDBRANCH  30  31
ENDBRANCH  29  30
ENDBRANCH  28  29
ENDBRANCH  27  28
ENDBRANCH  26  27
ENDBRANCH  25  26
ENDBRANCH  24  25
ENDBRANCH  23  24
ENDBRANCH  22  23
ENDBRANCH  21  22
ENDBRANCH  20  21
ENDBRANCH  19  20
ENDBRANCH  18  19
ENDBRANCH  17  18
ENDBRANCH  16  17
ENDBRANCH  15  16
ENDBRANCH  14  15
ENDBRANCH  13  14
ENDBRANCH  12  13
ENDBRANCH  11  12
ENDBRANCH  10  11
ENDBRANCH   9  10
ENDBRANCH   8   9
ENDBRANCH   7   8
ENDBRANCH   6   7
ENDBRANCH   5   6
ENDBRANCH   4   5
ENDBRANCH   3   4
ENDBRANCH   2   3
TORSDOF 37
ENDMDL
MODEL      166
REMARK 921   NORMALIZED FREE ENERGY PREDICTED BY IDOCK:   -2.56 KCAL/MOL
REMARK 922        TOTAL FREE ENERGY PREDICTED BY IDOCK:  -11.72 KCAL/MOL
REMARK 923 INTER-LIGAND FREE ENERGY PREDICTED BY IDOCK:   -9.31 KCAL/MOL
REMARK 924 INTRA-LIGAND FREE ENERGY PREDICTED BY IDOCK:   -2.41 KCAL/MOL
REMARK 927      BINDING AFFINITY PREDICTED BY RF-SCORE:    0.00 PKD
ROOT
HETATM    1  C   UNL     1     -10.061  18.029  68.958  1.00  0.00    -0.301 C  
HETATM    2  C   UNL     1      -9.225  19.134  68.336  1.00  0.00    -0.406 C  
ENDROOT
BRANCH   2   3
HETATM    3  C   UNL     1      -7.785  19.083  68.841  1.00  0.00    -0.344 C  
BRANCH   3   4
HETATM    4  C   UNL     1      -6.903  18.250  67.914  1.00  0.00    -0.213 C  
BRANCH   4   5
HETATM    5  C   UNL     1      -6.641  16.870  68.512  1.00  0.00    -0.165 C  
BRANCH   5   6
HETATM    6  C   UNL     1      -6.828  15.778  67.466  1.00  0.00    -0.219 C  
BRANCH   6   7
HETATM    7  C   UNL     1      -8.309  15.523  67.211  1.00  0.00    -0.218 C  
BRANCH   7   8
HETATM    8  C   UNL     1      -8.726  16.082  65.857  1.00  0.00    -0.103 C  
BRANCH   8   9
HETATM    9  C   UNL     1     -10.108  16.721  65.932  1.00  0.00    -0.324 C  
BRANCH   9  10
HETATM   10  C   UNL     1     -11.136  15.699  66.400  1.00  0.00    -0.123 C  
BRANCH  10  11
HETATM   11  C   UNL     1     -11.397  14.651  65.329  1.00  0.00    -0.354 C  
BRANCH  11  12
HETATM   12  C   UNL     1     -12.783  14.053  65.502  1.00  0.00    -0.486 C  
BRANCH  12  13
HETATM   13  O   UNL     1     -12.737  12.698  65.071  1.00  0.00    -0.658 OA 
BRANCH  13  14
HETATM   14  C   UNL     1     -11.405  12.197  65.131  1.00  0.00    -0.327 C  
BRANCH  14  15
HETATM   15  C   UNL     1     -11.217  11.432  66.429  1.00  0.00    -0.183 C  
BRANCH  15  16
HETATM   16  O   UNL     1     -10.319  12.167  67.252  1.00  0.00    -0.210 OA 
BRANCH  16  17
HETATM   17  C   UNL     1     -10.935  12.551  68.476  1.00  0.00    -0.249 C  
BRANCH  17  18
HETATM   18  C   UNL     1     -11.701  11.358  69.025  1.00  0.00    -0.343 C  
BRANCH  18  19
HETATM   19  O   UNL     1     -11.206  11.050  70.322  1.00  0.00    -0.256 OA 
BRANCH  19  20
HETATM   20  C   UNL     1     -12.211  10.440  71.135  1.00  0.00    -0.394 C  
BRANCH  20  21
HETATM   21  C   UNL     1     -11.950   8.940  71.187  1.00  0.00    -0.293 C  
BRANCH  21  22
HETATM   22  O   UNL     1     -10.582   8.725  71.547  1.00  0.00    -0.255 OA 
BRANCH  22  23
HETATM   23  C   UNL     1     -10.471   8.025  72.781  1.00  0.00    -0.345 C  
BRANCH  23  24
HETATM   24  C   UNL     1      -9.342   7.011  72.673  1.00  0.00    -0.138 C  
BRANCH  24  25
HETATM   25  O   UNL     1      -9.719   5.830  73.374  1.00  0.00    -0.149 OA 
BRANCH  25  26
HETATM   26  C   UNL     1     -10.517   4.979  72.560  1.00  0.00    -0.215 C  
BRANCH  26  27
HETATM   27  C   UNL     1      -9.727   4.615  71.311  1.00  0.00    -0.182 C  
BRANCH  27  28
HETATM   28  O   UNL     1     -10.529   4.870  70.163  1.00  0.00    -0.244 OA 
BRANCH  28  29
HETATM   29  C   UNL     1      -9.752   4.807  68.971  1.00  0.00    -0.178 C  
BRANCH  29  30
HETATM   30  C   UNL     1      -9.255   3.383  68.780  1.00  0.00    -0.166 C  
BRANCH  30  31
HETATM   31  O   UNL     1      -9.281   3.065  67.392  1.00  0.00    -0.169 OA 
BRANCH  31  32
HETATM   32  C   UNL     1      -8.040   2.510  66.965  1.00  0.00    -0.076 C  
BRANCH  32  33
HETATM   33  C   UNL     1      -7.012   3.626  66.851  1.00  0.00    -0.055 C  
BRANCH  33  34
HETATM   34  O   UNL     1      -7.585   4.720  66.141  1.00  0.00    -0.088 OA 
BRANCH  34  35
HETATM   35  C   UNL     1      -6.688   5.826  66.078  1.00  0.00    -0.056 C  
BRANCH  35  36
HETATM   36  C   UNL     1      -7.025   6.799  67.200  1.00  0.00    -0.074 C  
BRANCH  36  37
HETATM   37  O   UNL     1      -6.710   8.131  66.793  1.00  0.00    -0.062 OA 
BRANCH  37  38
HETATM   38  C   UNL     1      -7.764   8.684  65.994  1.00  0.00    -0.100 C  
BRANCH  38  39
HETATM   39  C   UNL     1      -9.068   8.566  66.775  1.00  0.00    -0.151 C  
HETATM   40  O   UNL     1      -9.893   7.557  66.194  1.00  0.00    -0.439 OA 
HETATM   41  H   UNL     1     -10.705   7.484  66.680  1.00  0.00     0.000 HD 
ENDBRANCH  38  39
ENDBRANCH  37  38
ENDBRANCH  36  37
ENDBRANCH  35  36
ENDBRANCH  34  35
ENDBRANCH  33  34
ENDBRANCH  32  33
ENDBRANCH  31  32
ENDBRANCH  30  31
ENDBRANCH  29  30
ENDBRANCH  28  29
ENDBRANCH  27  28
ENDBRANCH  26  27
ENDBRANCH  25  26
ENDBRANCH  24  25
ENDBRANCH  23  24
ENDBRANCH  22  23
ENDBRANCH  21  22
ENDBRANCH  20  21
ENDBRANCH  19  20
ENDBRANCH  18  19
ENDBRANCH  17  18
ENDBRANCH  16  17
ENDBRANCH  15  16
ENDBRANCH  14  15
ENDBRANCH  13  14
ENDBRANCH  12  13
ENDBRANCH  11  12
ENDBRANCH  10  11
ENDBRANCH   9  10
ENDBRANCH   8   9
ENDBRANCH   7   8
ENDBRANCH   6   7
ENDBRANCH   5   6
ENDBRANCH   4   5
ENDBRANCH   3   4
ENDBRANCH   2   3
TORSDOF 37
ENDMDL
MODEL      167
REMARK 921   NORMALIZED FREE ENERGY PREDICTED BY IDOCK:   -2.53 KCAL/MOL
REMARK 922        TOTAL FREE ENERGY PREDICTED BY IDOCK:  -11.63 KCAL/MOL
REMARK 923 INTER-LIGAND FREE ENERGY PREDICTED BY IDOCK:   -9.20 KCAL/MOL
REMARK 924 INTRA-LIGAND FREE ENERGY PREDICTED BY IDOCK:   -2.43 KCAL/MOL
REMARK 927      BINDING AFFINITY PREDICTED BY RF-SCORE:    0.00 PKD
ROOT
HETATM    1  C   UNL     1      -7.134   5.204  73.876  1.00  0.00    -0.082 C  
HETATM    2  C   UNL     1      -8.500   5.050  74.523  1.00  0.00    -0.109 C  
ENDROOT
BRANCH   2   3
HETATM    3  C   UNL     1      -9.386   6.257  74.228  1.00  0.00    -0.185 C  
BRANCH   3   4
HETATM    4  C   UNL     1     -10.744   5.826  73.678  1.00  0.00    -0.281 C  
BRANCH   4   5
HETATM    5  C   UNL     1     -10.572   4.927  72.456  1.00  0.00    -0.271 C  
BRANCH   5   6
HETATM    6  C   UNL     1     -10.078   5.727  71.257  1.00  0.00    -0.253 C  
BRANCH   6   7
HETATM    7  C   UNL     1     -10.161   4.894  69.982  1.00  0.00    -0.337 C  
BRANCH   7   8
HETATM    8  C   UNL     1      -9.134   5.370  68.962  1.00  0.00    -0.136 C  
BRANCH   8   9
HETATM    9  C   UNL     1      -9.559   4.997  67.545  1.00  0.00    -0.169 C  
BRANCH   9  10
HETATM   10  C   UNL     1      -8.397   5.189  66.580  1.00  0.00    -0.108 C  
BRANCH  10  11
HETATM   11  C   UNL     1      -8.236   3.984  65.666  1.00  0.00    -0.105 C  
BRANCH  11  12
HETATM   12  C   UNL     1      -8.402   4.397  64.213  1.00  0.00    -0.110 C  
BRANCH  12  13
HETATM   13  O   UNL     1      -8.455   5.817  64.160  1.00  0.00    -0.094 OA 
BRANCH  13  14
HETATM   14  C   UNL     1      -7.900   6.296  62.940  1.00  0.00    -0.100 C  
BRANCH  14  15
HETATM   15  C   UNL     1      -7.507   7.753  63.107  1.00  0.00    -0.115 C  
BRANCH  15  16
HETATM   16  O   UNL     1      -7.155   7.965  64.470  1.00  0.00    -0.068 OA 
BRANCH  16  17
HETATM   17  C   UNL     1      -7.635   9.220  64.939  1.00  0.00    -0.108 C  
BRANCH  17  18
HETATM   18  C   UNL     1      -9.015   9.459  64.349  1.00  0.00    -0.169 C  
BRANCH  18  19
HETATM   19  O   UNL     1      -9.934   9.698  65.408  1.00  0.00    -0.316 OA 
BRANCH  19  20
HETATM   20  C   UNL     1      -9.808   8.719  66.442  1.00  0.00    -0.282 C  
BRANCH  20  21
HETATM   21  C   UNL     1     -10.084   9.389  67.782  1.00  0.00    -0.198 C  
BRANCH  21  22
HETATM   22  O   UNL     1     -10.568   8.401  68.697  1.00  0.00    -0.196 OA 
BRANCH  22  23
HETATM   23  C   UNL     1     -10.853   8.966  69.971  1.00  0.00    -0.227 C  
BRANCH  23  24
HETATM   24  C   UNL     1     -11.510  10.324  69.774  1.00  0.00    -0.256 C  
BRANCH  24  25
HETATM   25  O   UNL     1     -11.956  10.804  71.039  1.00  0.00    -0.334 OA 
BRANCH  25  26
HETATM   26  C   UNL     1     -12.446  12.136  70.942  1.00  0.00    -0.279 C  
BRANCH  26  27
HETATM   27  C   UNL     1     -13.372  12.405  72.119  1.00  0.00    -0.403 C  
BRANCH  27  28
HETATM   28  O   UNL     1     -13.819  13.755  72.061  1.00  0.00    -0.433 OA 
BRANCH  28  29
HETATM   29  C   UNL     1     -13.067  14.583  72.943  1.00  0.00    -0.519 C  
BRANCH  29  30
HETATM   30  C   UNL     1     -12.623  15.828  72.192  1.00  0.00    -0.453 C  
BRANCH  30  31
HETATM   31  O   UNL     1     -11.359  15.577  71.586  1.00  0.00    -0.389 OA 
BRANCH  31  32
HETATM   32  C   UNL     1     -11.262  16.206  70.310  1.00  0.00    -0.381 C  
BRANCH  32  33
HETATM   33  C   UNL     1     -11.226  15.133  69.231  1.00  0.00    -0.278 C  
BRANCH  33  34
HETATM   34  O   UNL     1     -10.392  15.571  68.163  1.00  0.00    -0.231 OA 
BRANCH  34  35
HETATM   35  C   UNL     1      -9.061  15.818  68.609  1.00  0.00    -0.204 C  
BRANCH  35  36
HETATM   36  C   UNL     1      -8.319  14.492  68.707  1.00  0.00    -0.149 C  
BRANCH  36  37
HETATM   37  O   UNL     1      -6.926  14.733  68.911  1.00  0.00    -0.097 OA 
BRANCH  37  38
HETATM   38  C   UNL     1      -6.275  13.565  69.426  1.00  0.00    -0.107 C  
BRANCH  38  39
HETATM   39  C   UNL     1      -5.472  13.968  70.657  1.00  0.00    -0.145 C  
HETATM   40  O   UNL     1      -6.006  13.328  71.816  1.00  0.00    -0.523 OA 
HETATM   41  H   UNL     1      -5.506  13.579  72.583  1.00  0.00     0.000 HD 
ENDBRANCH  38  39
ENDBRANCH  37  38
ENDBRANCH  36  37
ENDBRANCH  35  36
ENDBRANCH  34  35
ENDBRANCH  33  34
ENDBRANCH  32  33
ENDBRANCH  31  32
ENDBRANCH  30  31
ENDBRANCH  29  30
ENDBRANCH  28  29
ENDBRANCH  27  28
ENDBRANCH  26  27
ENDBRANCH  25  26
ENDBRANCH  24  25
ENDBRANCH  23  24
ENDBRANCH  22  23
ENDBRANCH  21  22
ENDBRANCH  20  21
ENDBRANCH  19  20
ENDBRANCH  18  19
ENDBRANCH  17  18
ENDBRANCH  16  17
ENDBRANCH  15  16
ENDBRANCH  14  15
ENDBRANCH  13  14
ENDBRANCH  12  13
ENDBRANCH  11  12
ENDBRANCH  10  11
ENDBRANCH   9  10
ENDBRANCH   8   9
ENDBRANCH   7   8
ENDBRANCH   6   7
ENDBRANCH   5   6
ENDBRANCH   4   5
ENDBRANCH   3   4
ENDBRANCH   2   3
TORSDOF 37
ENDMDL
MODEL      168
REMARK 921   NORMALIZED FREE ENERGY PREDICTED BY IDOCK:   -2.52 KCAL/MOL
REMARK 922        TOTAL FREE ENERGY PREDICTED BY IDOCK:  -11.60 KCAL/MOL
REMARK 923 INTER-LIGAND FREE ENERGY PREDICTED BY IDOCK:   -8.29 KCAL/MOL
REMARK 924 INTRA-LIGAND FREE ENERGY PREDICTED BY IDOCK:   -3.31 KCAL/MOL
REMARK 927      BINDING AFFINITY PREDICTED BY RF-SCORE:    0.00 PKD
ROOT
HETATM    1  C   UNL     1     -10.381   3.837  72.728  1.00  0.00    -0.238 C  
HETATM    2  C   UNL     1      -9.869   2.430  72.476  1.00  0.00    -0.207 C  
ENDROOT
BRANCH   2   3
HETATM    3  C   UNL     1      -9.650   2.185  70.986  1.00  0.00    -0.200 C  
BRANCH   3   4
HETATM    4  C   UNL     1      -9.625   3.498  70.207  1.00  0.00    -0.232 C  
BRANCH   4   5
HETATM    5  C   UNL     1      -8.586   3.446  69.090  1.00  0.00    -0.111 C  
BRANCH   5   6
HETATM    6  C   UNL     1      -9.204   2.934  67.794  1.00  0.00    -0.250 C  
BRANCH   6   7
HETATM    7  C   UNL     1      -9.847   4.077  67.015  1.00  0.00    -0.151 C  
BRANCH   7   8
HETATM    8  C   UNL     1      -8.951   5.309  67.033  1.00  0.00    -0.112 C  
BRANCH   8   9
HETATM    9  C   UNL     1      -9.779   6.584  67.156  1.00  0.00    -0.176 C  
BRANCH   9  10
HETATM   10  C   UNL     1     -10.770   6.459  68.307  1.00  0.00    -0.351 C  
BRANCH  10  11
HETATM   11  C   UNL     1     -10.172   6.975  69.607  1.00  0.00    -0.212 C  
BRANCH  11  12
HETATM   12  C   UNL     1     -11.237   7.038  70.689  1.00  0.00    -0.288 C  
BRANCH  12  13
HETATM   13  O   UNL     1     -10.586   7.240  71.938  1.00  0.00    -0.210 OA 
BRANCH  13  14
HETATM   14  C   UNL     1      -9.177   7.091  71.801  1.00  0.00    -0.141 C  
BRANCH  14  15
HETATM   15  C   UNL     1      -8.529   7.174  73.171  1.00  0.00    -0.121 C  
BRANCH  15  16
HETATM   16  O   UNL     1      -7.149   7.469  72.994  1.00  0.00    -0.068 OA 
BRANCH  16  17
HETATM   17  C   UNL     1      -6.967   8.647  72.216  1.00  0.00    -0.025 C  
BRANCH  17  18
HETATM   18  C   UNL     1      -5.573   9.191  72.483  1.00  0.00    -0.061 C  
BRANCH  18  19
HETATM   19  O   UNL     1      -5.419  10.423  71.790  1.00  0.00    -0.270 OA 
BRANCH  19  20
HETATM   20  C   UNL     1      -5.668  10.272  70.391  1.00  0.00    -0.078 C  
BRANCH  20  21
HETATM   21  C   UNL     1      -6.132  11.612  69.832  1.00  0.00    -0.147 C  
BRANCH  21  22
HETATM   22  O   UNL     1      -7.407  11.432  69.210  1.00  0.00    -0.109 OA 
BRANCH  22  23
HETATM   23  C   UNL     1      -7.276  11.161  67.819  1.00  0.00    -0.091 C  
BRANCH  23  24
HETATM   24  C   UNL     1      -8.324  10.136  67.414  1.00  0.00    -0.118 C  
BRANCH  24  25
HETATM   25  O   UNL     1      -9.323  10.788  66.634  1.00  0.00    -0.162 OA 
BRANCH  25  26
HETATM   26  C   UNL     1     -10.354  11.320  67.456  1.00  0.00    -0.194 C  
BRANCH  26  27
HETATM   27  C   UNL     1     -10.724  10.287  68.510  1.00  0.00    -0.227 C  
BRANCH  27  28
HETATM   28  O   UNL     1     -11.269  10.953  69.644  1.00  0.00    -0.243 OA 
BRANCH  28  29
HETATM   29  C   UNL     1     -11.216  12.367  69.483  1.00  0.00    -0.100 C  
BRANCH  29  30
HETATM   30  C   UNL     1     -12.234  13.008  70.413  1.00  0.00    -0.310 C  
BRANCH  30  31
HETATM   31  O   UNL     1     -12.163  14.423  70.272  1.00  0.00    -0.295 OA 
BRANCH  31  32
HETATM   32  C   UNL     1     -10.811  14.875  70.257  1.00  0.00    -0.104 C  
BRANCH  32  33
HETATM   33  C   UNL     1     -10.704  16.086  69.341  1.00  0.00    -0.294 C  
BRANCH  33  34
HETATM   34  O   UNL     1      -9.344  16.262  68.954  1.00  0.00    -0.227 OA 
BRANCH  34  35
HETATM   35  C   UNL     1      -9.220  17.231  67.916  1.00  0.00    -0.247 C  
BRANCH  35  36
HETATM   36  C   UNL     1      -9.151  16.512  66.576  1.00  0.00    -0.276 C  
BRANCH  36  37
HETATM   37  O   UNL     1     -10.413  16.605  65.914  1.00  0.00    -0.342 OA 
BRANCH  37  38
HETATM   38  C   UNL     1     -10.591  15.518  64.997  1.00  0.00    -0.409 C  
BRANCH  38  39
HETATM   39  C   UNL     1     -10.024  14.255  65.635  1.00  0.00    -0.320 C  
HETATM   40  O   UNL     1      -9.994  13.198  64.677  1.00  0.00    -0.571 OA 
HETATM   41  H   UNL     1      -9.640  12.412  65.075  1.00  0.00     0.000 HD 
ENDBRANCH  38  39
ENDBRANCH  37  38
ENDBRANCH  36  37
ENDBRANCH  35  36
ENDBRANCH  34  35
ENDBRANCH  33  34
ENDBRANCH  32  33
ENDBRANCH  31  32
ENDBRANCH  30  31
ENDBRANCH  29  30
ENDBRANCH  28  29
ENDBRANCH  27  28
ENDBRANCH  26  27
ENDBRANCH  25  26
ENDBRANCH  24  25
ENDBRANCH  23  24
ENDBRANCH  22  23
ENDBRANCH  21  22
ENDBRANCH  20  21
ENDBRANCH  19  20
ENDBRANCH  18  19
ENDBRANCH  17  18
ENDBRANCH  16  17
ENDBRANCH  15  16
ENDBRANCH  14  15
ENDBRANCH  13  14
ENDBRANCH  12  13
ENDBRANCH  11  12
ENDBRANCH  10  11
ENDBRANCH   9  10
ENDBRANCH   8   9
ENDBRANCH   7   8
ENDBRANCH   6   7
ENDBRANCH   5   6
ENDBRANCH   4   5
ENDBRANCH   3   4
ENDBRANCH   2   3
TORSDOF 37
ENDMDL
MODEL      169
REMARK 921   NORMALIZED FREE ENERGY PREDICTED BY IDOCK:   -2.52 KCAL/MOL
REMARK 922        TOTAL FREE ENERGY PREDICTED BY IDOCK:  -11.58 KCAL/MOL
REMARK 923 INTER-LIGAND FREE ENERGY PREDICTED BY IDOCK:   -8.83 KCAL/MOL
REMARK 924 INTRA-LIGAND FREE ENERGY PREDICTED BY IDOCK:   -2.75 KCAL/MOL
REMARK 927      BINDING AFFINITY PREDICTED BY RF-SCORE:    0.00 PKD
ROOT
HETATM    1  C   UNL     1     -12.281  13.729  67.775  1.00  0.00    -0.208 C  
HETATM    2  C   UNL     1     -10.938  13.113  67.421  1.00  0.00    -0.283 C  
ENDROOT
BRANCH   2   3
HETATM    3  C   UNL     1      -9.890  13.436  68.483  1.00  0.00    -0.178 C  
BRANCH   3   4
HETATM    4  C   UNL     1      -9.422  14.885  68.376  1.00  0.00    -0.209 C  
BRANCH   4   5
HETATM    5  C   UNL     1      -9.691  15.637  69.677  1.00  0.00    -0.276 C  
BRANCH   5   6
HETATM    6  C   UNL     1     -11.146  16.086  69.756  1.00  0.00    -0.337 C  
BRANCH   6   7
HETATM    7  C   UNL     1     -11.567  16.296  71.207  1.00  0.00    -0.402 C  
BRANCH   7   8
HETATM    8  C   UNL     1     -11.714  14.959  71.922  1.00  0.00    -0.386 C  
BRANCH   8   9
HETATM    9  C   UNL     1     -13.112  14.807  72.512  1.00  0.00    -0.492 C  
BRANCH   9  10
HETATM   10  C   UNL     1     -13.901  13.762  71.734  1.00  0.00    -0.409 C  
BRANCH  10  11
HETATM   11  C   UNL     1     -13.490  12.353  72.132  1.00  0.00    -0.481 C  
BRANCH  11  12
HETATM   12  C   UNL     1     -12.821  11.647  70.965  1.00  0.00    -0.245 C  
BRANCH  12  13
HETATM   13  O   UNL     1     -13.340  10.325  70.891  1.00  0.00    -0.370 OA 
BRANCH  13  14
HETATM   14  C   UNL     1     -12.986   9.581  72.052  1.00  0.00    -0.426 C  
BRANCH  14  15
HETATM   15  C   UNL     1     -13.986   8.454  72.248  1.00  0.00    -0.307 C  
BRANCH  15  16
HETATM   16  O   UNL     1     -13.721   7.451  71.275  1.00  0.00    -0.359 OA 
BRANCH  16  17
HETATM   17  C   UNL     1     -12.384   6.972  71.375  1.00  0.00    -0.377 C  
BRANCH  17  18
HETATM   18  C   UNL     1     -12.238   6.223  72.690  1.00  0.00     0.151 C  
BRANCH  18  19
HETATM   19  O   UNL     1     -10.963   6.516  73.248  1.00  0.00    -0.259 OA 
BRANCH  19  20
HETATM   20  C   UNL     1     -10.382   5.365  73.863  1.00  0.00    -0.259 C  
BRANCH  20  21
HETATM   21  C   UNL     1      -9.030   5.756  74.447  1.00  0.00    -0.123 C  
BRANCH  21  22
HETATM   22  O   UNL     1      -8.973   7.182  74.554  1.00  0.00    -0.205 OA 
BRANCH  22  23
HETATM   23  C   UNL     1      -7.667   7.674  74.278  1.00  0.00    -0.160 C  
BRANCH  23  24
HETATM   24  C   UNL     1      -7.524   7.880  72.778  1.00  0.00    -0.107 C  
BRANCH  24  25
HETATM   25  O   UNL     1      -8.425   8.906  72.369  1.00  0.00    -0.396 OA 
BRANCH  25  26
HETATM   26  C   UNL     1      -8.575   8.929  70.955  1.00  0.00    -0.206 C  
BRANCH  26  27
HETATM   27  C   UNL     1      -9.186   7.610  70.506  1.00  0.00    -0.159 C  
BRANCH  27  28
HETATM   28  O   UNL     1      -9.557   7.711  69.135  1.00  0.00    -0.154 OA 
BRANCH  28  29
HETATM   29  C   UNL     1      -9.729   6.423  68.553  1.00  0.00    -0.132 C  
BRANCH  29  30
HETATM   30  C   UNL     1      -8.401   5.685  68.585  1.00  0.00    -0.106 C  
BRANCH  30  31
HETATM   31  O   UNL     1      -8.209   5.023  67.339  1.00  0.00    -0.106 OA 
BRANCH  31  32
HETATM   32  C   UNL     1      -7.040   5.498  66.675  1.00  0.00    -0.069 C  
BRANCH  32  33
HETATM   33  C   UNL     1      -7.447   6.537  65.640  1.00  0.00    -0.082 C  
BRANCH  33  34
HETATM   34  O   UNL     1      -6.428   7.528  65.545  1.00  0.00    -0.041 OA 
BRANCH  34  35
HETATM   35  C   UNL     1      -5.867   7.821  66.822  1.00  0.00    -0.043 C  
BRANCH  35  36
HETATM   36  C   UNL     1      -6.636   8.978  67.445  1.00  0.00    -0.065 C  
BRANCH  36  37
HETATM   37  O   UNL     1      -6.749  10.044  66.501  1.00  0.00    -0.077 OA 
BRANCH  37  38
HETATM   38  C   UNL     1      -6.871  11.307  67.169  1.00  0.00    -0.114 C  
BRANCH  38  39
HETATM   39  C   UNL     1      -6.864  11.056  68.673  1.00  0.00    -0.064 C  
HETATM   40  O   UNL     1      -7.049  12.287  69.371  1.00  0.00    -0.308 OA 
HETATM   41  H   UNL     1      -7.045  12.130  70.308  1.00  0.00     0.000 HD 
ENDBRANCH  38  39
ENDBRANCH  37  38
ENDBRANCH  36  37
ENDBRANCH  35  36
ENDBRANCH  34  35
ENDBRANCH  33  34
ENDBRANCH  32  33
ENDBRANCH  31  32
ENDBRANCH  30  31
ENDBRANCH  29  30
ENDBRANCH  28  29
ENDBRANCH  27  28
ENDBRANCH  26  27
ENDBRANCH  25  26
ENDBRANCH  24  25
ENDBRANCH  23  24
ENDBRANCH  22  23
ENDBRANCH  21  22
ENDBRANCH  20  21
ENDBRANCH  19  20
ENDBRANCH  18  19
ENDBRANCH  17  18
ENDBRANCH  16  17
ENDBRANCH  15  16
ENDBRANCH  14  15
ENDBRANCH  13  14
ENDBRANCH  12  13
ENDBRANCH  11  12
ENDBRANCH  10  11
ENDBRANCH   9  10
ENDBRANCH   8   9
ENDBRANCH   7   8
ENDBRANCH   6   7
ENDBRANCH   5   6
ENDBRANCH   4   5
ENDBRANCH   3   4
ENDBRANCH   2   3
TORSDOF 37
ENDMDL
MODEL      170
REMARK 921   NORMALIZED FREE ENERGY PREDICTED BY IDOCK:   -2.51 KCAL/MOL
REMARK 922        TOTAL FREE ENERGY PREDICTED BY IDOCK:  -11.55 KCAL/MOL
REMARK 923 INTER-LIGAND FREE ENERGY PREDICTED BY IDOCK:   -9.57 KCAL/MOL
REMARK 924 INTRA-LIGAND FREE ENERGY PREDICTED BY IDOCK:   -1.98 KCAL/MOL
REMARK 927      BINDING AFFINITY PREDICTED BY RF-SCORE:    0.00 PKD
ROOT
HETATM    1  C   UNL     1      -7.096   5.009  73.810  1.00  0.00    -0.082 C  
HETATM    2  C   UNL     1      -8.428   4.756  74.496  1.00  0.00    -0.103 C  
ENDROOT
BRANCH   2   3
HETATM    3  C   UNL     1      -9.393   5.915  74.263  1.00  0.00    -0.144 C  
BRANCH   3   4
HETATM    4  C   UNL     1     -10.724   5.422  73.698  1.00  0.00    -0.337 C  
BRANCH   4   5
HETATM    5  C   UNL     1     -10.499   4.556  72.461  1.00  0.00    -0.251 C  
BRANCH   5   6
HETATM    6  C   UNL     1      -9.992   5.395  71.294  1.00  0.00    -0.253 C  
BRANCH   6   7
HETATM    7  C   UNL     1     -10.107   4.622  69.984  1.00  0.00    -0.267 C  
BRANCH   7   8
HETATM    8  C   UNL     1      -9.043   5.081  68.995  1.00  0.00    -0.140 C  
BRANCH   8   9
HETATM    9  C   UNL     1      -9.509   4.873  67.558  1.00  0.00    -0.161 C  
BRANCH   9  10
HETATM   10  C   UNL     1      -8.308   4.729  66.631  1.00  0.00    -0.106 C  
BRANCH  10  11
HETATM   11  C   UNL     1      -8.447   3.506  65.737  1.00  0.00    -0.108 C  
BRANCH  11  12
HETATM   12  C   UNL     1      -8.865   3.920  64.337  1.00  0.00    -0.124 C  
BRANCH  12  13
HETATM   13  O   UNL     1      -8.792   5.338  64.255  1.00  0.00    -0.088 OA 
BRANCH  13  14
HETATM   14  C   UNL     1      -8.356   5.745  62.962  1.00  0.00    -0.043 C  
BRANCH  14  15
HETATM   15  C   UNL     1      -7.474   6.974  63.095  1.00  0.00    -0.095 C  
BRANCH  15  16
HETATM   16  O   UNL     1      -7.055   7.076  64.452  1.00  0.00    -0.052 OA 
BRANCH  16  17
HETATM   17  C   UNL     1      -7.157   8.415  64.925  1.00  0.00    -0.079 C  
BRANCH  17  18
HETATM   18  C   UNL     1      -8.394   9.051  64.311  1.00  0.00    -0.173 C  
BRANCH  18  19
HETATM   19  O   UNL     1      -9.300   9.394  65.351  1.00  0.00    -0.232 OA 
BRANCH  19  20
HETATM   20  C   UNL     1      -9.257   8.445  66.419  1.00  0.00    -0.201 C  
BRANCH  20  21
HETATM   21  C   UNL     1      -9.591   9.163  67.721  1.00  0.00    -0.146 C  
BRANCH  21  22
HETATM   22  O   UNL     1     -10.356   8.281  68.547  1.00  0.00    -0.206 OA 
BRANCH  22  23
HETATM   23  C   UNL     1     -10.614   8.853  69.824  1.00  0.00    -0.224 C  
BRANCH  23  24
HETATM   24  C   UNL     1     -11.387  10.149  69.636  1.00  0.00    -0.235 C  
BRANCH  24  25
HETATM   25  O   UNL     1     -11.767  10.645  70.917  1.00  0.00    -0.328 OA 
BRANCH  25  26
HETATM   26  C   UNL     1     -12.439  11.894  70.809  1.00  0.00    -0.291 C  
BRANCH  26  27
HETATM   27  C   UNL     1     -13.320  12.085  72.035  1.00  0.00    -0.341 C  
BRANCH  27  28
HETATM   28  O   UNL     1     -13.935  13.367  71.972  1.00  0.00    -0.431 OA 
BRANCH  28  29
HETATM   29  C   UNL     1     -13.391  14.246  72.952  1.00  0.00    -0.462 C  
BRANCH  29  30
HETATM   30  C   UNL     1     -13.109  15.592  72.305  1.00  0.00    -0.456 C  
BRANCH  30  31
HETATM   31  O   UNL     1     -11.701  15.755  72.170  1.00  0.00    -0.407 OA 
BRANCH  31  32
HETATM   32  C   UNL     1     -11.363  16.296  70.895  1.00  0.00    -0.285 C  
BRANCH  32  33
HETATM   33  C   UNL     1     -10.470  15.307  70.159  1.00  0.00    -0.230 C  
BRANCH  33  34
HETATM   34  O   UNL     1      -9.782  15.986  69.112  1.00  0.00    -0.224 OA 
BRANCH  34  35
HETATM   35  C   UNL     1     -10.232  17.332  68.982  1.00  0.00    -0.318 C  
BRANCH  35  36
HETATM   36  C   UNL     1      -9.944  17.814  67.566  1.00  0.00    -0.324 C  
BRANCH  36  37
HETATM   37  O   UNL     1     -10.899  18.808  67.193  1.00  0.00    -0.421 OA 
BRANCH  37  38
HETATM   38  C   UNL     1     -10.375  19.658  66.164  1.00  0.00    -0.530 C  
BRANCH  38  39
HETATM   39  C   UNL     1      -9.049  20.234  66.647  1.00  0.00    -0.278 C  
HETATM   40  O   UNL     1      -8.020  19.942  65.702  1.00  0.00    -0.392 OA 
HETATM   41  H   UNL     1      -7.194  20.301  66.003  1.00  0.00     0.000 HD 
ENDBRANCH  38  39
ENDBRANCH  37  38
ENDBRANCH  36  37
ENDBRANCH  35  36
ENDBRANCH  34  35
ENDBRANCH  33  34
ENDBRANCH  32  33
ENDBRANCH  31  32
ENDBRANCH  30  31
ENDBRANCH  29  30
ENDBRANCH  28  29
ENDBRANCH  27  28
ENDBRANCH  26  27
ENDBRANCH  25  26
ENDBRANCH  24  25
ENDBRANCH  23  24
ENDBRANCH  22  23
ENDBRANCH  21  22
ENDBRANCH  20  21
ENDBRANCH  19  20
ENDBRANCH  18  19
ENDBRANCH  17  18
ENDBRANCH  16  17
ENDBRANCH  15  16
ENDBRANCH  14  15
ENDBRANCH  13  14
ENDBRANCH  12  13
ENDBRANCH  11  12
ENDBRANCH  10  11
ENDBRANCH   9  10
ENDBRANCH   8   9
ENDBRANCH   7   8
ENDBRANCH   6   7
ENDBRANCH   5   6
ENDBRANCH   4   5
ENDBRANCH   3   4
ENDBRANCH   2   3
TORSDOF 37
ENDMDL
MODEL      171
REMARK 921   NORMALIZED FREE ENERGY PREDICTED BY IDOCK:   -2.47 KCAL/MOL
REMARK 922        TOTAL FREE ENERGY PREDICTED BY IDOCK:  -11.44 KCAL/MOL
REMARK 923 INTER-LIGAND FREE ENERGY PREDICTED BY IDOCK:   -8.43 KCAL/MOL
REMARK 924 INTRA-LIGAND FREE ENERGY PREDICTED BY IDOCK:   -3.01 KCAL/MOL
REMARK 927      BINDING AFFINITY PREDICTED BY RF-SCORE:    0.00 PKD
ROOT
HETATM    1  C   UNL     1     -10.777  19.528  66.857  1.00  0.00    -0.576 C  
HETATM    2  C   UNL     1      -9.638  18.667  66.339  1.00  0.00    -0.338 C  
ENDROOT
BRANCH   2   3
HETATM    3  C   UNL     1      -9.651  17.288  66.993  1.00  0.00    -0.262 C  
BRANCH   3   4
HETATM    4  C   UNL     1      -9.447  16.184  65.959  1.00  0.00    -0.374 C  
BRANCH   4   5
HETATM    5  C   UNL     1     -10.738  15.395  65.748  1.00  0.00    -0.360 C  
BRANCH   5   6
HETATM    6  C   UNL     1     -10.555  13.935  66.145  1.00  0.00    -0.291 C  
BRANCH   6   7
HETATM    7  C   UNL     1     -10.681  13.766  67.655  1.00  0.00    -0.256 C  
BRANCH   7   8
HETATM    8  C   UNL     1      -9.395  13.199  68.241  1.00  0.00    -0.201 C  
BRANCH   8   9
HETATM    9  C   UNL     1      -8.411  12.824  67.138  1.00  0.00    -0.181 C  
BRANCH   9  10
HETATM   10  C   UNL     1      -7.004  13.267  67.514  1.00  0.00    -0.152 C  
BRANCH  10  11
HETATM   11  C   UNL     1      -6.199  12.114  68.095  1.00  0.00    -0.055 C  
BRANCH  11  12
HETATM   12  C   UNL     1      -5.722  12.457  69.496  1.00  0.00    -0.096 C  
BRANCH  12  13
HETATM   13  O   UNL     1      -6.355  11.567  70.408  1.00  0.00    -0.253 OA 
BRANCH  13  14
HETATM   14  C   UNL     1      -6.876  10.432  69.724  1.00  0.00    -0.130 C  
BRANCH  14  15
HETATM   15  C   UNL     1      -7.172   9.335  70.730  1.00  0.00    -0.121 C  
BRANCH  15  16
HETATM   16  O   UNL     1      -6.417   9.594  71.908  1.00  0.00    -0.300 OA 
BRANCH  16  17
HETATM   17  C   UNL     1      -5.630   8.467  72.277  1.00  0.00    -0.050 C  
BRANCH  17  18
HETATM   18  C   UNL     1      -6.560   7.368  72.764  1.00  0.00    -0.060 C  
BRANCH  18  19
HETATM   19  O   UNL     1      -6.808   7.556  74.152  1.00  0.00    -0.086 OA 
BRANCH  19  20
HETATM   20  C   UNL     1      -8.171   7.909  74.398  1.00  0.00    -0.236 C  
BRANCH  20  21
HETATM   21  C   UNL     1      -9.039   7.276  73.318  1.00  0.00    -0.159 C  
BRANCH  21  22
HETATM   22  O   UNL     1     -10.410   7.570  73.602  1.00  0.00    -0.344 OA 
BRANCH  22  23
HETATM   23  C   UNL     1     -11.260   7.185  72.528  1.00  0.00    -0.290 C  
BRANCH  23  24
HETATM   24  C   UNL     1     -11.019   5.717  72.210  1.00  0.00    -0.258 C  
BRANCH  24  25
HETATM   25  O   UNL     1     -11.615   4.923  73.232  1.00  0.00    -0.336 OA 
BRANCH  25  26
HETATM   26  C   UNL     1     -10.719   3.921  73.696  1.00  0.00    -0.227 C  
BRANCH  26  27
HETATM   27  C   UNL     1     -11.354   2.556  73.474  1.00  0.00    -0.190 C  
BRANCH  27  28
HETATM   28  O   UNL     1     -10.377   1.669  72.940  1.00  0.00    -0.106 OA 
BRANCH  28  29
HETATM   29  C   UNL     1      -9.882   2.143  71.691  1.00  0.00    -0.147 C  
BRANCH  29  30
HETATM   30  C   UNL     1      -8.408   1.786  71.577  1.00  0.00    -0.050 C  
BRANCH  30  31
HETATM   31  O   UNL     1      -7.808   2.611  70.583  1.00  0.00    -0.042 OA 
BRANCH  31  32
HETATM   32  C   UNL     1      -8.501   2.512  69.342  1.00  0.00    -0.062 C  
BRANCH  32  33
HETATM   33  C   UNL     1      -8.345   3.822  68.583  1.00  0.00    -0.074 C  
BRANCH  33  34
HETATM   34  O   UNL     1      -9.624   4.252  68.124  1.00  0.00    -0.154 OA 
BRANCH  34  35
HETATM   35  C   UNL     1     -10.079   5.394  68.845  1.00  0.00    -0.195 C  
BRANCH  35  36
HETATM   36  C   UNL     1     -10.444   6.490  67.854  1.00  0.00    -0.222 C  
BRANCH  36  37
HETATM   37  O   UNL     1     -11.023   7.595  68.550  1.00  0.00    -0.020 OA 
BRANCH  37  38
HETATM   38  C   UNL     1     -10.164   8.742  68.492  1.00  0.00    -0.195 C  
BRANCH  38  39
HETATM   39  C   UNL     1     -10.909   9.862  67.775  1.00  0.00    -0.264 C  
HETATM   40  O   UNL     1     -11.960  10.356  68.605  1.00  0.00    -0.715 OA 
HETATM   41  H   UNL     1     -12.423  11.054  68.157  1.00  0.00     0.000 HD 
ENDBRANCH  38  39
ENDBRANCH  37  38
ENDBRANCH  36  37
ENDBRANCH  35  36
ENDBRANCH  34  35
ENDBRANCH  33  34
ENDBRANCH  32  33
ENDBRANCH  31  32
ENDBRANCH  30  31
ENDBRANCH  29  30
ENDBRANCH  28  29
ENDBRANCH  27  28
ENDBRANCH  26  27
ENDBRANCH  25  26
ENDBRANCH  24  25
ENDBRANCH  23  24
ENDBRANCH  22  23
ENDBRANCH  21  22
ENDBRANCH  20  21
ENDBRANCH  19  20
ENDBRANCH  18  19
ENDBRANCH  17  18
ENDBRANCH  16  17
ENDBRANCH  15  16
ENDBRANCH  14  15
ENDBRANCH  13  14
ENDBRANCH  12  13
ENDBRANCH  11  12
ENDBRANCH  10  11
ENDBRANCH   9  10
ENDBRANCH   8   9
ENDBRANCH   7   8
ENDBRANCH   6   7
ENDBRANCH   5   6
ENDBRANCH   4   5
ENDBRANCH   3   4
ENDBRANCH   2   3
TORSDOF 37
ENDMDL
MODEL      172
REMARK 921   NORMALIZED FREE ENERGY PREDICTED BY IDOCK:   -2.47 KCAL/MOL
REMARK 922        TOTAL FREE ENERGY PREDICTED BY IDOCK:  -11.43 KCAL/MOL
REMARK 923 INTER-LIGAND FREE ENERGY PREDICTED BY IDOCK:   -8.29 KCAL/MOL
REMARK 924 INTRA-LIGAND FREE ENERGY PREDICTED BY IDOCK:   -3.14 KCAL/MOL
REMARK 927      BINDING AFFINITY PREDICTED BY RF-SCORE:    0.00 PKD
ROOT
HETATM    1  C   UNL     1     -11.288   2.111  73.355  1.00  0.00    -0.288 C  
HETATM    2  C   UNL     1     -10.808   3.506  73.719  1.00  0.00    -0.317 C  
ENDROOT
BRANCH   2   3
HETATM    3  C   UNL     1     -10.497   4.323  72.468  1.00  0.00    -0.222 C  
BRANCH   3   4
HETATM    4  C   UNL     1     -11.354   5.585  72.404  1.00  0.00    -0.294 C  
BRANCH   4   5
HETATM    5  C   UNL     1     -10.495   6.832  72.597  1.00  0.00    -0.240 C  
BRANCH   5   6
HETATM    6  C   UNL     1     -10.263   7.110  74.078  1.00  0.00    -0.284 C  
BRANCH   6   7
HETATM    7  C   UNL     1      -8.773   7.239  74.377  1.00  0.00    -0.242 C  
BRANCH   7   8
HETATM    8  C   UNL     1      -7.953   7.048  73.108  1.00  0.00    -0.109 C  
BRANCH   8   9
HETATM    9  C   UNL     1      -7.236   5.702  73.119  1.00  0.00    -0.094 C  
BRANCH   9  10
HETATM   10  C   UNL     1      -6.364   5.559  71.878  1.00  0.00    -0.043 C  
BRANCH  10  11
HETATM   11  C   UNL     1      -6.928   6.359  70.714  1.00  0.00    -0.068 C  
BRANCH  11  12
HETATM   12  C   UNL     1      -7.927   5.522  69.932  1.00  0.00    -0.083 C  
BRANCH  12  13
HETATM   13  O   UNL     1      -7.634   5.664  68.548  1.00  0.00    -0.082 OA 
BRANCH  13  14
HETATM   14  C   UNL     1      -8.521   4.873  67.764  1.00  0.00    -0.104 C  
BRANCH  14  15
HETATM   15  C   UNL     1      -8.747   5.553  66.425  1.00  0.00    -0.123 C  
BRANCH  15  16
HETATM   16  O   UNL     1      -9.787   6.511  66.583  1.00  0.00    -0.167 OA 
BRANCH  16  17
HETATM   17  C   UNL     1      -9.327   7.827  66.292  1.00  0.00    -0.151 C  
BRANCH  17  18
HETATM   18  C   UNL     1      -8.228   7.732  65.246  1.00  0.00    -0.140 C  
BRANCH  18  19
HETATM   19  O   UNL     1      -8.675   8.359  64.050  1.00  0.00     0.027 OA 
BRANCH  19  20
HETATM   20  C   UNL     1      -7.798   9.414  63.652  1.00  0.00    -0.131 C  
BRANCH  20  21
HETATM   21  C   UNL     1      -8.546  10.736  63.764  1.00  0.00    -0.036 C  
BRANCH  21  22
HETATM   22  O   UNL     1      -9.948  10.483  63.626  1.00  0.00    -0.320 OA 
BRANCH  22  23
HETATM   23  C   UNL     1     -10.723  11.418  64.366  1.00  0.00    -0.342 C  
BRANCH  23  24
HETATM   24  C   UNL     1     -11.452  12.334  63.395  1.00  0.00    -0.430 C  
BRANCH  24  25
HETATM   25  O   UNL     1     -12.579  12.900  64.058  1.00  0.00    -0.625 OA 
BRANCH  25  26
HETATM   26  C   UNL     1     -12.251  14.143  64.665  1.00  0.00    -0.445 C  
BRANCH  26  27
HETATM   27  C   UNL     1     -12.655  14.094  66.132  1.00  0.00    -0.321 C  
BRANCH  27  28
HETATM   28  O   UNL     1     -11.485  14.179  66.940  1.00  0.00    -0.325 OA 
BRANCH  28  29
HETATM   29  C   UNL     1     -11.003  15.518  67.004  1.00  0.00    -0.283 C  
BRANCH  29  30
HETATM   30  C   UNL     1      -9.484  15.492  67.061  1.00  0.00    -0.225 C  
BRANCH  30  31
HETATM   31  O   UNL     1      -9.074  15.348  68.417  1.00  0.00    -0.182 OA 
BRANCH  31  32
HETATM   32  C   UNL     1      -8.036  14.379  68.544  1.00  0.00    -0.144 C  
BRANCH  32  33
HETATM   33  C   UNL     1      -7.872  13.653  67.216  1.00  0.00    -0.093 C  
BRANCH  33  34
HETATM   34  O   UNL     1      -7.508  12.298  67.465  1.00  0.00    -0.127 OA 
BRANCH  34  35
HETATM   35  C   UNL     1      -8.480  11.638  68.271  1.00  0.00    -0.160 C  
BRANCH  35  36
HETATM   36  C   UNL     1      -7.782  10.588  69.125  1.00  0.00    -0.131 C  
BRANCH  36  37
HETATM   37  O   UNL     1      -8.690  10.083  70.105  1.00  0.00    -0.159 OA 
BRANCH  37  38
HETATM   38  C   UNL     1      -9.379   8.925  69.616  1.00  0.00    -0.163 C  
BRANCH  38  39
HETATM   39  C   UNL     1     -10.855   9.060  69.974  1.00  0.00    -0.231 C  
HETATM   40  O   UNL     1     -11.552   7.869  69.611  1.00  0.00    -0.393 OA 
HETATM   41  H   UNL     1     -12.472   7.953  69.834  1.00  0.00     0.000 HD 
ENDBRANCH  38  39
ENDBRANCH  37  38
ENDBRANCH  36  37
ENDBRANCH  35  36
ENDBRANCH  34  35
ENDBRANCH  33  34
ENDBRANCH  32  33
ENDBRANCH  31  32
ENDBRANCH  30  31
ENDBRANCH  29  30
ENDBRANCH  28  29
ENDBRANCH  27  28
ENDBRANCH  26  27
ENDBRANCH  25  26
ENDBRANCH  24  25
ENDBRANCH  23  24
ENDBRANCH  22  23
ENDBRANCH  21  22
ENDBRANCH  20  21
ENDBRANCH  19  20
ENDBRANCH  18  19
ENDBRANCH  17  18
ENDBRANCH  16  17
ENDBRANCH  15  16
ENDBRANCH  14  15
ENDBRANCH  13  14
ENDBRANCH  12  13
ENDBRANCH  11  12
ENDBRANCH  10  11
ENDBRANCH   9  10
ENDBRANCH   8   9
ENDBRANCH   7   8
ENDBRANCH   6   7
ENDBRANCH   5   6
ENDBRANCH   4   5
ENDBRANCH   3   4
ENDBRANCH   2   3
TORSDOF 37
ENDMDL
MODEL      173
REMARK 921   NORMALIZED FREE ENERGY PREDICTED BY IDOCK:   -2.47 KCAL/MOL
REMARK 922        TOTAL FREE ENERGY PREDICTED BY IDOCK:  -11.42 KCAL/MOL
REMARK 923 INTER-LIGAND FREE ENERGY PREDICTED BY IDOCK:   -9.22 KCAL/MOL
REMARK 924 INTRA-LIGAND FREE ENERGY PREDICTED BY IDOCK:   -2.20 KCAL/MOL
REMARK 927      BINDING AFFINITY PREDICTED BY RF-SCORE:    0.00 PKD
ROOT
HETATM    1  C   UNL     1      -9.370   3.467  70.595  1.00  0.00    -0.232 C  
HETATM    2  C   UNL     1      -8.631   3.060  71.859  1.00  0.00    -0.098 C  
ENDROOT
BRANCH   2   3
HETATM    3  C   UNL     1      -9.530   2.238  72.778  1.00  0.00    -0.132 C  
BRANCH   3   4
HETATM    4  C   UNL     1      -9.925   3.033  74.021  1.00  0.00    -0.161 C  
BRANCH   4   5
HETATM    5  C   UNL     1     -11.018   4.045  73.692  1.00  0.00    -0.345 C  
BRANCH   5   6
HETATM    6  C   UNL     1     -10.683   5.416  74.267  1.00  0.00    -0.106 C  
BRANCH   6   7
HETATM    7  C   UNL     1      -9.941   6.266  73.241  1.00  0.00    -0.189 C  
BRANCH   7   8
HETATM    8  C   UNL     1     -10.880   7.283  72.605  1.00  0.00    -0.331 C  
BRANCH   8   9
HETATM    9  C   UNL     1     -10.241   7.923  71.378  1.00  0.00    -0.226 C  
BRANCH   9  10
HETATM   10  C   UNL     1     -10.398   9.437  71.432  1.00  0.00    -0.326 C  
BRANCH  10  11
HETATM   11  C   UNL     1     -11.294   9.938  70.309  1.00  0.00    -0.357 C  
BRANCH  11  12
HETATM   12  C   UNL     1     -12.618  10.430  70.868  1.00  0.00    -0.383 C  
BRANCH  12  13
HETATM   13  O   UNL     1     -12.357  11.559  71.694  1.00  0.00    -0.133 OA 
BRANCH  13  14
HETATM   14  C   UNL     1     -13.514  12.381  71.802  1.00  0.00    -0.166 C  
BRANCH  14  15
HETATM   15  C   UNL     1     -13.091  13.839  71.835  1.00  0.00    -0.388 C  
BRANCH  15  16
HETATM   16  O   UNL     1     -12.613  14.192  70.542  1.00  0.00    -0.333 OA 
BRANCH  16  17
HETATM   17  C   UNL     1     -12.665  15.600  70.338  1.00  0.00    -0.282 C  
BRANCH  17  18
HETATM   18  C   UNL     1     -11.315  16.191  70.712  1.00  0.00    -0.368 C  
BRANCH  18  19
HETATM   19  O   UNL     1     -10.334  15.709  69.802  1.00  0.00    -0.270 OA 
BRANCH  19  20
HETATM   20  C   UNL     1     -10.592  16.153  68.469  1.00  0.00    -0.284 C  
BRANCH  20  21
HETATM   21  C   UNL     1     -10.136  17.601  68.341  1.00  0.00    -0.368 C  
BRANCH  21  22
HETATM   22  O   UNL     1     -10.690  18.153  67.143  1.00  0.00    -0.375 OA 
BRANCH  22  23
HETATM   23  C   UNL     1     -10.231  19.480  66.919  1.00  0.00    -0.426 C  
BRANCH  23  24
HETATM   24  C   UNL     1      -8.738  19.444  66.630  1.00  0.00    -0.335 C  
BRANCH  24  25
HETATM   25  O   UNL     1      -8.071  20.295  67.558  1.00  0.00    -0.314 OA 
BRANCH  25  26
HETATM   26  C   UNL     1      -6.979  19.627  68.178  1.00  0.00    -0.284 C  
BRANCH  26  27
HETATM   27  C   UNL     1      -6.553  18.461  67.298  1.00  0.00    -0.194 C  
BRANCH  27  28
HETATM   28  O   UNL     1      -6.543  17.269  68.076  1.00  0.00    -0.158 OA 
BRANCH  28  29
HETATM   29  C   UNL     1      -6.496  16.114  67.245  1.00  0.00    -0.181 C  
BRANCH  29  30
HETATM   30  C   UNL     1      -6.610  14.874  68.117  1.00  0.00    -0.130 C  
BRANCH  30  31
HETATM   31  O   UNL     1      -6.602  13.719  67.284  1.00  0.00    -0.259 OA 
BRANCH  31  32
HETATM   32  C   UNL     1      -6.918  12.544  68.025  1.00  0.00    -0.095 C  
BRANCH  32  33
HETATM   33  C   UNL     1      -7.249  11.420  67.054  1.00  0.00    -0.141 C  
BRANCH  33  34
HETATM   34  O   UNL     1      -8.657  11.382  66.842  1.00  0.00    -0.144 OA 
BRANCH  34  35
HETATM   35  C   UNL     1      -9.017  10.362  65.914  1.00  0.00    -0.162 C  
BRANCH  35  36
HETATM   36  C   UNL     1      -7.797   9.496  65.635  1.00  0.00    -0.101 C  
BRANCH  36  37
HETATM   37  O   UNL     1      -7.764   9.141  64.252  1.00  0.00    -0.111 OA 
BRANCH  37  38
HETATM   38  C   UNL     1      -7.674  10.309  63.427  1.00  0.00    -0.126 C  
BRANCH  38  39
HETATM   39  C   UNL     1      -6.632  10.051  62.344  1.00  0.00    -0.117 C  
HETATM   40  O   UNL     1      -6.128   8.721  62.462  1.00  0.00    -0.094 OA 
HETATM   41  H   UNL     1      -5.480   8.561  61.787  1.00  0.00     0.000 HD 
ENDBRANCH  38  39
ENDBRANCH  37  38
ENDBRANCH  36  37
ENDBRANCH  35  36
ENDBRANCH  34  35
ENDBRANCH  33  34
ENDBRANCH  32  33
ENDBRANCH  31  32
ENDBRANCH  30  31
ENDBRANCH  29  30
ENDBRANCH  28  29
ENDBRANCH  27  28
ENDBRANCH  26  27
ENDBRANCH  25  26
ENDBRANCH  24  25
ENDBRANCH  23  24
ENDBRANCH  22  23
ENDBRANCH  21  22
ENDBRANCH  20  21
ENDBRANCH  19  20
ENDBRANCH  18  19
ENDBRANCH  17  18
ENDBRANCH  16  17
ENDBRANCH  15  16
ENDBRANCH  14  15
ENDBRANCH  13  14
ENDBRANCH  12  13
ENDBRANCH  11  12
ENDBRANCH  10  11
ENDBRANCH   9  10
ENDBRANCH   8   9
ENDBRANCH   7   8
ENDBRANCH   6   7
ENDBRANCH   5   6
ENDBRANCH   4   5
ENDBRANCH   3   4
ENDBRANCH   2   3
TORSDOF 37
ENDMDL
MODEL      174
REMARK 921   NORMALIZED FREE ENERGY PREDICTED BY IDOCK:   -2.46 KCAL/MOL
REMARK 922        TOTAL FREE ENERGY PREDICTED BY IDOCK:  -11.41 KCAL/MOL
REMARK 923 INTER-LIGAND FREE ENERGY PREDICTED BY IDOCK:   -9.03 KCAL/MOL
REMARK 924 INTRA-LIGAND FREE ENERGY PREDICTED BY IDOCK:   -2.38 KCAL/MOL
REMARK 927      BINDING AFFINITY PREDICTED BY RF-SCORE:    0.00 PKD
ROOT
HETATM    1  C   UNL     1     -12.363  13.849  68.509  1.00  0.00    -0.018 C  
HETATM    2  C   UNL     1     -11.760  13.478  67.165  1.00  0.00    -0.419 C  
ENDROOT
BRANCH   2   3
HETATM    3  C   UNL     1     -12.467  14.208  66.026  1.00  0.00    -0.454 C  
BRANCH   3   4
HETATM    4  C   UNL     1     -11.945  13.750  64.667  1.00  0.00    -0.445 C  
BRANCH   4   5
HETATM    5  C   UNL     1     -12.679  12.495  64.200  1.00  0.00    -0.417 C  
BRANCH   5   6
HETATM    6  C   UNL     1     -11.739  11.296  64.164  1.00  0.00     0.186 C  
BRANCH   6   7
HETATM    7  C   UNL     1     -10.284  11.752  64.128  1.00  0.00    -0.363 C  
BRANCH   7   8
HETATM    8  C   UNL     1      -9.453  10.972  65.139  1.00  0.00    -0.265 C  
BRANCH   8   9
HETATM    9  C   UNL     1      -9.229   9.538  64.671  1.00  0.00    -0.247 C  
BRANCH   9  10
HETATM   10  C   UNL     1      -7.984   9.457  63.798  1.00  0.00    -0.142 C  
BRANCH  10  11
HETATM   11  C   UNL     1      -6.904   8.610  64.456  1.00  0.00    -0.069 C  
BRANCH  11  12
HETATM   12  C   UNL     1      -5.755   9.487  64.923  1.00  0.00    -0.065 C  
BRANCH  12  13
HETATM   13  O   UNL     1      -5.587   9.288  66.321  1.00  0.00    -0.050 OA 
BRANCH  13  14
HETATM   14  C   UNL     1      -5.874  10.485  67.037  1.00  0.00    -0.052 C  
BRANCH  14  15
HETATM   15  C   UNL     1      -6.422  10.128  68.407  1.00  0.00    -0.053 C  
BRANCH  15  16
HETATM   16  O   UNL     1      -6.864   8.776  68.371  1.00  0.00    -0.063 OA 
BRANCH  16  17
HETATM   17  C   UNL     1      -8.275   8.688  68.539  1.00  0.00    -0.122 C  
BRANCH  17  18
HETATM   18  C   UNL     1      -8.771   9.991  69.145  1.00  0.00    -0.167 C  
BRANCH  18  19
HETATM   19  O   UNL     1      -9.716   9.694  70.165  1.00  0.00    -0.226 OA 
BRANCH  19  20
HETATM   20  C   UNL     1     -10.736   8.811  69.694  1.00  0.00    -0.208 C  
BRANCH  20  21
HETATM   21  C   UNL     1     -11.470   8.231  70.897  1.00  0.00    -0.274 C  
BRANCH  21  22
HETATM   22  O   UNL     1     -12.690   8.954  71.081  1.00  0.00    -0.267 OA 
BRANCH  22  23
HETATM   23  C   UNL     1     -12.555   9.960  72.078  1.00  0.00    -0.323 C  
BRANCH  23  24
HETATM   24  C   UNL     1     -12.972  11.298  71.490  1.00  0.00    -0.415 C  
BRANCH  24  25
HETATM   25  O   UNL     1     -12.798  12.308  72.480  1.00  0.00    -0.037 OA 
BRANCH  25  26
HETATM   26  C   UNL     1     -13.853  13.261  72.437  1.00  0.00    -0.529 C  
BRANCH  26  27
HETATM   27  C   UNL     1     -13.349  14.519  71.744  1.00  0.00    -0.363 C  
BRANCH  27  28
HETATM   28  O   UNL     1     -12.544  15.262  72.655  1.00  0.00    -0.328 OA 
BRANCH  28  29
HETATM   29  C   UNL     1     -12.055  16.455  72.051  1.00  0.00    -0.294 C  
BRANCH  29  30
HETATM   30  C   UNL     1     -11.721  16.170  70.595  1.00  0.00    -0.273 C  
BRANCH  30  31
HETATM   31  O   UNL     1     -10.579  16.935  70.223  1.00  0.00    -0.024 OA 
BRANCH  31  32
HETATM   32  C   UNL     1      -9.508  16.094  69.803  1.00  0.00     0.126 C  
BRANCH  32  33
HETATM   33  C   UNL     1      -9.448  16.093  68.282  1.00  0.00    -0.208 C  
BRANCH  33  34
HETATM   34  O   UNL     1      -8.390  16.947  67.854  1.00  0.00    -0.192 OA 
BRANCH  34  35
HETATM   35  C   UNL     1      -7.613  17.406  68.957  1.00  0.00    -0.169 C  
BRANCH  35  36
HETATM   36  C   UNL     1      -6.899  18.690  68.557  1.00  0.00    -0.264 C  
BRANCH  36  37
HETATM   37  O   UNL     1      -7.832  19.770  68.529  1.00  0.00    -0.328 OA 
BRANCH  37  38
HETATM   38  C   UNL     1      -8.221  20.076  67.184  1.00  0.00    -0.322 C  
BRANCH  38  39
HETATM   39  C   UNL     1      -9.723  20.336  67.167  1.00  0.00    -0.452 C  
HETATM   40  O   UNL     1     -10.286  20.014  68.438  1.00  0.00    -0.433 OA 
HETATM   41  H   UNL     1     -11.222  20.176  68.427  1.00  0.00     0.000 HD 
ENDBRANCH  38  39
ENDBRANCH  37  38
ENDBRANCH  36  37
ENDBRANCH  35  36
ENDBRANCH  34  35
ENDBRANCH  33  34
ENDBRANCH  32  33
ENDBRANCH  31  32
ENDBRANCH  30  31
ENDBRANCH  29  30
ENDBRANCH  28  29
ENDBRANCH  27  28
ENDBRANCH  26  27
ENDBRANCH  25  26
ENDBRANCH  24  25
ENDBRANCH  23  24
ENDBRANCH  22  23
ENDBRANCH  21  22
ENDBRANCH  20  21
ENDBRANCH  19  20
ENDBRANCH  18  19
ENDBRANCH  17  18
ENDBRANCH  16  17
ENDBRANCH  15  16
ENDBRANCH  14  15
ENDBRANCH  13  14
ENDBRANCH  12  13
ENDBRANCH  11  12
ENDBRANCH  10  11
ENDBRANCH   9  10
ENDBRANCH   8   9
ENDBRANCH   7   8
ENDBRANCH   6   7
ENDBRANCH   5   6
ENDBRANCH   4   5
ENDBRANCH   3   4
ENDBRANCH   2   3
TORSDOF 37
ENDMDL
MODEL      175
REMARK 921   NORMALIZED FREE ENERGY PREDICTED BY IDOCK:   -2.44 KCAL/MOL
REMARK 922        TOTAL FREE ENERGY PREDICTED BY IDOCK:  -11.35 KCAL/MOL
REMARK 923 INTER-LIGAND FREE ENERGY PREDICTED BY IDOCK:   -8.72 KCAL/MOL
REMARK 924 INTRA-LIGAND FREE ENERGY PREDICTED BY IDOCK:   -2.63 KCAL/MOL
REMARK 927      BINDING AFFINITY PREDICTED BY RF-SCORE:    0.00 PKD
ROOT
HETATM    1  C   UNL     1      -6.531  19.191  69.352  1.00  0.00    -0.337 C  
HETATM    2  C   UNL     1      -5.434  18.220  68.951  1.00  0.00    -0.197 C  
ENDROOT
BRANCH   2   3
HETATM    3  C   UNL     1      -5.928  16.778  69.012  1.00  0.00    -0.163 C  
BRANCH   3   4
HETATM    4  C   UNL     1      -5.819  16.097  67.650  1.00  0.00    -0.174 C  
BRANCH   4   5
HETATM    5  C   UNL     1      -7.178  15.571  67.197  1.00  0.00    -0.208 C  
BRANCH   5   6
HETATM    6  C   UNL     1      -7.953  16.643  66.440  1.00  0.00    -0.360 C  
BRANCH   6   7
HETATM    7  C   UNL     1      -9.301  16.904  67.104  1.00  0.00    -0.241 C  
BRANCH   7   8
HETATM    8  C   UNL     1     -10.435  16.745  66.099  1.00  0.00    -0.282 C  
BRANCH   8   9
HETATM    9  C   UNL     1     -10.357  15.393  65.398  1.00  0.00    -0.422 C  
BRANCH   9  10
HETATM   10  C   UNL     1     -10.658  14.271  66.384  1.00  0.00    -0.286 C  
BRANCH  10  11
HETATM   11  C   UNL     1     -12.150  14.170  66.663  1.00  0.00    -0.480 C  
BRANCH  11  12
HETATM   12  C   UNL     1     -12.904  13.826  65.390  1.00  0.00    -0.410 C  
BRANCH  12  13
HETATM   13  O   UNL     1     -12.793  12.424  65.176  1.00  0.00    -0.609 OA 
BRANCH  13  14
HETATM   14  C   UNL     1     -12.665  12.136  63.787  1.00  0.00    -0.411 C  
BRANCH  14  15
HETATM   15  C   UNL     1     -11.194  12.123  63.413  1.00  0.00    -0.414 C  
BRANCH  15  16
HETATM   16  O   UNL     1     -10.531  11.178  64.246  1.00  0.00    -0.322 OA 
BRANCH  16  17
HETATM   17  C   UNL     1      -9.770  10.254  63.476  1.00  0.00    -0.193 C  
BRANCH  17  18
HETATM   18  C   UNL     1      -8.422  10.882  63.162  1.00  0.00    -0.035 C  
BRANCH  18  19
HETATM   19  O   UNL     1      -7.393  10.025  63.640  1.00  0.00    -0.131 OA 
BRANCH  19  20
HETATM   20  C   UNL     1      -7.696   9.517  64.941  1.00  0.00    -0.115 C  
BRANCH  20  21
HETATM   21  C   UNL     1      -6.664  10.054  65.925  1.00  0.00    -0.103 C  
BRANCH  21  22
HETATM   22  O   UNL     1      -7.222  11.184  66.603  1.00  0.00    -0.137 OA 
BRANCH  22  23
HETATM   23  C   UNL     1      -8.539  10.915  67.069  1.00  0.00    -0.136 C  
BRANCH  23  24
HETATM   24  C   UNL     1      -8.477  10.562  68.547  1.00  0.00    -0.131 C  
BRANCH  24  25
HETATM   25  O   UNL     1      -7.369  11.239  69.133  1.00  0.00    -0.119 OA 
BRANCH  25  26
HETATM   26  C   UNL     1      -6.656  10.389  70.023  1.00  0.00    -0.137 C  
BRANCH  26  27
HETATM   27  C   UNL     1      -5.568   9.666  69.243  1.00  0.00    -0.035 C  
BRANCH  27  28
HETATM   28  O   UNL     1      -5.629   8.275  69.537  1.00  0.00    -0.029 OA 
BRANCH  28  29
HETATM   29  C   UNL     1      -6.651   7.635  68.779  1.00  0.00    -0.049 C  
BRANCH  29  30
HETATM   30  C   UNL     1      -7.676   7.042  69.733  1.00  0.00    -0.109 C  
BRANCH  30  31
HETATM   31  O   UNL     1      -7.137   7.046  71.051  1.00  0.00    -0.067 OA 
BRANCH  31  32
HETATM   32  C   UNL     1      -6.890   5.720  71.513  1.00  0.00    -0.067 C  
BRANCH  32  33
HETATM   33  C   UNL     1      -6.121   5.788  72.824  1.00  0.00    -0.047 C  
BRANCH  33  34
HETATM   34  O   UNL     1      -7.000   6.216  73.861  1.00  0.00    -0.082 OA 
BRANCH  34  35
HETATM   35  C   UNL     1      -6.810   7.594  74.170  1.00  0.00    -0.100 C  
BRANCH  35  36
HETATM   36  C   UNL     1      -8.168   8.236  74.418  1.00  0.00    -0.143 C  
BRANCH  36  37
HETATM   37  O   UNL     1      -8.976   8.121  73.246  1.00  0.00    -0.251 OA 
BRANCH  37  38
HETATM   38  C   UNL     1     -10.119   7.292  73.492  1.00  0.00    -0.340 C  
BRANCH  38  39
HETATM   39  C   UNL     1     -11.188   7.630  72.458  1.00  0.00    -0.346 C  
HETATM   40  O   UNL     1     -12.220   6.645  72.487  1.00  0.00    -0.504 OA 
HETATM   41  H   UNL     1     -12.885   6.856  71.843  1.00  0.00     0.000 HD 
ENDBRANCH  38  39
ENDBRANCH  37  38
ENDBRANCH  36  37
ENDBRANCH  35  36
ENDBRANCH  34  35
ENDBRANCH  33  34
ENDBRANCH  32  33
ENDBRANCH  31  32
ENDBRANCH  30  31
ENDBRANCH  29  30
ENDBRANCH  28  29
ENDBRANCH  27  28
ENDBRANCH  26  27
ENDBRANCH  25  26
ENDBRANCH  24  25
ENDBRANCH  23  24
ENDBRANCH  22  23
ENDBRANCH  21  22
ENDBRANCH  20  21
ENDBRANCH  19  20
ENDBRANCH  18  19
ENDBRANCH  17  18
ENDBRANCH  16  17
ENDBRANCH  15  16
ENDBRANCH  14  15
ENDBRANCH  13  14
ENDBRANCH  12  13
ENDBRANCH  11  12
ENDBRANCH  10  11
ENDBRANCH   9  10
ENDBRANCH   8   9
ENDBRANCH   7   8
ENDBRANCH   6   7
ENDBRANCH   5   6
ENDBRANCH   4   5
ENDBRANCH   3   4
ENDBRANCH   2   3
TORSDOF 37
ENDMDL
MODEL      176
REMARK 921   NORMALIZED FREE ENERGY PREDICTED BY IDOCK:   -2.43 KCAL/MOL
REMARK 922        TOTAL FREE ENERGY PREDICTED BY IDOCK:  -11.31 KCAL/MOL
REMARK 923 INTER-LIGAND FREE ENERGY PREDICTED BY IDOCK:   -8.71 KCAL/MOL
REMARK 924 INTRA-LIGAND FREE ENERGY PREDICTED BY IDOCK:   -2.60 KCAL/MOL
REMARK 927      BINDING AFFINITY PREDICTED BY RF-SCORE:    0.00 PKD
ROOT
HETATM    1  C   UNL     1     -10.258  17.479  66.933  1.00  0.00    -0.329 C  
HETATM    2  C   UNL     1     -10.464  17.775  68.408  1.00  0.00    -0.351 C  
ENDROOT
BRANCH   2   3
HETATM    3  C   UNL     1     -10.461  16.489  69.231  1.00  0.00    -0.326 C  
BRANCH   3   4
HETATM    4  C   UNL     1     -11.778  15.731  69.077  1.00  0.00    -0.405 C  
BRANCH   4   5
HETATM    5  C   UNL     1     -12.430  15.498  70.437  1.00  0.00    -0.443 C  
BRANCH   5   6
HETATM    6  C   UNL     1     -12.311  14.037  70.855  1.00  0.00    -0.443 C  
BRANCH   6   7
HETATM    7  C   UNL     1     -12.052  13.148  69.644  1.00  0.00    -0.317 C  
BRANCH   7   8
HETATM    8  C   UNL     1     -12.136  11.677  70.030  1.00  0.00    -0.395 C  
BRANCH   8   9
HETATM    9  C   UNL     1     -10.860  10.937  69.641  1.00  0.00    -0.271 C  
BRANCH   9  10
HETATM   10  C   UNL     1     -11.118  10.038  68.439  1.00  0.00    -0.236 C  
BRANCH  10  11
HETATM   11  C   UNL     1     -11.162  10.842  67.149  1.00  0.00    -0.258 C  
BRANCH  11  12
HETATM   12  C   UNL     1      -9.875  11.629  66.972  1.00  0.00    -0.193 C  
BRANCH  12  13
HETATM   13  O   UNL     1      -9.375  11.371  65.666  1.00  0.00    -0.223 OA 
BRANCH  13  14
HETATM   14  C   UNL     1      -9.848  10.118  65.185  1.00  0.00    -0.325 C  
BRANCH  14  15
HETATM   15  C   UNL     1      -8.743   9.084  65.313  1.00  0.00    -0.193 C  
BRANCH  15  16
HETATM   16  O   UNL     1      -7.492   9.758  65.243  1.00  0.00    -0.108 OA 
BRANCH  16  17
HETATM   17  C   UNL     1      -6.543   9.181  66.134  1.00  0.00    -0.069 C  
BRANCH  17  18
HETATM   18  C   UNL     1      -6.859   9.651  67.545  1.00  0.00    -0.082 C  
BRANCH  18  19
HETATM   19  O   UNL     1      -6.695   8.559  68.441  1.00  0.00    -0.062 OA 
BRANCH  19  20
HETATM   20  C   UNL     1      -7.943   8.150  69.005  1.00  0.00    -0.113 C  
BRANCH  20  21
HETATM   21  C   UNL     1      -7.749   7.922  70.499  1.00  0.00    -0.086 C  
BRANCH  21  22
HETATM   22  O   UNL     1      -8.278   9.047  71.207  1.00  0.00    -0.224 OA 
BRANCH  22  23
HETATM   23  C   UNL     1      -9.051   8.640  72.330  1.00  0.00    -0.197 C  
BRANCH  23  24
HETATM   24  C   UNL     1     -10.512   8.544  71.915  1.00  0.00    -0.317 C  
BRANCH  24  25
HETATM   25  O   UNL     1     -11.003   7.253  72.264  1.00  0.00    -0.229 OA 
BRANCH  25  26
HETATM   26  C   UNL     1     -10.763   6.963  73.636  1.00  0.00    -0.274 C  
BRANCH  26  27
HETATM   27  C   UNL     1     -10.555   5.463  73.790  1.00  0.00    -0.286 C  
BRANCH  27  28
HETATM   28  O   UNL     1      -9.260   5.226  74.334  1.00  0.00    -0.116 OA 
BRANCH  28  29
HETATM   29  C   UNL     1      -8.274   5.177  73.308  1.00  0.00    -0.111 C  
BRANCH  29  30
HETATM   30  C   UNL     1      -7.871   3.729  73.080  1.00  0.00    -0.078 C  
BRANCH  30  31
HETATM   31  O   UNL     1      -8.243   3.347  71.760  1.00  0.00    -0.064 OA 
BRANCH  31  32
HETATM   32  C   UNL     1      -8.340   4.481  70.901  1.00  0.00    -0.088 C  
BRANCH  32  33
HETATM   33  C   UNL     1      -9.606   4.360  70.064  1.00  0.00    -0.203 C  
BRANCH  33  34
HETATM   34  O   UNL     1      -9.277   4.542  68.689  1.00  0.00    -0.114 OA 
BRANCH  34  35
HETATM   35  C   UNL     1      -8.393   3.525  68.226  1.00  0.00    -0.082 C  
BRANCH  35  36
HETATM   36  C   UNL     1      -8.639   3.295  66.741  1.00  0.00    -0.116 C  
BRANCH  36  37
HETATM   37  O   UNL     1      -9.812   4.000  66.333  1.00  0.00    -0.209 OA 
BRANCH  37  38
HETATM   38  C   UNL     1      -9.678   4.483  64.991  1.00  0.00    -0.124 C  
BRANCH  38  39
HETATM   39  C   UNL     1     -10.752   3.823  64.134  1.00  0.00    -0.225 C  
HETATM   40  O   UNL     1     -10.773   4.418  62.837  1.00  0.00    -0.423 OA 
HETATM   41  H   UNL     1     -11.442   4.006  62.304  1.00  0.00     0.000 HD 
ENDBRANCH  38  39
ENDBRANCH  37  38
ENDBRANCH  36  37
ENDBRANCH  35  36
ENDBRANCH  34  35
ENDBRANCH  33  34
ENDBRANCH  32  33
ENDBRANCH  31  32
ENDBRANCH  30  31
ENDBRANCH  29  30
ENDBRANCH  28  29
ENDBRANCH  27  28
ENDBRANCH  26  27
ENDBRANCH  25  26
ENDBRANCH  24  25
ENDBRANCH  23  24
ENDBRANCH  22  23
ENDBRANCH  21  22
ENDBRANCH  20  21
ENDBRANCH  19  20
ENDBRANCH  18  19
ENDBRANCH  17  18
ENDBRANCH  16  17
ENDBRANCH  15  16
ENDBRANCH  14  15
ENDBRANCH  13  14
ENDBRANCH  12  13
ENDBRANCH  11  12
ENDBRANCH  10  11
ENDBRANCH   9  10
ENDBRANCH   8   9
ENDBRANCH   7   8
ENDBRANCH   6   7
ENDBRANCH   5   6
ENDBRANCH   4   5
ENDBRANCH   3   4
ENDBRANCH   2   3
TORSDOF 37
ENDMDL
MODEL      177
REMARK 921   NORMALIZED FREE ENERGY PREDICTED BY IDOCK:   -2.43 KCAL/MOL
REMARK 922        TOTAL FREE ENERGY PREDICTED BY IDOCK:  -11.31 KCAL/MOL
REMARK 923 INTER-LIGAND FREE ENERGY PREDICTED BY IDOCK:   -8.53 KCAL/MOL
REMARK 924 INTRA-LIGAND FREE ENERGY PREDICTED BY IDOCK:   -2.78 KCAL/MOL
REMARK 927      BINDING AFFINITY PREDICTED BY RF-SCORE:    0.00 PKD
ROOT
HETATM    1  C   UNL     1      -6.522  19.182  69.361  1.00  0.00    -0.337 C  
HETATM    2  C   UNL     1      -5.425  18.198  68.991  1.00  0.00    -0.194 C  
ENDROOT
BRANCH   2   3
HETATM    3  C   UNL     1      -5.927  16.760  69.075  1.00  0.00    -0.163 C  
BRANCH   3   4
HETATM    4  C   UNL     1      -5.796  16.049  67.729  1.00  0.00    -0.162 C  
BRANCH   4   5
HETATM    5  C   UNL     1      -7.151  15.525  67.260  1.00  0.00    -0.225 C  
BRANCH   5   6
HETATM    6  C   UNL     1      -7.906  16.591  66.475  1.00  0.00    -0.338 C  
BRANCH   6   7
HETATM    7  C   UNL     1      -9.268  16.862  67.105  1.00  0.00    -0.238 C  
BRANCH   7   8
HETATM    8  C   UNL     1     -10.376  16.720  66.070  1.00  0.00    -0.346 C  
BRANCH   8   9
HETATM    9  C   UNL     1     -10.289  15.373  65.359  1.00  0.00    -0.422 C  
BRANCH   9  10
HETATM   10  C   UNL     1     -10.646  14.247  66.321  1.00  0.00    -0.291 C  
BRANCH  10  11
HETATM   11  C   UNL     1     -12.149  14.164  66.540  1.00  0.00    -0.481 C  
BRANCH  11  12
HETATM   12  C   UNL     1     -12.857  13.851  65.233  1.00  0.00    -0.398 C  
BRANCH  12  13
HETATM   13  O   UNL     1     -12.777  12.449  65.011  1.00  0.00    -0.631 OA 
BRANCH  13  14
HETATM   14  C   UNL     1     -12.579  12.168  63.630  1.00  0.00    -0.504 C  
BRANCH  14  15
HETATM   15  C   UNL     1     -11.090  12.074  63.348  1.00  0.00    -0.398 C  
BRANCH  15  16
HETATM   16  O   UNL     1     -10.537  11.080  64.203  1.00  0.00    -0.371 OA 
BRANCH  16  17
HETATM   17  C   UNL     1      -9.798  10.114  63.464  1.00  0.00     0.063 C  
BRANCH  17  18
HETATM   18  C   UNL     1      -8.377  10.625  63.289  1.00  0.00    -0.087 C  
BRANCH  18  19
HETATM   19  O   UNL     1      -7.475   9.680  63.853  1.00  0.00    -0.113 OA 
BRANCH  19  20
HETATM   20  C   UNL     1      -7.936   9.208  65.121  1.00  0.00    -0.117 C  
BRANCH  20  21
HETATM   21  C   UNL     1      -6.916   9.597  66.184  1.00  0.00    -0.093 C  
BRANCH  21  22
HETATM   22  O   UNL     1      -7.307  10.848  66.759  1.00  0.00    -0.119 OA 
BRANCH  22  23
HETATM   23  C   UNL     1      -8.704  10.887  67.022  1.00  0.00    -0.141 C  
BRANCH  23  24
HETATM   24  C   UNL     1      -8.940  10.550  68.486  1.00  0.00    -0.147 C  
BRANCH  24  25
HETATM   25  O   UNL     1      -7.763  10.866  69.225  1.00  0.00    -0.135 OA 
BRANCH  25  26
HETATM   26  C   UNL     1      -7.524   9.911  70.250  1.00  0.00    -0.162 C  
BRANCH  26  27
HETATM   27  C   UNL     1      -6.724   8.755  69.667  1.00  0.00    -0.039 C  
BRANCH  27  28
HETATM   28  O   UNL     1      -7.369   7.529  69.997  1.00  0.00    -0.077 OA 
BRANCH  28  29
HETATM   29  C   UNL     1      -7.339   6.622  68.900  1.00  0.00    -0.094 C  
BRANCH  29  30
HETATM   30  C   UNL     1      -8.756   6.423  68.386  1.00  0.00    -0.113 C  
BRANCH  30  31
HETATM   31  O   UNL     1      -9.669   7.017  69.304  1.00  0.00    -0.157 OA 
BRANCH  31  32
HETATM   32  C   UNL     1     -10.459   6.028  69.961  1.00  0.00    -0.250 C  
BRANCH  32  33
HETATM   33  C   UNL     1     -11.237   6.688  71.090  1.00  0.00    -0.292 C  
BRANCH  33  34
HETATM   34  O   UNL     1     -10.721   6.238  72.340  1.00  0.00    -0.208 OA 
BRANCH  34  35
HETATM   35  C   UNL     1     -11.530   5.204  72.895  1.00  0.00    -0.254 C  
BRANCH  35  36
HETATM   36  C   UNL     1     -10.626   4.174  73.559  1.00  0.00    -0.207 C  
BRANCH  36  37
HETATM   37  O   UNL     1      -9.716   3.641  72.596  1.00  0.00    -0.128 OA 
BRANCH  37  38
HETATM   38  C   UNL     1      -8.366   4.000  72.915  1.00  0.00    -0.096 C  
BRANCH  38  39
HETATM   39  C   UNL     1      -7.432   3.010  72.229  1.00  0.00    -0.052 C  
HETATM   40  O   UNL     1      -6.091   3.497  72.270  1.00  0.00    -0.012 OA 
HETATM   41  H   UNL     1      -5.510   2.880  71.843  1.00  0.00     0.000 HD 
ENDBRANCH  38  39
ENDBRANCH  37  38
ENDBRANCH  36  37
ENDBRANCH  35  36
ENDBRANCH  34  35
ENDBRANCH  33  34
ENDBRANCH  32  33
ENDBRANCH  31  32
ENDBRANCH  30  31
ENDBRANCH  29  30
ENDBRANCH  28  29
ENDBRANCH  27  28
ENDBRANCH  26  27
ENDBRANCH  25  26
ENDBRANCH  24  25
ENDBRANCH  23  24
ENDBRANCH  22  23
ENDBRANCH  21  22
ENDBRANCH  20  21
ENDBRANCH  19  20
ENDBRANCH  18  19
ENDBRANCH  17  18
ENDBRANCH  16  17
ENDBRANCH  15  16
ENDBRANCH  14  15
ENDBRANCH  13  14
ENDBRANCH  12  13
ENDBRANCH  11  12
ENDBRANCH  10  11
ENDBRANCH   9  10
ENDBRANCH   8   9
ENDBRANCH   7   8
ENDBRANCH   6   7
ENDBRANCH   5   6
ENDBRANCH   4   5
ENDBRANCH   3   4
ENDBRANCH   2   3
TORSDOF 37
ENDMDL
MODEL      178
REMARK 921   NORMALIZED FREE ENERGY PREDICTED BY IDOCK:   -2.42 KCAL/MOL
REMARK 922        TOTAL FREE ENERGY PREDICTED BY IDOCK:  -11.29 KCAL/MOL
REMARK 923 INTER-LIGAND FREE ENERGY PREDICTED BY IDOCK:   -8.11 KCAL/MOL
REMARK 924 INTRA-LIGAND FREE ENERGY PREDICTED BY IDOCK:   -3.18 KCAL/MOL
REMARK 927      BINDING AFFINITY PREDICTED BY RF-SCORE:    0.00 PKD
ROOT
HETATM    1  C   UNL     1     -11.191   6.087  71.178  1.00  0.00    -0.328 C  
HETATM    2  C   UNL     1     -11.211   7.605  71.238  1.00  0.00    -0.277 C  
ENDROOT
BRANCH   2   3
HETATM    3  C   UNL     1     -10.754   8.106  72.605  1.00  0.00    -0.421 C  
BRANCH   3   4
HETATM    4  C   UNL     1     -10.080   6.994  73.405  1.00  0.00    -0.320 C  
BRANCH   4   5
HETATM    5  C   UNL     1      -8.652   7.384  73.778  1.00  0.00    -0.227 C  
BRANCH   5   6
HETATM    6  C   UNL     1      -7.639   6.618  72.935  1.00  0.00    -0.095 C  
BRANCH   6   7
HETATM    7  C   UNL     1      -6.724   7.579  72.184  1.00  0.00    -0.055 C  
BRANCH   7   8
HETATM    8  C   UNL     1      -7.177   7.733  70.738  1.00  0.00    -0.057 C  
BRANCH   8   9
HETATM    9  C   UNL     1      -7.747   6.424  70.203  1.00  0.00    -0.098 C  
BRANCH   9  10
HETATM   10  C   UNL     1      -8.289   6.623  68.793  1.00  0.00    -0.120 C  
BRANCH  10  11
HETATM   11  C   UNL     1      -9.310   5.553  68.439  1.00  0.00    -0.130 C  
BRANCH  11  12
HETATM   12  C   UNL     1     -10.387   6.128  67.535  1.00  0.00    -0.208 C  
BRANCH  12  13
HETATM   13  O   UNL     1     -10.336   5.438  66.292  1.00  0.00    -0.214 OA 
BRANCH  13  14
HETATM   14  C   UNL     1      -9.666   4.191  66.437  1.00  0.00    -0.208 C  
BRANCH  14  15
HETATM   15  C   UNL     1      -8.827   3.927  65.200  1.00  0.00    -0.126 C  
BRANCH  15  16
HETATM   16  O   UNL     1      -9.045   4.990  64.279  1.00  0.00    -0.086 OA 
BRANCH  16  17
HETATM   17  C   UNL     1      -7.886   5.238  63.490  1.00  0.00    -0.087 C  
BRANCH  17  18
HETATM   18  C   UNL     1      -6.705   5.450  64.423  1.00  0.00    -0.046 C  
BRANCH  18  19
HETATM   19  O   UNL     1      -5.850   6.440  63.864  1.00  0.00    -0.022 OA 
BRANCH  19  20
HETATM   20  C   UNL     1      -6.559   7.303  62.973  1.00  0.00    -0.053 C  
BRANCH  20  21
HETATM   21  C   UNL     1      -6.529   8.717  63.540  1.00  0.00    -0.085 C  
BRANCH  21  22
HETATM   22  O   UNL     1      -7.553   8.834  64.533  1.00  0.00    -0.102 OA 
BRANCH  22  23
HETATM   23  C   UNL     1      -7.010   9.167  65.805  1.00  0.00    -0.085 C  
BRANCH  23  24
HETATM   24  C   UNL     1      -8.005  10.042  66.552  1.00  0.00    -0.115 C  
BRANCH  24  25
HETATM   25  O   UNL     1      -9.307   9.811  66.021  1.00  0.00    -0.168 OA 
BRANCH  25  26
HETATM   26  C   UNL     1     -10.313  10.048  66.998  1.00  0.00    -0.243 C  
BRANCH  26  27
HETATM   27  C   UNL     1     -10.818  11.475  66.845  1.00  0.00    -0.284 C  
BRANCH  27  28
HETATM   28  O   UNL     1     -11.350  11.643  65.535  1.00  0.00    -0.265 OA 
BRANCH  28  29
HETATM   29  C   UNL     1     -10.781  12.779  64.892  1.00  0.00    -0.305 C  
BRANCH  29  30
HETATM   30  C   UNL     1     -10.573  13.876  65.924  1.00  0.00    -0.293 C  
BRANCH  30  31
HETATM   31  O   UNL     1     -10.236  15.086  65.252  1.00  0.00    -0.361 OA 
BRANCH  31  32
HETATM   32  C   UNL     1      -9.085  15.696  65.831  1.00  0.00    -0.242 C  
BRANCH  32  33
HETATM   33  C   UNL     1      -9.502  16.989  66.516  1.00  0.00    -0.276 C  
BRANCH  33  34
HETATM   34  O   UNL     1      -9.811  16.717  67.881  1.00  0.00    -0.247 OA 
BRANCH  34  35
HETATM   35  C   UNL     1     -11.185  16.968  68.163  1.00  0.00    -0.039 C  
BRANCH  35  36
HETATM   36  C   UNL     1     -11.756  15.780  68.926  1.00  0.00    -0.394 C  
BRANCH  36  37
HETATM   37  O   UNL     1     -11.480  15.925  70.319  1.00  0.00    -0.316 OA 
BRANCH  37  38
HETATM   38  C   UNL     1     -12.633  15.597  71.106  1.00  0.00    -0.453 C  
BRANCH  38  39
HETATM   39  C   UNL     1     -12.287  14.401  71.987  1.00  0.00    -0.247 C  
HETATM   40  O   UNL     1     -12.140  13.232  71.183  1.00  0.00    -0.408 OA 
HETATM   41  H   UNL     1     -11.925  12.487  71.732  1.00  0.00     0.000 HD 
ENDBRANCH  38  39
ENDBRANCH  37  38
ENDBRANCH  36  37
ENDBRANCH  35  36
ENDBRANCH  34  35
ENDBRANCH  33  34
ENDBRANCH  32  33
ENDBRANCH  31  32
ENDBRANCH  30  31
ENDBRANCH  29  30
ENDBRANCH  28  29
ENDBRANCH  27  28
ENDBRANCH  26  27
ENDBRANCH  25  26
ENDBRANCH  24  25
ENDBRANCH  23  24
ENDBRANCH  22  23
ENDBRANCH  21  22
ENDBRANCH  20  21
ENDBRANCH  19  20
ENDBRANCH  18  19
ENDBRANCH  17  18
ENDBRANCH  16  17
ENDBRANCH  15  16
ENDBRANCH  14  15
ENDBRANCH  13  14
ENDBRANCH  12  13
ENDBRANCH  11  12
ENDBRANCH  10  11
ENDBRANCH   9  10
ENDBRANCH   8   9
ENDBRANCH   7   8
ENDBRANCH   6   7
ENDBRANCH   5   6
ENDBRANCH   4   5
ENDBRANCH   3   4
ENDBRANCH   2   3
TORSDOF 37
ENDMDL
MODEL      179
REMARK 921   NORMALIZED FREE ENERGY PREDICTED BY IDOCK:   -2.41 KCAL/MOL
REMARK 922        TOTAL FREE ENERGY PREDICTED BY IDOCK:  -11.25 KCAL/MOL
REMARK 923 INTER-LIGAND FREE ENERGY PREDICTED BY IDOCK:   -8.29 KCAL/MOL
REMARK 924 INTRA-LIGAND FREE ENERGY PREDICTED BY IDOCK:   -2.96 KCAL/MOL
REMARK 927      BINDING AFFINITY PREDICTED BY RF-SCORE:    0.00 PKD
ROOT
HETATM    1  C   UNL     1     -10.211   3.134  72.202  1.00  0.00    -0.143 C  
HETATM    2  C   UNL     1      -9.131   2.094  72.446  1.00  0.00    -0.113 C  
ENDROOT
BRANCH   2   3
HETATM    3  C   UNL     1      -8.081   2.123  71.339  1.00  0.00    -0.051 C  
BRANCH   3   4
HETATM    4  C   UNL     1      -8.240   3.360  70.457  1.00  0.00    -0.072 C  
BRANCH   4   5
HETATM    5  C   UNL     1      -6.912   4.099  70.317  1.00  0.00    -0.038 C  
BRANCH   5   6
HETATM    6  C   UNL     1      -6.079   3.512  69.184  1.00  0.00    -0.028 C  
BRANCH   6   7
HETATM    7  C   UNL     1      -6.460   4.145  67.850  1.00  0.00    -0.038 C  
BRANCH   7   8
HETATM    8  C   UNL     1      -6.477   5.664  67.962  1.00  0.00    -0.044 C  
BRANCH   8   9
HETATM    9  C   UNL     1      -7.528   6.268  67.035  1.00  0.00    -0.084 C  
BRANCH   9  10
HETATM   10  C   UNL     1      -8.890   5.645  67.308  1.00  0.00    -0.106 C  
BRANCH  10  11
HETATM   11  C   UNL     1      -9.533   6.247  68.549  1.00  0.00    -0.123 C  
BRANCH  11  12
HETATM   12  C   UNL     1     -11.045   6.120  68.475  1.00  0.00    -0.262 C  
BRANCH  12  13
HETATM   13  O   UNL     1     -11.581   6.475  69.744  1.00  0.00    -0.394 OA 
BRANCH  13  14
HETATM   14  C   UNL     1     -10.538   6.663  70.695  1.00  0.00    -0.227 C  
BRANCH  14  15
HETATM   15  C   UNL     1     -11.011   7.624  71.771  1.00  0.00    -0.239 C  
BRANCH  15  16
HETATM   16  O   UNL     1      -9.988   8.591  71.984  1.00  0.00    -0.254 OA 
BRANCH  16  17
HETATM   17  C   UNL     1      -9.581   9.191  70.759  1.00  0.00    -0.275 C  
BRANCH  17  18
HETATM   18  C   UNL     1      -8.062   9.260  70.738  1.00  0.00    -0.156 C  
BRANCH  18  19
HETATM   19  O   UNL     1      -7.653  10.054  69.631  1.00  0.00    -0.112 OA 
BRANCH  19  20
HETATM   20  C   UNL     1      -8.177   9.549  68.401  1.00  0.00    -0.113 C  
BRANCH  20  21
HETATM   21  C   UNL     1      -8.222  10.687  67.389  1.00  0.00    -0.115 C  
BRANCH  21  22
HETATM   22  O   UNL     1      -9.420  10.565  66.616  1.00  0.00    -0.162 OA 
BRANCH  22  23
HETATM   23  C   UNL     1      -9.144  10.576  65.220  1.00  0.00    -0.190 C  
BRANCH  23  24
HETATM   24  C   UNL     1     -10.423  10.259  64.461  1.00  0.00     0.280 C  
BRANCH  24  25
HETATM   25  O   UNL     1     -10.467  11.061  63.284  1.00  0.00    -0.337 OA 
BRANCH  25  26
HETATM   26  C   UNL     1     -10.905  12.382  63.575  1.00  0.00    -0.438 C  
BRANCH  26  27
HETATM   27  C   UNL     1     -12.223  12.306  64.331  1.00  0.00    -0.402 C  
BRANCH  27  28
HETATM   28  O   UNL     1     -12.220  13.279  65.371  1.00  0.00    -0.401 OA 
BRANCH  28  29
HETATM   29  C   UNL     1     -10.908  13.782  65.599  1.00  0.00    -0.287 C  
BRANCH  29  30
HETATM   30  C   UNL     1     -11.003  15.246  65.998  1.00  0.00    -0.317 C  
BRANCH  30  31
HETATM   31  O   UNL     1      -9.763  15.885  65.712  1.00  0.00    -0.323 OA 
BRANCH  31  32
HETATM   32  C   UNL     1      -8.821  15.680  66.761  1.00  0.00    -0.272 C  
BRANCH  32  33
HETATM   33  C   UNL     1      -7.604  16.560  66.513  1.00  0.00    -0.269 C  
BRANCH  33  34
HETATM   34  O   UNL     1      -7.910  17.504  65.490  1.00  0.00    -0.386 OA 
BRANCH  34  35
HETATM   35  C   UNL     1      -7.143  18.696  65.637  1.00  0.00    -0.180 C  
BRANCH  35  36
HETATM   36  C   UNL     1      -8.052  19.807  66.146  1.00  0.00    -0.342 C  
BRANCH  36  37
HETATM   37  O   UNL     1      -8.056  19.809  67.575  1.00  0.00    -0.284 OA 
BRANCH  37  38
HETATM   38  C   UNL     1      -9.355  20.142  68.081  1.00  0.00    -0.184 C  
BRANCH  38  39
HETATM   39  C   UNL     1      -9.991  18.874  68.641  1.00  0.00    -0.412 C  
HETATM   40  O   UNL     1     -10.831  18.276  67.655  1.00  0.00    -0.396 OA 
HETATM   41  H   UNL     1     -11.226  17.486  68.004  1.00  0.00     0.000 HD 
ENDBRANCH  38  39
ENDBRANCH  37  38
ENDBRANCH  36  37
ENDBRANCH  35  36
ENDBRANCH  34  35
ENDBRANCH  33  34
ENDBRANCH  32  33
ENDBRANCH  31  32
ENDBRANCH  30  31
ENDBRANCH  29  30
ENDBRANCH  28  29
ENDBRANCH  27  28
ENDBRANCH  26  27
ENDBRANCH  25  26
ENDBRANCH  24  25
ENDBRANCH  23  24
ENDBRANCH  22  23
ENDBRANCH  21  22
ENDBRANCH  20  21
ENDBRANCH  19  20
ENDBRANCH  18  19
ENDBRANCH  17  18
ENDBRANCH  16  17
ENDBRANCH  15  16
ENDBRANCH  14  15
ENDBRANCH  13  14
ENDBRANCH  12  13
ENDBRANCH  11  12
ENDBRANCH  10  11
ENDBRANCH   9  10
ENDBRANCH   8   9
ENDBRANCH   7   8
ENDBRANCH   6   7
ENDBRANCH   5   6
ENDBRANCH   4   5
ENDBRANCH   3   4
ENDBRANCH   2   3
TORSDOF 37
ENDMDL
MODEL      180
REMARK 921   NORMALIZED FREE ENERGY PREDICTED BY IDOCK:   -2.40 KCAL/MOL
REMARK 922        TOTAL FREE ENERGY PREDICTED BY IDOCK:  -11.21 KCAL/MOL
REMARK 923 INTER-LIGAND FREE ENERGY PREDICTED BY IDOCK:   -8.71 KCAL/MOL
REMARK 924 INTRA-LIGAND FREE ENERGY PREDICTED BY IDOCK:   -2.49 KCAL/MOL
REMARK 927      BINDING AFFINITY PREDICTED BY RF-SCORE:    0.00 PKD
ROOT
HETATM    1  C   UNL     1      -9.216  11.041  63.645  1.00  0.00    -0.210 C  
HETATM    2  C   UNL     1     -10.393  11.560  64.454  1.00  0.00    -0.364 C  
ENDROOT
BRANCH   2   3
HETATM    3  C   UNL     1     -11.661  11.611  63.606  1.00  0.00    -0.435 C  
BRANCH   3   4
HETATM    4  C   UNL     1     -12.331  12.980  63.696  1.00  0.00    -0.499 C  
BRANCH   4   5
HETATM    5  C   UNL     1     -11.447  13.967  64.454  1.00  0.00    -0.357 C  
BRANCH   5   6
HETATM    6  C   UNL     1     -11.706  15.397  63.992  1.00  0.00     0.051 C  
BRANCH   6   7
HETATM    7  C   UNL     1     -11.161  16.398  65.005  1.00  0.00    -0.216 C  
BRANCH   7   8
HETATM    8  C   UNL     1     -10.421  15.679  66.126  1.00  0.00    -0.327 C  
BRANCH   8   9
HETATM    9  C   UNL     1      -9.636  16.667  66.983  1.00  0.00    -0.250 C  
BRANCH   9  10
HETATM   10  C   UNL     1      -8.142  16.507  66.735  1.00  0.00    -0.286 C  
BRANCH  10  11
HETATM   11  C   UNL     1      -7.431  15.982  67.973  1.00  0.00    -0.134 C  
BRANCH  11  12
HETATM   12  C   UNL     1      -6.058  15.444  67.607  1.00  0.00    -0.126 C  
BRANCH  12  13
HETATM   13  O   UNL     1      -6.155  14.031  67.485  1.00  0.00    -0.323 OA 
BRANCH  13  14
HETATM   14  C   UNL     1      -7.285  13.541  68.199  1.00  0.00    -0.117 C  
BRANCH  14  15
HETATM   15  C   UNL     1      -6.811  12.757  69.410  1.00  0.00     0.039 C  
BRANCH  15  16
HETATM   16  O   UNL     1      -7.005  11.372  69.147  1.00  0.00    -0.101 OA 
BRANCH  16  17
HETATM   17  C   UNL     1      -5.839  10.618  69.461  1.00  0.00    -0.041 C  
BRANCH  17  18
HETATM   18  C   UNL     1      -6.096   9.163  69.105  1.00  0.00    -0.042 C  
BRANCH  18  19
HETATM   19  O   UNL     1      -5.936   8.368  70.274  1.00  0.00    -0.028 OA 
BRANCH  19  20
HETATM   20  C   UNL     1      -5.770   9.178  71.440  1.00  0.00    -0.063 C  
BRANCH  20  21
HETATM   21  C   UNL     1      -6.652   8.618  72.549  1.00  0.00    -0.040 C  
BRANCH  21  22
HETATM   22  O   UNL     1      -7.176   7.356  72.126  1.00  0.00    -0.066 OA 
BRANCH  22  23
HETATM   23  C   UNL     1      -8.562   7.442  71.820  1.00  0.00    -0.115 C  
BRANCH  23  24
HETATM   24  C   UNL     1      -8.957   6.241  70.974  1.00  0.00    -0.143 C  
BRANCH  24  25
HETATM   25  O   UNL     1     -10.364   6.281  70.752  1.00  0.00    -0.195 OA 
BRANCH  25  26
HETATM   26  C   UNL     1     -10.778   7.561  70.291  1.00  0.00    -0.238 C  
BRANCH  26  27
HETATM   27  C   UNL     1     -10.249   7.769  68.879  1.00  0.00    -0.211 C  
BRANCH  27  28
HETATM   28  O   UNL     1     -11.041   8.754  68.225  1.00  0.00     0.076 OA 
BRANCH  28  29
HETATM   29  C   UNL     1     -10.392  10.022  68.232  1.00  0.00    -0.193 C  
BRANCH  29  30
HETATM   30  C   UNL     1     -11.440  11.112  68.389  1.00  0.00    -0.306 C  
BRANCH  30  31
HETATM   31  O   UNL     1     -10.868  12.362  68.017  1.00  0.00    -0.206 OA 
BRANCH  31  32
HETATM   32  C   UNL     1     -11.710  13.449  68.392  1.00  0.00    -0.355 C  
BRANCH  32  33
HETATM   33  C   UNL     1     -11.092  14.164  69.585  1.00  0.00    -0.141 C  
BRANCH  33  34
HETATM   34  O   UNL     1     -11.688  15.451  69.720  1.00  0.00    -0.288 OA 
BRANCH  34  35
HETATM   35  C   UNL     1     -12.571  15.501  70.838  1.00  0.00    -0.456 C  
BRANCH  35  36
HETATM   36  C   UNL     1     -11.915  14.795  72.016  1.00  0.00    -0.294 C  
BRANCH  36  37
HETATM   37  O   UNL     1     -12.917  14.184  72.830  1.00  0.00    -0.466 OA 
BRANCH  37  38
HETATM   38  C   UNL     1     -13.696  13.253  72.068  1.00  0.00    -0.430 C  
BRANCH  38  39
HETATM   39  C   UNL     1     -12.828  12.036  71.766  1.00  0.00    -0.272 C  
HETATM   40  O   UNL     1     -13.510  10.845  72.155  1.00  0.00    -0.546 OA 
HETATM   41  H   UNL     1     -12.969  10.087  71.966  1.00  0.00     0.000 HD 
ENDBRANCH  38  39
ENDBRANCH  37  38
ENDBRANCH  36  37
ENDBRANCH  35  36
ENDBRANCH  34  35
ENDBRANCH  33  34
ENDBRANCH  32  33
ENDBRANCH  31  32
ENDBRANCH  30  31
ENDBRANCH  29  30
ENDBRANCH  28  29
ENDBRANCH  27  28
ENDBRANCH  26  27
ENDBRANCH  25  26
ENDBRANCH  24  25
ENDBRANCH  23  24
ENDBRANCH  22  23
ENDBRANCH  21  22
ENDBRANCH  20  21
ENDBRANCH  19  20
ENDBRANCH  18  19
ENDBRANCH  17  18
ENDBRANCH  16  17
ENDBRANCH  15  16
ENDBRANCH  14  15
ENDBRANCH  13  14
ENDBRANCH  12  13
ENDBRANCH  11  12
ENDBRANCH  10  11
ENDBRANCH   9  10
ENDBRANCH   8   9
ENDBRANCH   7   8
ENDBRANCH   6   7
ENDBRANCH   5   6
ENDBRANCH   4   5
ENDBRANCH   3   4
ENDBRANCH   2   3
TORSDOF 37
ENDMDL
MODEL      181
REMARK 921   NORMALIZED FREE ENERGY PREDICTED BY IDOCK:   -2.36 KCAL/MOL
REMARK 922        TOTAL FREE ENERGY PREDICTED BY IDOCK:  -11.08 KCAL/MOL
REMARK 923 INTER-LIGAND FREE ENERGY PREDICTED BY IDOCK:   -9.02 KCAL/MOL
REMARK 924 INTRA-LIGAND FREE ENERGY PREDICTED BY IDOCK:   -2.06 KCAL/MOL
REMARK 927      BINDING AFFINITY PREDICTED BY RF-SCORE:    0.00 PKD
ROOT
HETATM    1  C   UNL     1     -12.124   6.970  71.960  1.00  0.00    -0.329 C  
HETATM    2  C   UNL     1     -13.486   7.195  71.327  1.00  0.00    -0.309 C  
ENDROOT
BRANCH   2   3
HETATM    3  C   UNL     1     -14.100   8.511  71.799  1.00  0.00    -0.515 C  
BRANCH   3   4
HETATM    4  C   UNL     1     -13.024   9.480  72.285  1.00  0.00    -0.466 C  
BRANCH   4   5
HETATM    5  C   UNL     1     -12.888  10.661  71.328  1.00  0.00    -0.535 C  
BRANCH   5   6
HETATM    6  C   UNL     1     -13.320  11.959  72.000  1.00  0.00    -0.425 C  
BRANCH   6   7
HETATM    7  C   UNL     1     -12.747  13.165  71.263  1.00  0.00    -0.396 C  
BRANCH   7   8
HETATM    8  C   UNL     1     -11.789  12.718  70.166  1.00  0.00    -0.326 C  
BRANCH   8   9
HETATM    9  C   UNL     1     -12.138  13.377  68.835  1.00  0.00    -0.289 C  
BRANCH   9  10
HETATM   10  C   UNL     1     -11.150  12.946  67.759  1.00  0.00    -0.291 C  
BRANCH  10  11
HETATM   11  C   UNL     1     -11.497  11.569  67.213  1.00  0.00    -0.338 C  
BRANCH  11  12
HETATM   12  C   UNL     1     -11.163  11.488  65.733  1.00  0.00    -0.164 C  
BRANCH  12  13
HETATM   13  O   UNL     1     -10.696  12.764  65.315  1.00  0.00    -0.282 OA 
BRANCH  13  14
HETATM   14  C   UNL     1     -11.092  13.030  63.974  1.00  0.00    -0.395 C  
BRANCH  14  15
HETATM   15  C   UNL     1     -10.899  11.777  63.138  1.00  0.00    -0.223 C  
BRANCH  15  16
HETATM   16  O   UNL     1      -9.502  11.577  62.952  1.00  0.00    -0.381 OA 
BRANCH  16  17
HETATM   17  C   UNL     1      -9.189  10.194  62.831  1.00  0.00    -0.296 C  
BRANCH  17  18
HETATM   18  C   UNL     1      -7.690  10.021  63.010  1.00  0.00    -0.143 C  
BRANCH  18  19
HETATM   19  O   UNL     1      -7.419   9.733  64.376  1.00  0.00    -0.120 OA 
BRANCH  19  20
HETATM   20  C   UNL     1      -8.502   9.029  64.988  1.00  0.00    -0.174 C  
BRANCH  20  21
HETATM   21  C   UNL     1      -7.984   7.688  65.496  1.00  0.00    -0.120 C  
BRANCH  21  22
HETATM   22  O   UNL     1      -7.675   6.861  64.370  1.00  0.00    -0.101 OA 
BRANCH  22  23
HETATM   23  C   UNL     1      -8.511   5.711  64.323  1.00  0.00    -0.036 C  
BRANCH  23  24
HETATM   24  C   UNL     1      -8.939   5.352  65.737  1.00  0.00    -0.158 C  
BRANCH  24  25
HETATM   25  O   UNL     1      -9.287   3.971  65.774  1.00  0.00    -0.141 OA 
BRANCH  25  26
HETATM   26  C   UNL     1      -8.218   3.182  66.281  1.00  0.00    -0.090 C  
BRANCH  26  27
HETATM   27  C   UNL     1      -7.953   3.586  67.724  1.00  0.00    -0.080 C  
BRANCH  27  28
HETATM   28  O   UNL     1      -8.931   2.982  68.564  1.00  0.00    -0.108 OA 
BRANCH  28  29
HETATM   29  C   UNL     1      -8.524   3.013  69.929  1.00  0.00    -0.053 C  
BRANCH  29  30
HETATM   30  C   UNL     1      -9.751   3.217  70.804  1.00  0.00    -0.103 C  
BRANCH  30  31
HETATM   31  O   UNL     1      -9.486   4.259  71.737  1.00  0.00    -0.130 OA 
BRANCH  31  32
HETATM   32  C   UNL     1      -8.865   3.753  72.916  1.00  0.00    -0.094 C  
BRANCH  32  33
HETATM   33  C   UNL     1      -8.004   4.848  73.531  1.00  0.00    -0.107 C  
BRANCH  33  34
HETATM   34  O   UNL     1      -8.741   6.067  73.552  1.00  0.00    -0.126 OA 
BRANCH  34  35
HETATM   35  C   UNL     1      -8.360   6.923  72.478  1.00  0.00    -0.110 C  
BRANCH  35  36
HETATM   36  C   UNL     1      -8.720   8.358  72.840  1.00  0.00    -0.170 C  
BRANCH  36  37
HETATM   37  O   UNL     1      -9.685   8.860  71.915  1.00  0.00    -0.307 OA 
BRANCH  37  38
HETATM   38  C   UNL     1      -9.057   9.270  70.693  1.00  0.00    -0.253 C  
BRANCH  38  39
HETATM   39  C   UNL     1      -9.930   8.815  69.529  1.00  0.00    -0.195 C  
HETATM   40  O   UNL     1      -9.132   8.144  68.556  1.00  0.00    -0.137 OA 
HETATM   41  H   UNL     1      -9.676   7.861  67.831  1.00  0.00     0.000 HD 
ENDBRANCH  38  39
ENDBRANCH  37  38
ENDBRANCH  36  37
ENDBRANCH  35  36
ENDBRANCH  34  35
ENDBRANCH  33  34
ENDBRANCH  32  33
ENDBRANCH  31  32
ENDBRANCH  30  31
ENDBRANCH  29  30
ENDBRANCH  28  29
ENDBRANCH  27  28
ENDBRANCH  26  27
ENDBRANCH  25  26
ENDBRANCH  24  25
ENDBRANCH  23  24
ENDBRANCH  22  23
ENDBRANCH  21  22
ENDBRANCH  20  21
ENDBRANCH  19  20
ENDBRANCH  18  19
ENDBRANCH  17  18
ENDBRANCH  16  17
ENDBRANCH  15  16
ENDBRANCH  14  15
ENDBRANCH  13  14
ENDBRANCH  12  13
ENDBRANCH  11  12
ENDBRANCH  10  11
ENDBRANCH   9  10
ENDBRANCH   8   9
ENDBRANCH   7   8
ENDBRANCH   6   7
ENDBRANCH   5   6
ENDBRANCH   4   5
ENDBRANCH   3   4
ENDBRANCH   2   3
TORSDOF 37
ENDMDL
MODEL      182
REMARK 921   NORMALIZED FREE ENERGY PREDICTED BY IDOCK:   -2.35 KCAL/MOL
REMARK 922        TOTAL FREE ENERGY PREDICTED BY IDOCK:  -11.05 KCAL/MOL
REMARK 923 INTER-LIGAND FREE ENERGY PREDICTED BY IDOCK:   -8.61 KCAL/MOL
REMARK 924 INTRA-LIGAND FREE ENERGY PREDICTED BY IDOCK:   -2.45 KCAL/MOL
REMARK 927      BINDING AFFINITY PREDICTED BY RF-SCORE:    0.00 PKD
ROOT
HETATM    1  C   UNL     1     -11.639  14.956  69.992  1.00  0.00    -0.331 C  
HETATM    2  C   UNL     1     -10.265  15.479  69.610  1.00  0.00    -0.289 C  
ENDROOT
BRANCH   2   3
HETATM    3  C   UNL     1     -10.189  15.782  68.116  1.00  0.00    -0.230 C  
BRANCH   3   4
HETATM    4  C   UNL     1     -11.499  15.433  67.414  1.00  0.00    -0.197 C  
BRANCH   4   5
HETATM    5  C   UNL     1     -11.234  14.903  66.007  1.00  0.00    -0.327 C  
BRANCH   5   6
HETATM    6  C   UNL     1     -12.495  14.287  65.411  1.00  0.00    -0.434 C  
BRANCH   6   7
HETATM    7  C   UNL     1     -12.238  12.848  64.974  1.00  0.00    -0.515 C  
BRANCH   7   8
HETATM    8  C   UNL     1     -11.329  12.813  63.752  1.00  0.00    -0.520 C  
BRANCH   8   9
HETATM    9  C   UNL     1     -11.124  11.382  63.266  1.00  0.00    -0.204 C  
BRANCH   9  10
HETATM   10  C   UNL     1      -9.640  11.099  63.072  1.00  0.00    -0.389 C  
BRANCH  10  11
HETATM   11  C   UNL     1      -9.184   9.930  63.932  1.00  0.00    -0.295 C  
BRANCH  11  12
HETATM   12  C   UNL     1      -7.685  10.000  64.167  1.00  0.00    -0.144 C  
BRANCH  12  13
HETATM   13  O   UNL     1      -7.422   9.531  65.484  1.00  0.00    -0.097 OA 
BRANCH  13  14
HETATM   14  C   UNL     1      -6.352  10.262  66.073  1.00  0.00    -0.102 C  
BRANCH  14  15
HETATM   15  C   UNL     1      -6.581  10.366  67.570  1.00  0.00    -0.066 C  
BRANCH  15  16
HETATM   16  O   UNL     1      -5.806  11.452  68.065  1.00  0.00    -0.043 OA 
BRANCH  16  17
HETATM   17  C   UNL     1      -6.621  12.404  68.740  1.00  0.00    -0.088 C  
BRANCH  17  18
HETATM   18  C   UNL     1      -7.928  12.546  67.977  1.00  0.00    -0.153 C  
BRANCH  18  19
HETATM   19  O   UNL     1      -8.949  11.847  68.678  1.00  0.00    -0.142 OA 
BRANCH  19  20
HETATM   20  C   UNL     1     -10.224  12.018  68.056  1.00  0.00    -0.198 C  
BRANCH  20  21
HETATM   21  C   UNL     1     -10.398  10.933  67.000  1.00  0.00    -0.231 C  
BRANCH  21  22
HETATM   22  O   UNL     1     -11.141   9.853  67.572  1.00  0.00    -0.257 OA 
BRANCH  22  23
HETATM   23  C   UNL     1     -10.521   8.599  67.315  1.00  0.00    -0.289 C  
BRANCH  23  24
HETATM   24  C   UNL     1     -10.350   7.854  68.630  1.00  0.00    -0.201 C  
BRANCH  24  25
HETATM   25  O   UNL     1     -10.314   8.803  69.692  1.00  0.00    -0.203 OA 
BRANCH  25  26
HETATM   26  C   UNL     1     -11.395   8.608  70.595  1.00  0.00    -0.247 C  
BRANCH  26  27
HETATM   27  C   UNL     1     -10.897   8.843  72.014  1.00  0.00    -0.334 C  
BRANCH  27  28
HETATM   28  O   UNL     1     -11.501   7.890  72.883  1.00  0.00    -0.403 OA 
BRANCH  28  29
HETATM   29  C   UNL     1     -11.102   6.565  72.547  1.00  0.00    -0.260 C  
BRANCH  29  30
HETATM   30  C   UNL     1     -10.608   5.865  73.804  1.00  0.00    -0.254 C  
BRANCH  30  31
HETATM   31  O   UNL     1      -9.670   6.708  74.465  1.00  0.00    -0.270 OA 
BRANCH  31  32
HETATM   32  C   UNL     1      -8.333   6.260  74.253  1.00  0.00    -0.120 C  
BRANCH  32  33
HETATM   33  C   UNL     1      -7.548   7.361  73.555  1.00  0.00    -0.096 C  
BRANCH  33  34
HETATM   34  O   UNL     1      -7.709   7.230  72.145  1.00  0.00    -0.087 OA 
BRANCH  34  35
HETATM   35  C   UNL     1      -7.287   5.947  71.690  1.00  0.00    -0.092 C  
BRANCH  35  36
HETATM   36  C   UNL     1      -8.268   5.450  70.637  1.00  0.00    -0.114 C  
BRANCH  36  37
HETATM   37  O   UNL     1      -8.510   4.055  70.825  1.00  0.00    -0.069 OA 
BRANCH  37  38
HETATM   38  C   UNL     1      -8.313   3.682  72.195  1.00  0.00    -0.083 C  
BRANCH  38  39
HETATM   39  C   UNL     1      -9.384   2.667  72.575  1.00  0.00    -0.095 C  
HETATM   40  O   UNL     1      -9.697   1.847  71.449  1.00  0.00    -0.135 OA 
HETATM   41  H   UNL     1     -10.364   1.214  71.686  1.00  0.00     0.000 HD 
ENDBRANCH  38  39
ENDBRANCH  37  38
ENDBRANCH  36  37
ENDBRANCH  35  36
ENDBRANCH  34  35
ENDBRANCH  33  34
ENDBRANCH  32  33
ENDBRANCH  31  32
ENDBRANCH  30  31
ENDBRANCH  29  30
ENDBRANCH  28  29
ENDBRANCH  27  28
ENDBRANCH  26  27
ENDBRANCH  25  26
ENDBRANCH  24  25
ENDBRANCH  23  24
ENDBRANCH  22  23
ENDBRANCH  21  22
ENDBRANCH  20  21
ENDBRANCH  19  20
ENDBRANCH  18  19
ENDBRANCH  17  18
ENDBRANCH  16  17
ENDBRANCH  15  16
ENDBRANCH  14  15
ENDBRANCH  13  14
ENDBRANCH  12  13
ENDBRANCH  11  12
ENDBRANCH  10  11
ENDBRANCH   9  10
ENDBRANCH   8   9
ENDBRANCH   7   8
ENDBRANCH   6   7
ENDBRANCH   5   6
ENDBRANCH   4   5
ENDBRANCH   3   4
ENDBRANCH   2   3
TORSDOF 37
ENDMDL
MODEL      183
REMARK 921   NORMALIZED FREE ENERGY PREDICTED BY IDOCK:   -2.33 KCAL/MOL
REMARK 922        TOTAL FREE ENERGY PREDICTED BY IDOCK:  -11.00 KCAL/MOL
REMARK 923 INTER-LIGAND FREE ENERGY PREDICTED BY IDOCK:   -7.86 KCAL/MOL
REMARK 924 INTRA-LIGAND FREE ENERGY PREDICTED BY IDOCK:   -3.14 KCAL/MOL
REMARK 927      BINDING AFFINITY PREDICTED BY RF-SCORE:    0.00 PKD
ROOT
HETATM    1  C   UNL     1     -11.027   5.337  71.434  1.00  0.00    -0.076 C  
HETATM    2  C   UNL     1     -11.500   6.380  70.436  1.00  0.00    -0.458 C  
ENDROOT
BRANCH   2   3
HETATM    3  C   UNL     1     -11.763   7.717  71.123  1.00  0.00    -0.311 C  
BRANCH   3   4
HETATM    4  C   UNL     1     -11.234   7.716  72.556  1.00  0.00    -0.399 C  
BRANCH   4   5
HETATM    5  C   UNL     1      -9.989   8.591  72.673  1.00  0.00    -0.265 C  
BRANCH   5   6
HETATM    6  C   UNL     1      -8.722   7.744  72.628  1.00  0.00    -0.198 C  
BRANCH   6   7
HETATM    7  C   UNL     1      -7.653   8.417  71.774  1.00  0.00    -0.139 C  
BRANCH   7   8
HETATM    8  C   UNL     1      -7.944   8.216  70.292  1.00  0.00    -0.103 C  
BRANCH   8   9
HETATM    9  C   UNL     1      -7.193   7.005  69.748  1.00  0.00    -0.079 C  
BRANCH   9  10
HETATM   10  C   UNL     1      -8.102   6.187  68.840  1.00  0.00    -0.108 C  
BRANCH  10  11
HETATM   11  C   UNL     1      -8.017   4.703  69.167  1.00  0.00    -0.070 C  
BRANCH  11  12
HETATM   12  C   UNL     1      -9.149   3.948  68.491  1.00  0.00    -0.138 C  
BRANCH  12  13
HETATM   13  O   UNL     1      -8.576   2.979  67.621  1.00  0.00    -0.086 OA 
BRANCH  13  14
HETATM   14  C   UNL     1      -7.201   2.779  67.928  1.00  0.00    -0.049 C  
BRANCH  14  15
HETATM   15  C   UNL     1      -6.431   2.541  66.641  1.00  0.00    -0.035 C  
BRANCH  15  16
HETATM   16  O   UNL     1      -7.309   2.781  65.547  1.00  0.00    -0.068 OA 
BRANCH  16  17
HETATM   17  C   UNL     1      -6.667   3.534  64.524  1.00  0.00    -0.043 C  
BRANCH  17  18
HETATM   18  C   UNL     1      -5.784   4.584  65.180  1.00  0.00    -0.014 C  
BRANCH  18  19
HETATM   19  O   UNL     1      -6.100   5.858  64.633  1.00  0.00    -0.024 OA 
BRANCH  19  20
HETATM   20  C   UNL     1      -7.241   5.792  63.776  1.00  0.00    -0.055 C  
BRANCH  20  21
HETATM   21  C   UNL     1      -7.820   7.195  63.629  1.00  0.00    -0.106 C  
BRANCH  21  22
HETATM   22  O   UNL     1      -8.631   7.477  64.772  1.00  0.00     0.010 OA 
BRANCH  22  23
HETATM   23  C   UNL     1      -7.941   8.290  65.714  1.00  0.00    -0.099 C  
BRANCH  23  24
HETATM   24  C   UNL     1      -8.944   9.193  66.415  1.00  0.00    -0.149 C  
BRANCH  24  25
HETATM   25  O   UNL     1     -10.182   8.498  66.533  1.00  0.00    -0.289 OA 
BRANCH  25  26
HETATM   26  C   UNL     1     -10.891   8.899  67.699  1.00  0.00    -0.042 C  
BRANCH  26  27
HETATM   27  C   UNL     1     -10.612  10.372  67.960  1.00  0.00    -0.221 C  
BRANCH  27  28
HETATM   28  O   UNL     1     -11.695  11.147  67.456  1.00  0.00    -0.574 OA 
BRANCH  28  29
HETATM   29  C   UNL     1     -11.329  11.821  66.256  1.00  0.00    -0.287 C  
BRANCH  29  30
HETATM   30  C   UNL     1     -10.158  12.747  66.548  1.00  0.00    -0.258 C  
BRANCH  30  31
HETATM   31  O   UNL     1     -10.613  14.095  66.510  1.00  0.00    -0.278 OA 
BRANCH  31  32
HETATM   32  C   UNL     1     -10.146  14.767  65.343  1.00  0.00    -0.374 C  
BRANCH  32  33
HETATM   33  C   UNL     1     -10.756  16.160  65.296  1.00  0.00    -0.368 C  
BRANCH  33  34
HETATM   34  O   UNL     1     -10.163  16.965  66.312  1.00  0.00    -0.309 OA 
BRANCH  34  35
HETATM   35  C   UNL     1      -8.740  16.899  66.264  1.00  0.00    -0.286 C  
BRANCH  35  36
HETATM   36  C   UNL     1      -8.169  17.723  67.410  1.00  0.00    -0.214 C  
BRANCH  36  37
HETATM   37  O   UNL     1      -9.147  18.658  67.864  1.00  0.00    -0.284 OA 
BRANCH  37  38
HETATM   38  C   UNL     1      -8.806  19.991  67.463  1.00  0.00    -0.345 C  
BRANCH  38  39
HETATM   39  C   UNL     1      -9.325  20.213  66.047  1.00  0.00    -0.210 C  
HETATM   40  O   UNL     1     -10.712  19.883  65.981  1.00  0.00    -0.452 OA 
HETATM   41  H   UNL     1     -11.035  20.021  65.099  1.00  0.00     0.000 HD 
ENDBRANCH  38  39
ENDBRANCH  37  38
ENDBRANCH  36  37
ENDBRANCH  35  36
ENDBRANCH  34  35
ENDBRANCH  33  34
ENDBRANCH  32  33
ENDBRANCH  31  32
ENDBRANCH  30  31
ENDBRANCH  29  30
ENDBRANCH  28  29
ENDBRANCH  27  28
ENDBRANCH  26  27
ENDBRANCH  25  26
ENDBRANCH  24  25
ENDBRANCH  23  24
ENDBRANCH  22  23
ENDBRANCH  21  22
ENDBRANCH  20  21
ENDBRANCH  19  20
ENDBRANCH  18  19
ENDBRANCH  17  18
ENDBRANCH  16  17
ENDBRANCH  15  16
ENDBRANCH  14  15
ENDBRANCH  13  14
ENDBRANCH  12  13
ENDBRANCH  11  12
ENDBRANCH  10  11
ENDBRANCH   9  10
ENDBRANCH   8   9
ENDBRANCH   7   8
ENDBRANCH   6   7
ENDBRANCH   5   6
ENDBRANCH   4   5
ENDBRANCH   3   4
ENDBRANCH   2   3
TORSDOF 37
ENDMDL
MODEL      184
REMARK 921   NORMALIZED FREE ENERGY PREDICTED BY IDOCK:   -2.33 KCAL/MOL
REMARK 922        TOTAL FREE ENERGY PREDICTED BY IDOCK:  -10.99 KCAL/MOL
REMARK 923 INTER-LIGAND FREE ENERGY PREDICTED BY IDOCK:   -7.43 KCAL/MOL
REMARK 924 INTRA-LIGAND FREE ENERGY PREDICTED BY IDOCK:   -3.56 KCAL/MOL
REMARK 927      BINDING AFFINITY PREDICTED BY RF-SCORE:    0.00 PKD
ROOT
HETATM    1  C   UNL     1     -10.114   3.330  72.305  1.00  0.00    -0.215 C  
HETATM    2  C   UNL     1      -8.927   2.381  72.297  1.00  0.00    -0.111 C  
ENDROOT
BRANCH   2   3
HETATM    3  C   UNL     1      -8.147   2.489  70.990  1.00  0.00    -0.058 C  
BRANCH   3   4
HETATM    4  C   UNL     1      -8.674   3.631  70.124  1.00  0.00    -0.122 C  
BRANCH   4   5
HETATM    5  C   UNL     1      -7.521   4.456  69.556  1.00  0.00    -0.054 C  
BRANCH   5   6
HETATM    6  C   UNL     1      -7.217   4.049  68.119  1.00  0.00    -0.059 C  
BRANCH   6   7
HETATM    7  C   UNL     1      -8.150   4.763  67.147  1.00  0.00    -0.102 C  
BRANCH   7   8
HETATM    8  C   UNL     1      -8.051   6.273  67.318  1.00  0.00    -0.109 C  
BRANCH   8   9
HETATM    9  C   UNL     1      -9.417   6.931  67.156  1.00  0.00    -0.168 C  
BRANCH   9  10
HETATM   10  C   UNL     1     -10.374   6.428  68.229  1.00  0.00    -0.228 C  
BRANCH  10  11
HETATM   11  C   UNL     1     -10.095   7.089  69.570  1.00  0.00    -0.179 C  
BRANCH  11  12
HETATM   12  C   UNL     1     -11.287   6.926  70.498  1.00  0.00    -0.327 C  
BRANCH  12  13
HETATM   13  O   UNL     1     -10.855   7.198  71.825  1.00  0.00    -0.223 OA 
BRANCH  13  14
HETATM   14  C   UNL     1      -9.463   6.936  71.964  1.00  0.00    -0.140 C  
BRANCH  14  15
HETATM   15  C   UNL     1      -8.902   7.789  73.088  1.00  0.00    -0.204 C  
BRANCH  15  16
HETATM   16  O   UNL     1      -7.568   8.151  72.749  1.00  0.00    -0.116 OA 
BRANCH  16  17
HETATM   17  C   UNL     1      -7.527   8.903  71.541  1.00  0.00    -0.050 C  
BRANCH  17  18
HETATM   18  C   UNL     1      -6.092   8.933  71.041  1.00  0.00    -0.049 C  
BRANCH  18  19
HETATM   19  O   UNL     1      -6.051   9.631  69.803  1.00  0.00    -0.041 OA 
BRANCH  19  20
HETATM   20  C   UNL     1      -7.209   9.363  69.011  1.00  0.00    -0.071 C  
BRANCH  20  21
HETATM   21  C   UNL     1      -7.648  10.657  68.337  1.00  0.00    -0.100 C  
BRANCH  21  22
HETATM   22  O   UNL     1      -8.959  10.993  68.798  1.00  0.00    -0.165 OA 
BRANCH  22  23
HETATM   23  C   UNL     1      -9.942  10.748  67.799  1.00  0.00    -0.171 C  
BRANCH  23  24
HETATM   24  C   UNL     1     -11.324  10.903  68.418  1.00  0.00    -0.304 C  
BRANCH  24  25
HETATM   25  O   UNL     1     -12.076  11.824  67.633  1.00  0.00    -0.598 OA 
BRANCH  25  26
HETATM   26  C   UNL     1     -11.734  13.168  67.947  1.00  0.00    -0.357 C  
BRANCH  26  27
HETATM   27  C   UNL     1     -12.100  13.441  69.399  1.00  0.00    -0.269 C  
BRANCH  27  28
HETATM   28  O   UNL     1     -11.106  14.277  69.981  1.00  0.00    -0.159 OA 
BRANCH  28  29
HETATM   29  C   UNL     1     -10.037  14.514  69.070  1.00  0.00    -0.183 C  
BRANCH  29  30
HETATM   30  C   UNL     1      -9.449  15.888  69.347  1.00  0.00    -0.248 C  
BRANCH  30  31
HETATM   31  O   UNL     1      -8.631  16.272  68.246  1.00  0.00    -0.185 OA 
BRANCH  31  32
HETATM   32  C   UNL     1      -7.292  15.811  68.410  1.00  0.00    -0.117 C  
BRANCH  32  33
HETATM   33  C   UNL     1      -6.456  16.289  67.232  1.00  0.00    -0.188 C  
BRANCH  33  34
HETATM   34  O   UNL     1      -7.273  17.072  66.365  1.00  0.00    -0.250 OA 
BRANCH  34  35
HETATM   35  C   UNL     1      -6.484  17.865  65.482  1.00  0.00    -0.090 C  
BRANCH  35  36
HETATM   36  C   UNL     1      -6.631  19.330  65.871  1.00  0.00    -0.235 C  
BRANCH  36  37
HETATM   37  O   UNL     1      -5.785  19.621  66.984  1.00  0.00    -0.174 OA 
BRANCH  37  38
HETATM   38  C   UNL     1      -6.475  20.417  67.956  1.00  0.00    -0.294 C  
BRANCH  38  39
HETATM   39  C   UNL     1      -7.084  19.484  68.996  1.00  0.00    -0.364 C  
HETATM   40  O   UNL     1      -8.457  19.246  68.689  1.00  0.00    -0.355 OA 
HETATM   41  H   UNL     1      -8.837  18.664  69.337  1.00  0.00     0.000 HD 
ENDBRANCH  38  39
ENDBRANCH  37  38
ENDBRANCH  36  37
ENDBRANCH  35  36
ENDBRANCH  34  35
ENDBRANCH  33  34
ENDBRANCH  32  33
ENDBRANCH  31  32
ENDBRANCH  30  31
ENDBRANCH  29  30
ENDBRANCH  28  29
ENDBRANCH  27  28
ENDBRANCH  26  27
ENDBRANCH  25  26
ENDBRANCH  24  25
ENDBRANCH  23  24
ENDBRANCH  22  23
ENDBRANCH  21  22
ENDBRANCH  20  21
ENDBRANCH  19  20
ENDBRANCH  18  19
ENDBRANCH  17  18
ENDBRANCH  16  17
ENDBRANCH  15  16
ENDBRANCH  14  15
ENDBRANCH  13  14
ENDBRANCH  12  13
ENDBRANCH  11  12
ENDBRANCH  10  11
ENDBRANCH   9  10
ENDBRANCH   8   9
ENDBRANCH   7   8
ENDBRANCH   6   7
ENDBRANCH   5   6
ENDBRANCH   4   5
ENDBRANCH   3   4
ENDBRANCH   2   3
TORSDOF 37
ENDMDL
MODEL      185
REMARK 921   NORMALIZED FREE ENERGY PREDICTED BY IDOCK:   -2.32 KCAL/MOL
REMARK 922        TOTAL FREE ENERGY PREDICTED BY IDOCK:  -10.96 KCAL/MOL
REMARK 923 INTER-LIGAND FREE ENERGY PREDICTED BY IDOCK:   -8.04 KCAL/MOL
REMARK 924 INTRA-LIGAND FREE ENERGY PREDICTED BY IDOCK:   -2.92 KCAL/MOL
REMARK 927      BINDING AFFINITY PREDICTED BY RF-SCORE:    0.00 PKD
ROOT
HETATM    1  C   UNL     1     -11.442  12.024  67.885  1.00  0.00    -0.396 C  
HETATM    2  C   UNL     1     -10.718  11.334  69.028  1.00  0.00    -0.257 C  
ENDROOT
BRANCH   2   3
HETATM    3  C   UNL     1     -11.520  11.430  70.323  1.00  0.00    -0.244 C  
BRANCH   3   4
HETATM    4  C   UNL     1     -12.967  10.991  70.112  1.00  0.00     0.004 C  
BRANCH   4   5
HETATM    5  C   UNL     1     -13.328   9.845  71.053  1.00  0.00    -0.322 C  
BRANCH   5   6
HETATM    6  C   UNL     1     -12.085   9.293  71.741  1.00  0.00    -0.457 C  
BRANCH   6   7
HETATM    7  C   UNL     1     -11.724   7.921  71.182  1.00  0.00    -0.306 C  
BRANCH   7   8
HETATM    8  C   UNL     1     -10.299   7.543  71.566  1.00  0.00    -0.216 C  
BRANCH   8   9
HETATM    9  C   UNL     1      -9.989   7.967  72.998  1.00  0.00    -0.362 C  
BRANCH   9  10
HETATM   10  C   UNL     1      -8.594   7.501  73.395  1.00  0.00    -0.212 C  
BRANCH  10  11
HETATM   11  C   UNL     1      -7.564   7.895  72.347  1.00  0.00    -0.121 C  
BRANCH  11  12
HETATM   12  C   UNL     1      -6.327   7.021  72.468  1.00  0.00    -0.052 C  
BRANCH  12  13
HETATM   13  O   UNL     1      -6.753   5.678  72.663  1.00  0.00    -0.068 OA 
BRANCH  13  14
HETATM   14  C   UNL     1      -6.623   4.930  71.458  1.00  0.00    -0.035 C  
BRANCH  14  15
HETATM   15  C   UNL     1      -5.429   5.446  70.675  1.00  0.00    -0.005 C  
BRANCH  15  16
HETATM   16  O   UNL     1      -5.741   5.371  69.288  1.00  0.00    -0.011 OA 
BRANCH  16  17
HETATM   17  C   UNL     1      -5.282   4.149  68.720  1.00  0.00    -0.011 C  
BRANCH  17  18
HETATM   18  C   UNL     1      -5.761   4.077  67.279  1.00  0.00    -0.022 C  
BRANCH  18  19
HETATM   19  O   UNL     1      -6.992   3.367  67.238  1.00  0.00    -0.055 OA 
BRANCH  19  20
HETATM   20  C   UNL     1      -7.132   2.494  68.361  1.00  0.00    -0.048 C  
BRANCH  20  21
HETATM   21  C   UNL     1      -8.572   2.564  68.854  1.00  0.00    -0.074 C  
BRANCH  21  22
HETATM   22  O   UNL     1      -9.226   3.659  68.207  1.00  0.00    -0.136 OA 
BRANCH  22  23
HETATM   23  C   UNL     1      -9.760   4.580  69.151  1.00  0.00    -0.179 C  
BRANCH  23  24
HETATM   24  C   UNL     1      -9.814   5.962  68.517  1.00  0.00    -0.135 C  
BRANCH  24  25
HETATM   25  O   UNL     1     -10.729   5.929  67.426  1.00  0.00    -0.253 OA 
BRANCH  25  26
HETATM   26  C   UNL     1     -11.139   7.240  67.057  1.00  0.00     0.004 C  
BRANCH  26  27
HETATM   27  C   UNL     1      -9.912   8.137  66.989  1.00  0.00    -0.259 C  
BRANCH  27  28
HETATM   28  O   UNL     1     -10.050   9.032  65.890  1.00  0.00    -0.240 OA 
BRANCH  28  29
HETATM   29  C   UNL     1      -8.977   9.968  65.854  1.00  0.00    -0.154 C  
BRANCH  29  30
HETATM   30  C   UNL     1      -8.782  10.439  64.422  1.00  0.00    -0.198 C  
BRANCH  30  31
HETATM   31  O   UNL     1     -10.030  10.376  63.739  1.00  0.00    -0.301 OA 
BRANCH  31  32
HETATM   32  C   UNL     1     -10.581  11.676  63.545  1.00  0.00    -0.435 C  
BRANCH  32  33
HETATM   33  C   UNL     1     -11.969  11.724  64.168  1.00  0.00    -0.235 C  
BRANCH  33  34
HETATM   34  O   UNL     1     -12.469  13.056  64.097  1.00  0.00    -0.566 OA 
BRANCH  34  35
HETATM   35  C   UNL     1     -11.475  14.006  64.472  1.00  0.00    -0.370 C  
BRANCH  35  36
HETATM   36  C   UNL     1     -12.019  14.870  65.602  1.00  0.00    -0.068 C  
BRANCH  36  37
HETATM   37  O   UNL     1     -10.937  15.496  66.293  1.00  0.00    -0.314 OA 
BRANCH  37  38
HETATM   38  C   UNL     1     -10.587  16.740  65.674  1.00  0.00    -0.246 C  
BRANCH  38  39
HETATM   39  C   UNL     1      -9.739  17.542  66.655  1.00  0.00    -0.299 C  
HETATM   40  O   UNL     1     -10.524  18.580  67.240  1.00  0.00    -0.384 OA 
HETATM   41  H   UNL     1      -9.996  19.079  67.851  1.00  0.00     0.000 HD 
ENDBRANCH  38  39
ENDBRANCH  37  38
ENDBRANCH  36  37
ENDBRANCH  35  36
ENDBRANCH  34  35
ENDBRANCH  33  34
ENDBRANCH  32  33
ENDBRANCH  31  32
ENDBRANCH  30  31
ENDBRANCH  29  30
ENDBRANCH  28  29
ENDBRANCH  27  28
ENDBRANCH  26  27
ENDBRANCH  25  26
ENDBRANCH  24  25
ENDBRANCH  23  24
ENDBRANCH  22  23
ENDBRANCH  21  22
ENDBRANCH  20  21
ENDBRANCH  19  20
ENDBRANCH  18  19
ENDBRANCH  17  18
ENDBRANCH  16  17
ENDBRANCH  15  16
ENDBRANCH  14  15
ENDBRANCH  13  14
ENDBRANCH  12  13
ENDBRANCH  11  12
ENDBRANCH  10  11
ENDBRANCH   9  10
ENDBRANCH   8   9
ENDBRANCH   7   8
ENDBRANCH   6   7
ENDBRANCH   5   6
ENDBRANCH   4   5
ENDBRANCH   3   4
ENDBRANCH   2   3
TORSDOF 37
ENDMDL
MODEL      186
REMARK 921   NORMALIZED FREE ENERGY PREDICTED BY IDOCK:   -2.31 KCAL/MOL
REMARK 922        TOTAL FREE ENERGY PREDICTED BY IDOCK:  -10.93 KCAL/MOL
REMARK 923 INTER-LIGAND FREE ENERGY PREDICTED BY IDOCK:   -8.78 KCAL/MOL
REMARK 924 INTRA-LIGAND FREE ENERGY PREDICTED BY IDOCK:   -2.15 KCAL/MOL
REMARK 927      BINDING AFFINITY PREDICTED BY RF-SCORE:    0.00 PKD
ROOT
HETATM    1  C   UNL     1     -10.167  18.353  69.040  1.00  0.00    -0.199 C  
HETATM    2  C   UNL     1      -9.485  19.521  68.349  1.00  0.00    -0.449 C  
ENDROOT
BRANCH   2   3
HETATM    3  C   UNL     1      -8.016  19.613  68.751  1.00  0.00    -0.314 C  
BRANCH   3   4
HETATM    4  C   UNL     1      -7.146  18.706  67.883  1.00  0.00    -0.245 C  
BRANCH   4   5
HETATM    5  C   UNL     1      -6.749  17.445  68.646  1.00  0.00    -0.201 C  
BRANCH   5   6
HETATM    6  C   UNL     1      -6.882  16.210  67.764  1.00  0.00    -0.165 C  
BRANCH   6   7
HETATM    7  C   UNL     1      -8.350  15.878  67.517  1.00  0.00    -0.180 C  
BRANCH   7   8
HETATM    8  C   UNL     1      -8.722  16.141  66.063  1.00  0.00    -0.282 C  
BRANCH   8   9
HETATM    9  C   UNL     1     -10.138  16.699  65.955  1.00  0.00    -0.359 C  
BRANCH   9  10
HETATM   10  C   UNL     1     -11.127  15.757  66.629  1.00  0.00    -0.099 C  
BRANCH  10  11
HETATM   11  C   UNL     1     -11.190  14.418  65.910  1.00  0.00    -0.324 C  
BRANCH  11  12
HETATM   12  C   UNL     1     -12.596  13.846  65.981  1.00  0.00    -0.423 C  
BRANCH  12  13
HETATM   13  O   UNL     1     -12.528  12.465  65.646  1.00  0.00    -0.640 OA 
BRANCH  13  14
HETATM   14  C   UNL     1     -11.270  11.917  66.025  1.00  0.00    -0.324 C  
BRANCH  14  15
HETATM   15  C   UNL     1     -11.425  11.168  67.336  1.00  0.00    -0.180 C  
BRANCH  15  16
HETATM   16  O   UNL     1     -10.815  11.941  68.364  1.00  0.00    -0.206 OA 
BRANCH  16  17
HETATM   17  C   UNL     1     -11.732  12.219  69.416  1.00  0.00    -0.330 C  
BRANCH  17  18
HETATM   18  C   UNL     1     -12.282  10.902  69.938  1.00  0.00    -0.336 C  
BRANCH  18  19
HETATM   19  O   UNL     1     -12.060  10.834  71.341  1.00  0.00    -0.307 OA 
BRANCH  19  20
HETATM   20  C   UNL     1     -13.044  10.025  71.989  1.00  0.00    -0.441 C  
BRANCH  20  21
HETATM   21  C   UNL     1     -12.596   8.570  71.923  1.00  0.00    -0.354 C  
BRANCH  21  22
HETATM   22  O   UNL     1     -11.235   8.489  72.356  1.00  0.00    -0.359 OA 
BRANCH  22  23
HETATM   23  C   UNL     1     -11.013   7.345  73.172  1.00  0.00    -0.359 C  
BRANCH  23  24
HETATM   24  C   UNL     1      -9.689   6.708  72.780  1.00  0.00    -0.153 C  
BRANCH  24  25
HETATM   25  O   UNL     1      -9.827   5.291  72.840  1.00  0.00    -0.153 OA 
BRANCH  25  26
HETATM   26  C   UNL     1     -10.390   4.777  71.640  1.00  0.00    -0.145 C  
BRANCH  26  27
HETATM   27  C   UNL     1      -9.712   5.447  70.454  1.00  0.00    -0.192 C  
BRANCH  27  28
HETATM   28  O   UNL     1     -10.696   5.773  69.478  1.00  0.00    -0.291 OA 
BRANCH  28  29
HETATM   29  C   UNL     1     -10.189   6.706  68.529  1.00  0.00    -0.171 C  
BRANCH  29  30
HETATM   30  C   UNL     1      -8.990   6.092  67.825  1.00  0.00    -0.111 C  
BRANCH  30  31
HETATM   31  O   UNL     1      -8.971   6.533  66.472  1.00  0.00    -0.134 OA 
BRANCH  31  32
HETATM   32  C   UNL     1      -9.462   5.525  65.592  1.00  0.00     0.002 C  
BRANCH  32  33
HETATM   33  C   UNL     1      -8.661   4.249  65.805  1.00  0.00    -0.119 C  
BRANCH  33  34
HETATM   34  O   UNL     1      -7.286   4.582  65.971  1.00  0.00    -0.073 OA 
BRANCH  34  35
HETATM   35  C   UNL     1      -6.514   3.439  66.331  1.00  0.00    -0.036 C  
BRANCH  35  36
HETATM   36  C   UNL     1      -6.976   2.941  67.694  1.00  0.00    -0.049 C  
BRANCH  36  37
HETATM   37  O   UNL     1      -5.852   2.473  68.442  1.00  0.00    -0.022 OA 
BRANCH  37  38
HETATM   38  C   UNL     1      -5.181   3.562  69.089  1.00  0.00    -0.011 C  
BRANCH  38  39
HETATM   39  C   UNL     1      -6.182   4.275  69.990  1.00  0.00    -0.026 C  
HETATM   40  O   UNL     1      -5.821   5.649  70.126  1.00  0.00    -0.021 OA 
HETATM   41  H   UNL     1      -6.445   6.093  70.687  1.00  0.00     0.000 HD 
ENDBRANCH  38  39
ENDBRANCH  37  38
ENDBRANCH  36  37
ENDBRANCH  35  36
ENDBRANCH  34  35
ENDBRANCH  33  34
ENDBRANCH  32  33
ENDBRANCH  31  32
ENDBRANCH  30  31
ENDBRANCH  29  30
ENDBRANCH  28  29
ENDBRANCH  27  28
ENDBRANCH  26  27
ENDBRANCH  25  26
ENDBRANCH  24  25
ENDBRANCH  23  24
ENDBRANCH  22  23
ENDBRANCH  21  22
ENDBRANCH  20  21
ENDBRANCH  19  20
ENDBRANCH  18  19
ENDBRANCH  17  18
ENDBRANCH  16  17
ENDBRANCH  15  16
ENDBRANCH  14  15
ENDBRANCH  13  14
ENDBRANCH  12  13
ENDBRANCH  11  12
ENDBRANCH  10  11
ENDBRANCH   9  10
ENDBRANCH   8   9
ENDBRANCH   7   8
ENDBRANCH   6   7
ENDBRANCH   5   6
ENDBRANCH   4   5
ENDBRANCH   3   4
ENDBRANCH   2   3
TORSDOF 37
ENDMDL
MODEL      187
REMARK 921   NORMALIZED FREE ENERGY PREDICTED BY IDOCK:   -2.30 KCAL/MOL
REMARK 922        TOTAL FREE ENERGY PREDICTED BY IDOCK:  -10.90 KCAL/MOL
REMARK 923 INTER-LIGAND FREE ENERGY PREDICTED BY IDOCK:   -9.09 KCAL/MOL
REMARK 924 INTRA-LIGAND FREE ENERGY PREDICTED BY IDOCK:   -1.81 KCAL/MOL
REMARK 927      BINDING AFFINITY PREDICTED BY RF-SCORE:    0.00 PKD
ROOT
HETATM    1  C   UNL     1      -6.571  19.414  69.489  1.00  0.00    -0.346 C  
HETATM    2  C   UNL     1      -5.487  18.441  69.059  1.00  0.00    -0.200 C  
ENDROOT
BRANCH   2   3
HETATM    3  C   UNL     1      -5.995  17.002  69.099  1.00  0.00    -0.185 C  
BRANCH   3   4
HETATM    4  C   UNL     1      -5.856  16.328  67.736  1.00  0.00    -0.158 C  
BRANCH   4   5
HETATM    5  C   UNL     1      -7.220  15.887  67.209  1.00  0.00    -0.251 C  
BRANCH   5   6
HETATM    6  C   UNL     1      -7.909  17.025  66.465  1.00  0.00    -0.331 C  
BRANCH   6   7
HETATM    7  C   UNL     1      -9.317  17.249  67.007  1.00  0.00    -0.257 C  
BRANCH   7   8
HETATM    8  C   UNL     1     -10.361  16.839  65.976  1.00  0.00    -0.346 C  
BRANCH   8   9
HETATM    9  C   UNL     1     -10.150  15.396  65.530  1.00  0.00    -0.405 C  
BRANCH   9  10
HETATM   10  C   UNL     1     -10.436  14.442  66.682  1.00  0.00    -0.274 C  
BRANCH  10  11
HETATM   11  C   UNL     1     -11.929  14.198  66.837  1.00  0.00    -0.479 C  
BRANCH  11  12
HETATM   12  C   UNL     1     -12.538  13.780  65.510  1.00  0.00    -0.512 C  
BRANCH  12  13
HETATM   13  O   UNL     1     -12.173  12.427  65.263  1.00  0.00    -0.495 OA 
BRANCH  13  14
HETATM   14  C   UNL     1     -11.933  12.217  63.875  1.00  0.00    -0.491 C  
BRANCH  14  15
HETATM   15  C   UNL     1     -10.437  12.102  63.638  1.00  0.00    -0.460 C  
BRANCH  15  16
HETATM   16  O   UNL     1      -9.964  10.953  64.331  1.00  0.00    -0.267 OA 
BRANCH  16  17
HETATM   17  C   UNL     1      -9.572   9.928  63.424  1.00  0.00     0.088 C  
BRANCH  17  18
HETATM   18  C   UNL     1      -8.090  10.089  63.126  1.00  0.00    -0.156 C  
BRANCH  18  19
HETATM   19  O   UNL     1      -7.452   8.826  63.267  1.00  0.00    -0.098 OA 
BRANCH  19  20
HETATM   20  C   UNL     1      -7.695   8.257  64.555  1.00  0.00    -0.123 C  
BRANCH  20  21
HETATM   21  C   UNL     1      -8.444   6.942  64.372  1.00  0.00     0.235 C  
BRANCH  21  22
HETATM   22  O   UNL     1      -7.581   5.866  64.750  1.00  0.00    -0.077 OA 
BRANCH  22  23
HETATM   23  C   UNL     1      -6.764   6.218  65.860  1.00  0.00    -0.049 C  
BRANCH  23  24
HETATM   24  C   UNL     1      -7.472   5.808  67.143  1.00  0.00    -0.081 C  
BRANCH  24  25
HETATM   25  O   UNL     1      -8.359   4.732  66.852  1.00  0.00    -0.107 OA 
BRANCH  25  26
HETATM   26  C   UNL     1      -9.494   4.753  67.709  1.00  0.00    -0.146 C  
BRANCH  26  27
HETATM   27  C   UNL     1     -10.658   5.392  66.965  1.00  0.00    -0.226 C  
BRANCH  27  28
HETATM   28  O   UNL     1     -11.119   6.520  67.702  1.00  0.00    -0.325 OA 
BRANCH  28  29
HETATM   29  C   UNL     1     -10.237   7.627  67.551  1.00  0.00    -0.227 C  
BRANCH  29  30
HETATM   30  C   UNL     1      -9.978   8.241  68.918  1.00  0.00    -0.186 C  
BRANCH  30  31
HETATM   31  O   UNL     1     -10.792   7.583  69.883  1.00  0.00    -0.248 OA 
BRANCH  31  32
HETATM   32  C   UNL     1     -11.555   8.518  70.641  1.00  0.00    -0.194 C  
BRANCH  32  33
HETATM   33  C   UNL     1     -12.524   7.758  71.535  1.00  0.00    -0.324 C  
BRANCH  33  34
HETATM   34  O   UNL     1     -11.827   7.278  72.681  1.00  0.00    -0.214 OA 
BRANCH  34  35
HETATM   35  C   UNL     1     -11.417   5.924  72.511  1.00  0.00    -0.298 C  
BRANCH  35  36
HETATM   36  C   UNL     1     -10.616   5.494  73.732  1.00  0.00    -0.281 C  
BRANCH  36  37
HETATM   37  O   UNL     1      -9.560   6.426  73.968  1.00  0.00    -0.166 OA 
BRANCH  37  38
HETATM   38  C   UNL     1      -8.845   6.706  72.757  1.00  0.00    -0.122 C  
BRANCH  38  39
HETATM   39  C   UNL     1      -8.246   8.103  72.866  1.00  0.00    -0.175 C  
HETATM   40  O   UNL     1      -7.193   8.106  73.829  1.00  0.00    -0.130 OA 
HETATM   41  H   UNL     1      -6.819   8.977  73.896  1.00  0.00     0.000 HD 
ENDBRANCH  38  39
ENDBRANCH  37  38
ENDBRANCH  36  37
ENDBRANCH  35  36
ENDBRANCH  34  35
ENDBRANCH  33  34
ENDBRANCH  32  33
ENDBRANCH  31  32
ENDBRANCH  30  31
ENDBRANCH  29  30
ENDBRANCH  28  29
ENDBRANCH  27  28
ENDBRANCH  26  27
ENDBRANCH  25  26
ENDBRANCH  24  25
ENDBRANCH  23  24
ENDBRANCH  22  23
ENDBRANCH  21  22
ENDBRANCH  20  21
ENDBRANCH  19  20
ENDBRANCH  18  19
ENDBRANCH  17  18
ENDBRANCH  16  17
ENDBRANCH  15  16
ENDBRANCH  14  15
ENDBRANCH  13  14
ENDBRANCH  12  13
ENDBRANCH  11  12
ENDBRANCH  10  11
ENDBRANCH   9  10
ENDBRANCH   8   9
ENDBRANCH   7   8
ENDBRANCH   6   7
ENDBRANCH   5   6
ENDBRANCH   4   5
ENDBRANCH   3   4
ENDBRANCH   2   3
TORSDOF 37
ENDMDL
MODEL      188
REMARK 921   NORMALIZED FREE ENERGY PREDICTED BY IDOCK:   -2.26 KCAL/MOL
REMARK 922        TOTAL FREE ENERGY PREDICTED BY IDOCK:  -10.76 KCAL/MOL
REMARK 923 INTER-LIGAND FREE ENERGY PREDICTED BY IDOCK:   -8.55 KCAL/MOL
REMARK 924 INTRA-LIGAND FREE ENERGY PREDICTED BY IDOCK:   -2.21 KCAL/MOL
REMARK 927      BINDING AFFINITY PREDICTED BY RF-SCORE:    0.00 PKD
ROOT
HETATM    1  C   UNL     1      -5.945   3.198  63.645  1.00  0.00    -0.014 C  
HETATM    2  C   UNL     1      -6.184   3.448  65.124  1.00  0.00    -0.024 C  
ENDROOT
BRANCH   2   3
HETATM    3  C   UNL     1      -6.748   2.205  65.807  1.00  0.00    -0.035 C  
BRANCH   3   4
HETATM    4  C   UNL     1      -8.099   2.496  66.457  1.00  0.00    -0.083 C  
BRANCH   4   5
HETATM    5  C   UNL     1      -8.180   3.951  66.910  1.00  0.00    -0.100 C  
BRANCH   5   6
HETATM    6  C   UNL     1      -8.051   4.059  68.425  1.00  0.00    -0.078 C  
BRANCH   6   7
HETATM    7  C   UNL     1      -7.067   5.160  68.806  1.00  0.00    -0.057 C  
BRANCH   7   8
HETATM    8  C   UNL     1      -7.607   5.986  69.966  1.00  0.00    -0.087 C  
BRANCH   8   9
HETATM    9  C   UNL     1      -7.905   5.101  71.172  1.00  0.00    -0.101 C  
BRANCH   9  10
HETATM   10  C   UNL     1      -7.475   5.800  72.456  1.00  0.00    -0.096 C  
BRANCH  10  11
HETATM   11  C   UNL     1      -8.275   7.074  72.684  1.00  0.00    -0.117 C  
BRANCH  11  12
HETATM   12  C   UNL     1      -8.885   7.073  74.075  1.00  0.00    -0.179 C  
BRANCH  12  13
HETATM   13  O   UNL     1     -10.300   7.034  73.937  1.00  0.00    -0.363 OA 
BRANCH  13  14
HETATM   14  C   UNL     1     -10.771   5.691  73.964  1.00  0.00    -0.143 C  
BRANCH  14  15
HETATM   15  C   UNL     1     -11.298   5.317  72.590  1.00  0.00    -0.231 C  
BRANCH  15  16
HETATM   16  O   UNL     1     -11.777   6.501  71.960  1.00  0.00    -0.295 OA 
BRANCH  16  17
HETATM   17  C   UNL     1     -11.559   6.462  70.554  1.00  0.00    -0.358 C  
BRANCH  17  18
HETATM   18  C   UNL     1     -11.000   7.806  70.116  1.00  0.00    -0.241 C  
BRANCH  18  19
HETATM   19  O   UNL     1     -10.921   8.663  71.249  1.00  0.00    -0.238 OA 
BRANCH  19  20
HETATM   20  C   UNL     1     -10.945  10.040  70.867  1.00  0.00    -0.267 C  
BRANCH  20  21
HETATM   21  C   UNL     1     -12.257  10.321  70.146  1.00  0.00    -0.176 C  
BRANCH  21  22
HETATM   22  O   UNL     1     -13.318  10.319  71.106  1.00  0.00    -0.361 OA 
BRANCH  22  23
HETATM   23  C   UNL     1     -13.077  11.252  72.152  1.00  0.00    -0.167 C  
BRANCH  23  24
HETATM   24  C   UNL     1     -13.264  12.661  71.610  1.00  0.00    -0.298 C  
BRANCH  24  25
HETATM   25  O   UNL     1     -13.334  13.568  72.707  1.00  0.00    -0.548 OA 
BRANCH  25  26
HETATM   26  C   UNL     1     -14.101  14.719  72.376  1.00  0.00    -0.448 C  
BRANCH  26  27
HETATM   27  C   UNL     1     -13.420  15.447  71.226  1.00  0.00    -0.519 C  
BRANCH  27  28
HETATM   28  O   UNL     1     -12.020  15.198  71.280  1.00  0.00    -0.293 OA 
BRANCH  28  29
HETATM   29  C   UNL     1     -11.295  16.180  70.548  1.00  0.00    -0.373 C  
BRANCH  29  30
HETATM   30  C   UNL     1     -11.191  15.737  69.097  1.00  0.00    -0.322 C  
BRANCH  30  31
HETATM   31  O   UNL     1     -10.794  14.370  69.058  1.00  0.00    -0.241 OA 
BRANCH  31  32
HETATM   32  C   UNL     1     -11.777  13.564  68.413  1.00  0.00    -0.358 C  
BRANCH  32  33
HETATM   33  C   UNL     1     -11.086  12.641  67.420  1.00  0.00    -0.273 C  
BRANCH  33  34
HETATM   34  O   UNL     1      -9.696  12.578  67.728  1.00  0.00    -0.191 OA 
BRANCH  34  35
HETATM   35  C   UNL     1      -8.915  12.342  66.560  1.00  0.00    -0.161 C  
BRANCH  35  36
HETATM   36  C   UNL     1      -7.511  11.930  66.981  1.00  0.00    -0.126 C  
BRANCH  36  37
HETATM   37  O   UNL     1      -7.586  10.877  67.943  1.00  0.00    -0.092 OA 
BRANCH  37  38
HETATM   38  C   UNL     1      -6.327  10.697  68.604  1.00  0.00    -0.046 C  
BRANCH  38  39
HETATM   39  C   UNL     1      -5.812  12.066  69.035  1.00  0.00    -0.064 C  
HETATM   40  O   UNL     1      -6.198  12.327  70.384  1.00  0.00    -0.384 OA 
HETATM   41  H   UNL     1      -5.877  13.180  70.652  1.00  0.00     0.000 HD 
ENDBRANCH  38  39
ENDBRANCH  37  38
ENDBRANCH  36  37
ENDBRANCH  35  36
ENDBRANCH  34  35
ENDBRANCH  33  34
ENDBRANCH  32  33
ENDBRANCH  31  32
ENDBRANCH  30  31
ENDBRANCH  29  30
ENDBRANCH  28  29
ENDBRANCH  27  28
ENDBRANCH  26  27
ENDBRANCH  25  26
ENDBRANCH  24  25
ENDBRANCH  23  24
ENDBRANCH  22  23
ENDBRANCH  21  22
ENDBRANCH  20  21
ENDBRANCH  19  20
ENDBRANCH  18  19
ENDBRANCH  17  18
ENDBRANCH  16  17
ENDBRANCH  15  16
ENDBRANCH  14  15
ENDBRANCH  13  14
ENDBRANCH  12  13
ENDBRANCH  11  12
ENDBRANCH  10  11
ENDBRANCH   9  10
ENDBRANCH   8   9
ENDBRANCH   7   8
ENDBRANCH   6   7
ENDBRANCH   5   6
ENDBRANCH   4   5
ENDBRANCH   3   4
ENDBRANCH   2   3
TORSDOF 37
ENDMDL
MODEL      189
REMARK 921   NORMALIZED FREE ENERGY PREDICTED BY IDOCK:   -2.23 KCAL/MOL
REMARK 922        TOTAL FREE ENERGY PREDICTED BY IDOCK:  -10.68 KCAL/MOL
REMARK 923 INTER-LIGAND FREE ENERGY PREDICTED BY IDOCK:   -8.54 KCAL/MOL
REMARK 924 INTRA-LIGAND FREE ENERGY PREDICTED BY IDOCK:   -2.14 KCAL/MOL
REMARK 927      BINDING AFFINITY PREDICTED BY RF-SCORE:    0.00 PKD
ROOT
HETATM    1  C   UNL     1      -9.596   3.134  72.443  1.00  0.00    -0.195 C  
HETATM    2  C   UNL     1      -9.115   1.906  71.690  1.00  0.00    -0.143 C  
ENDROOT
BRANCH   2   3
HETATM    3  C   UNL     1      -8.930   2.209  70.206  1.00  0.00    -0.149 C  
BRANCH   3   4
HETATM    4  C   UNL     1      -9.131   3.695  69.916  1.00  0.00    -0.192 C  
BRANCH   4   5
HETATM    5  C   UNL     1      -7.887   4.292  69.262  1.00  0.00    -0.057 C  
BRANCH   5   6
HETATM    6  C   UNL     1      -7.845   3.966  67.774  1.00  0.00    -0.078 C  
BRANCH   6   7
HETATM    7  C   UNL     1      -8.806   4.860  66.998  1.00  0.00    -0.106 C  
BRANCH   7   8
HETATM    8  C   UNL     1      -8.543   6.328  67.307  1.00  0.00    -0.107 C  
BRANCH   8   9
HETATM    9  C   UNL     1      -9.825   7.146  67.203  1.00  0.00    -0.235 C  
BRANCH   9  10
HETATM   10  C   UNL     1     -10.886   6.582  68.139  1.00  0.00    -0.370 C  
BRANCH  10  11
HETATM   11  C   UNL     1     -10.629   7.000  69.579  1.00  0.00    -0.253 C  
BRANCH  11  12
HETATM   12  C   UNL     1     -11.718   6.457  70.489  1.00  0.00    -0.317 C  
BRANCH  12  13
HETATM   13  O   UNL     1     -11.248   6.525  71.830  1.00  0.00    -0.245 OA 
BRANCH  13  14
HETATM   14  C   UNL     1      -9.876   6.904  71.863  1.00  0.00    -0.164 C  
BRANCH  14  15
HETATM   15  C   UNL     1      -9.660   7.902  72.986  1.00  0.00    -0.276 C  
BRANCH  15  16
HETATM   16  O   UNL     1      -8.553   8.727  72.641  1.00  0.00    -0.411 OA 
BRANCH  16  17
HETATM   17  C   UNL     1      -8.715   9.296  71.347  1.00  0.00     0.132 C  
BRANCH  17  18
HETATM   18  C   UNL     1      -7.366   9.294  70.646  1.00  0.00    -0.123 C  
BRANCH  18  19
HETATM   19  O   UNL     1      -7.326  10.375  69.723  1.00  0.00    -0.138 OA 
BRANCH  19  20
HETATM   20  C   UNL     1      -8.037  10.066  68.522  1.00  0.00    -0.103 C  
BRANCH  20  21
HETATM   21  C   UNL     1      -8.613  11.356  67.953  1.00  0.00    -0.140 C  
BRANCH  21  22
HETATM   22  O   UNL     1      -9.553  11.025  66.926  1.00  0.00    -0.178 OA 
BRANCH  22  23
HETATM   23  C   UNL     1      -8.998  11.215  65.630  1.00  0.00    -0.184 C  
BRANCH  23  24
HETATM   24  C   UNL     1     -10.061  10.903  64.588  1.00  0.00    -0.328 C  
BRANCH  24  25
HETATM   25  O   UNL     1     -10.038  11.921  63.591  1.00  0.00    -0.365 OA 
BRANCH  25  26
HETATM   26  C   UNL     1     -11.074  12.872  63.799  1.00  0.00    -0.379 C  
BRANCH  26  27
HETATM   27  C   UNL     1     -12.391  12.130  63.978  1.00  0.00    -0.451 C  
BRANCH  27  28
HETATM   28  O   UNL     1     -13.108  12.709  65.064  1.00  0.00    -0.808 OA 
BRANCH  28  29
HETATM   29  C   UNL     1     -12.349  13.739  65.689  1.00  0.00    -0.482 C  
BRANCH  29  30
HETATM   30  C   UNL     1     -12.321  13.490  67.189  1.00  0.00    -0.173 C  
BRANCH  30  31
HETATM   31  O   UNL     1     -11.785  14.637  67.839  1.00  0.00    -0.339 OA 
BRANCH  31  32
HETATM   32  C   UNL     1     -10.360  14.639  67.794  1.00  0.00    -0.237 C  
BRANCH  32  33
HETATM   33  C   UNL     1      -9.835  15.671  68.781  1.00  0.00    -0.213 C  
BRANCH  33  34
HETATM   34  O   UNL     1     -10.834  16.664  68.996  1.00  0.00    -0.312 OA 
BRANCH  34  35
HETATM   35  C   UNL     1     -11.678  16.325  70.094  1.00  0.00    -0.050 C  
BRANCH  35  36
HETATM   36  C   UNL     1     -10.920  16.568  71.392  1.00  0.00     0.617 C  
BRANCH  36  37
HETATM   37  O   UNL     1     -10.677  15.323  72.048  1.00  0.00     0.037 OA 
BRANCH  37  38
HETATM   38  C   UNL     1     -11.839  14.485  72.000  1.00  0.00    -0.032 C  
BRANCH  38  39
HETATM   39  C   UNL     1     -12.668  14.745  73.253  1.00  0.00    -0.482 C  
HETATM   40  O   UNL     1     -13.006  16.129  73.333  1.00  0.00    -0.515 OA 
HETATM   41  H   UNL     1     -13.523  16.291  74.113  1.00  0.00     0.000 HD 
ENDBRANCH  38  39
ENDBRANCH  37  38
ENDBRANCH  36  37
ENDBRANCH  35  36
ENDBRANCH  34  35
ENDBRANCH  33  34
ENDBRANCH  32  33
ENDBRANCH  31  32
ENDBRANCH  30  31
ENDBRANCH  29  30
ENDBRANCH  28  29
ENDBRANCH  27  28
ENDBRANCH  26  27
ENDBRANCH  25  26
ENDBRANCH  24  25
ENDBRANCH  23  24
ENDBRANCH  22  23
ENDBRANCH  21  22
ENDBRANCH  20  21
ENDBRANCH  19  20
ENDBRANCH  18  19
ENDBRANCH  17  18
ENDBRANCH  16  17
ENDBRANCH  15  16
ENDBRANCH  14  15
ENDBRANCH  13  14
ENDBRANCH  12  13
ENDBRANCH  11  12
ENDBRANCH  10  11
ENDBRANCH   9  10
ENDBRANCH   8   9
ENDBRANCH   7   8
ENDBRANCH   6   7
ENDBRANCH   5   6
ENDBRANCH   4   5
ENDBRANCH   3   4
ENDBRANCH   2   3
TORSDOF 37
ENDMDL
MODEL      190
REMARK 921   NORMALIZED FREE ENERGY PREDICTED BY IDOCK:   -2.22 KCAL/MOL
REMARK 922        TOTAL FREE ENERGY PREDICTED BY IDOCK:  -10.66 KCAL/MOL
REMARK 923 INTER-LIGAND FREE ENERGY PREDICTED BY IDOCK:   -8.89 KCAL/MOL
REMARK 924 INTRA-LIGAND FREE ENERGY PREDICTED BY IDOCK:   -1.77 KCAL/MOL
REMARK 927      BINDING AFFINITY PREDICTED BY RF-SCORE:    0.00 PKD
ROOT
HETATM    1  C   UNL     1     -10.502   3.176  72.309  1.00  0.00    -0.027 C  
HETATM    2  C   UNL     1      -9.288   4.035  72.620  1.00  0.00    -0.153 C  
ENDROOT
BRANCH   2   3
HETATM    3  C   UNL     1      -9.052   4.127  74.125  1.00  0.00    -0.097 C  
BRANCH   3   4
HETATM    4  C   UNL     1      -8.847   5.574  74.566  1.00  0.00    -0.117 C  
BRANCH   4   5
HETATM    5  C   UNL     1     -10.072   6.421  74.228  1.00  0.00    -0.365 C  
BRANCH   5   6
HETATM    6  C   UNL     1      -9.659   7.753  73.612  1.00  0.00    -0.280 C  
BRANCH   6   7
HETATM    7  C   UNL     1      -9.491   7.621  72.102  1.00  0.00    -0.201 C  
BRANCH   7   8
HETATM    8  C   UNL     1     -10.482   8.518  71.372  1.00  0.00    -0.305 C  
BRANCH   8   9
HETATM    9  C   UNL     1      -9.886   9.040  70.068  1.00  0.00    -0.203 C  
BRANCH   9  10
HETATM   10  C   UNL     1     -10.402  10.444  69.778  1.00  0.00    -0.252 C  
BRANCH  10  11
HETATM   11  C   UNL     1     -11.860  10.417  69.346  1.00  0.00    -0.189 C  
BRANCH  11  12
HETATM   12  C   UNL     1     -12.772  10.507  70.557  1.00  0.00    -0.305 C  
BRANCH  12  13
HETATM   13  O   UNL     1     -12.225  11.467  71.453  1.00  0.00    -0.191 OA 
BRANCH  13  14
HETATM   14  C   UNL     1     -13.262  12.179  72.120  1.00  0.00    -0.333 C  
BRANCH  14  15
HETATM   15  C   UNL     1     -12.774  13.579  72.451  1.00  0.00    -0.064 C  
BRANCH  15  16
HETATM   16  O   UNL     1     -13.130  14.440  71.375  1.00  0.00    -0.316 OA 
BRANCH  16  17
HETATM   17  C   UNL     1     -12.903  15.805  71.708  1.00  0.00    -0.450 C  
BRANCH  17  18
HETATM   18  C   UNL     1     -11.414  16.089  71.586  1.00  0.00    -0.362 C  
BRANCH  18  19
HETATM   19  O   UNL     1     -10.916  15.441  70.422  1.00  0.00    -0.290 OA 
BRANCH  19  20
HETATM   20  C   UNL     1     -11.310  16.125  69.231  1.00  0.00    -0.328 C  
BRANCH  20  21
HETATM   21  C   UNL     1     -10.286  17.214  68.934  1.00  0.00    -0.348 C  
BRANCH  21  22
HETATM   22  O   UNL     1     -10.787  18.039  67.879  1.00  0.00    -0.367 OA 
BRANCH  22  23
HETATM   23  C   UNL     1     -10.114  19.291  67.831  1.00  0.00    -0.395 C  
BRANCH  23  24
HETATM   24  C   UNL     1      -8.616  19.050  67.938  1.00  0.00    -0.301 C  
BRANCH  24  25
HETATM   25  O   UNL     1      -8.119  19.755  69.072  1.00  0.00    -0.260 OA 
BRANCH  25  26
HETATM   26  C   UNL     1      -6.862  19.239  69.491  1.00  0.00    -0.235 C  
BRANCH  26  27
HETATM   27  C   UNL     1      -6.298  18.363  68.383  1.00  0.00    -0.201 C  
BRANCH  27  28
HETATM   28  O   UNL     1      -5.408  17.407  68.951  1.00  0.00    -0.149 OA 
BRANCH  28  29
HETATM   29  C   UNL     1      -5.710  16.092  68.497  1.00  0.00    -0.106 C  
BRANCH  29  30
HETATM   30  C   UNL     1      -5.852  15.175  69.701  1.00  0.00    -0.112 C  
BRANCH  30  31
HETATM   31  O   UNL     1      -7.019  14.376  69.540  1.00  0.00    -0.144 OA 
BRANCH  31  32
HETATM   32  C   UNL     1      -7.245  14.060  68.169  1.00  0.00    -0.129 C  
BRANCH  32  33
HETATM   33  C   UNL     1      -7.347  12.549  68.020  1.00  0.00    -0.111 C  
BRANCH  33  34
HETATM   34  O   UNL     1      -8.201  12.242  66.922  1.00  0.00    -0.172 OA 
BRANCH  34  35
HETATM   35  C   UNL     1      -8.172  10.851  66.612  1.00  0.00    -0.145 C  
BRANCH  35  36
HETATM   36  C   UNL     1      -8.938  10.618  65.317  1.00  0.00    -0.190 C  
BRANCH  36  37
HETATM   37  O   UNL     1      -9.488   9.300  65.313  1.00  0.00    -0.245 OA 
BRANCH  37  38
HETATM   38  C   UNL     1      -9.345   8.683  66.599  1.00  0.00    -0.192 C  
BRANCH  38  39
HETATM   39  C   UNL     1      -8.601   7.365  66.418  1.00  0.00    -0.134 C  
HETATM   40  O   UNL     1      -8.382   6.752  67.688  1.00  0.00    -0.121 OA 
HETATM   41  H   UNL     1      -7.919   5.931  67.575  1.00  0.00     0.000 HD 
ENDBRANCH  38  39
ENDBRANCH  37  38
ENDBRANCH  36  37
ENDBRANCH  35  36
ENDBRANCH  34  35
ENDBRANCH  33  34
ENDBRANCH  32  33
ENDBRANCH  31  32
ENDBRANCH  30  31
ENDBRANCH  29  30
ENDBRANCH  28  29
ENDBRANCH  27  28
ENDBRANCH  26  27
ENDBRANCH  25  26
ENDBRANCH  24  25
ENDBRANCH  23  24
ENDBRANCH  22  23
ENDBRANCH  21  22
ENDBRANCH  20  21
ENDBRANCH  19  20
ENDBRANCH  18  19
ENDBRANCH  17  18
ENDBRANCH  16  17
ENDBRANCH  15  16
ENDBRANCH  14  15
ENDBRANCH  13  14
ENDBRANCH  12  13
ENDBRANCH  11  12
ENDBRANCH  10  11
ENDBRANCH   9  10
ENDBRANCH   8   9
ENDBRANCH   7   8
ENDBRANCH   6   7
ENDBRANCH   5   6
ENDBRANCH   4   5
ENDBRANCH   3   4
ENDBRANCH   2   3
TORSDOF 37
ENDMDL
MODEL      191
REMARK 921   NORMALIZED FREE ENERGY PREDICTED BY IDOCK:   -2.21 KCAL/MOL
REMARK 922        TOTAL FREE ENERGY PREDICTED BY IDOCK:  -10.60 KCAL/MOL
REMARK 923 INTER-LIGAND FREE ENERGY PREDICTED BY IDOCK:   -8.15 KCAL/MOL
REMARK 924 INTRA-LIGAND FREE ENERGY PREDICTED BY IDOCK:   -2.46 KCAL/MOL
REMARK 927      BINDING AFFINITY PREDICTED BY RF-SCORE:    0.00 PKD
ROOT
HETATM    1  C   UNL     1     -10.237  17.718  66.867  1.00  0.00    -0.346 C  
HETATM    2  C   UNL     1     -10.271  18.142  68.325  1.00  0.00    -0.402 C  
ENDROOT
BRANCH   2   3
HETATM    3  C   UNL     1     -10.286  16.928  69.250  1.00  0.00    -0.298 C  
BRANCH   3   4
HETATM    4  C   UNL     1     -11.665  16.272  69.279  1.00  0.00    -0.127 C  
BRANCH   4   5
HETATM    5  C   UNL     1     -12.020  15.821  70.694  1.00  0.00    -0.426 C  
BRANCH   5   6
HETATM    6  C   UNL     1     -12.062  14.300  70.786  1.00  0.00    -0.418 C  
BRANCH   6   7
HETATM    7  C   UNL     1     -11.994  13.673  69.397  1.00  0.00    -0.394 C  
BRANCH   7   8
HETATM    8  C   UNL     1     -11.736  12.175  69.496  1.00  0.00    -0.402 C  
BRANCH   8   9
HETATM    9  C   UNL     1     -10.676  11.736  68.491  1.00  0.00    -0.251 C  
BRANCH   9  10
HETATM   10  C   UNL     1     -11.330  11.025  67.314  1.00  0.00    -0.265 C  
BRANCH  10  11
HETATM   11  C   UNL     1     -11.617  11.994  66.176  1.00  0.00    -0.371 C  
BRANCH  11  12
HETATM   12  C   UNL     1     -10.334  12.662  65.714  1.00  0.00    -0.279 C  
BRANCH  12  13
HETATM   13  O   UNL     1     -10.203  12.447  64.314  1.00  0.00    -0.328 OA 
BRANCH  13  14
HETATM   14  C   UNL     1     -10.822  11.223  63.933  1.00  0.00    -0.354 C  
BRANCH  14  15
HETATM   15  C   UNL     1      -9.760  10.145  63.805  1.00  0.00    -0.137 C  
BRANCH  15  16
HETATM   16  O   UNL     1      -8.496  10.781  63.658  1.00  0.00    -0.119 OA 
BRANCH  16  17
HETATM   17  C   UNL     1      -7.480  10.082  64.370  1.00  0.00    -0.141 C  
BRANCH  17  18
HETATM   18  C   UNL     1      -7.834  10.092  65.848  1.00  0.00    -0.122 C  
BRANCH  18  19
HETATM   19  O   UNL     1      -7.700   8.773  66.362  1.00  0.00    -0.096 OA 
BRANCH  19  20
HETATM   20  C   UNL     1      -8.867   8.369  67.082  1.00  0.00    -0.130 C  
BRANCH  20  21
HETATM   21  C   UNL     1      -8.456   7.990  68.500  1.00  0.00    -0.128 C  
BRANCH  21  22
HETATM   22  O   UNL     1      -8.603   9.137  69.342  1.00  0.00    -0.129 OA 
BRANCH  22  23
HETATM   23  C   UNL     1      -9.149   8.788  70.608  1.00  0.00    -0.186 C  
BRANCH  23  24
HETATM   24  C   UNL     1     -10.663   8.919  70.546  1.00  0.00    -0.230 C  
BRANCH  24  25
HETATM   25  O   UNL     1     -11.246   7.845  71.279  1.00  0.00    -0.247 OA 
BRANCH  25  26
HETATM   26  C   UNL     1     -11.047   8.006  72.677  1.00  0.00    -0.387 C  
BRANCH  26  27
HETATM   27  C   UNL     1     -11.013   6.632  73.329  1.00  0.00    -0.207 C  
BRANCH  27  28
HETATM   28  O   UNL     1      -9.874   6.548  74.180  1.00  0.00    -0.232 OA 
BRANCH  28  29
HETATM   29  C   UNL     1      -8.688   6.309  73.428  1.00  0.00    -0.125 C  
BRANCH  29  30
HETATM   30  C   UNL     1      -8.267   4.861  73.619  1.00  0.00    -0.106 C  
BRANCH  30  31
HETATM   31  O   UNL     1      -8.440   4.163  72.390  1.00  0.00    -0.100 OA 
BRANCH  31  32
HETATM   32  C   UNL     1      -8.437   5.058  71.281  1.00  0.00    -0.121 C  
BRANCH  32  33
HETATM   33  C   UNL     1      -9.483   4.602  70.274  1.00  0.00    -0.170 C  
BRANCH  33  34
HETATM   34  O   UNL     1      -8.865   4.431  69.001  1.00  0.00    -0.086 OA 
BRANCH  34  35
HETATM   35  C   UNL     1      -7.947   3.341  69.010  1.00  0.00    -0.053 C  
BRANCH  35  36
HETATM   36  C   UNL     1      -7.219   3.298  67.674  1.00  0.00    -0.054 C  
BRANCH  36  37
HETATM   37  O   UNL     1      -8.147   3.002  66.629  1.00  0.00    -0.082 OA 
BRANCH  37  38
HETATM   38  C   UNL     1      -7.584   2.074  65.693  1.00  0.00    -0.071 C  
BRANCH  38  39
HETATM   39  C   UNL     1      -6.119   1.858  66.055  1.00  0.00    -0.023 C  
HETATM   40  O   UNL     1      -5.333   1.766  64.868  1.00  0.00    -0.004 OA 
HETATM   41  H   UNL     1      -4.421   1.631  65.094  1.00  0.00     0.000 HD 
ENDBRANCH  38  39
ENDBRANCH  37  38
ENDBRANCH  36  37
ENDBRANCH  35  36
ENDBRANCH  34  35
ENDBRANCH  33  34
ENDBRANCH  32  33
ENDBRANCH  31  32
ENDBRANCH  30  31
ENDBRANCH  29  30
ENDBRANCH  28  29
ENDBRANCH  27  28
ENDBRANCH  26  27
ENDBRANCH  25  26
ENDBRANCH  24  25
ENDBRANCH  23  24
ENDBRANCH  22  23
ENDBRANCH  21  22
ENDBRANCH  20  21
ENDBRANCH  19  20
ENDBRANCH  18  19
ENDBRANCH  17  18
ENDBRANCH  16  17
ENDBRANCH  15  16
ENDBRANCH  14  15
ENDBRANCH  13  14
ENDBRANCH  12  13
ENDBRANCH  11  12
ENDBRANCH  10  11
ENDBRANCH   9  10
ENDBRANCH   8   9
ENDBRANCH   7   8
ENDBRANCH   6   7
ENDBRANCH   5   6
ENDBRANCH   4   5
ENDBRANCH   3   4
ENDBRANCH   2   3
TORSDOF 37
ENDMDL
MODEL      192
REMARK 921   NORMALIZED FREE ENERGY PREDICTED BY IDOCK:   -2.17 KCAL/MOL
REMARK 922        TOTAL FREE ENERGY PREDICTED BY IDOCK:  -10.48 KCAL/MOL
REMARK 923 INTER-LIGAND FREE ENERGY PREDICTED BY IDOCK:   -7.72 KCAL/MOL
REMARK 924 INTRA-LIGAND FREE ENERGY PREDICTED BY IDOCK:   -2.76 KCAL/MOL
REMARK 927      BINDING AFFINITY PREDICTED BY RF-SCORE:    0.00 PKD
ROOT
HETATM    1  C   UNL     1      -8.400   6.075  67.430  1.00  0.00    -0.105 C  
HETATM    2  C   UNL     1      -6.960   6.515  67.226  1.00  0.00    -0.075 C  
ENDROOT
BRANCH   2   3
HETATM    3  C   UNL     1      -6.524   6.309  65.778  1.00  0.00    -0.043 C  
BRANCH   3   4
HETATM    4  C   UNL     1      -6.252   7.643  65.087  1.00  0.00    -0.038 C  
BRANCH   4   5
HETATM    5  C   UNL     1      -7.478   8.107  64.305  1.00  0.00    -0.101 C  
BRANCH   5   6
HETATM    6  C   UNL     1      -7.987   9.444  64.833  1.00  0.00    -0.120 C  
BRANCH   6   7
HETATM    7  C   UNL     1      -9.292   9.259  65.600  1.00  0.00    -0.308 C  
BRANCH   7   8
HETATM    8  C   UNL     1     -10.107  10.546  65.590  1.00  0.00    -0.333 C  
BRANCH   8   9
HETATM    9  C   UNL     1      -9.546  11.540  64.578  1.00  0.00    -0.177 C  
BRANCH   9  10
HETATM   10  C   UNL     1     -10.450  11.612  63.354  1.00  0.00    -0.482 C  
BRANCH  10  11
HETATM   11  C   UNL     1     -11.854  12.059  63.733  1.00  0.00    -0.581 C  
BRANCH  11  12
HETATM   12  C   UNL     1     -12.057  13.522  63.379  1.00  0.00    -0.289 C  
BRANCH  12  13
HETATM   13  O   UNL     1     -12.633  14.174  64.505  1.00  0.00    -0.643 OA 
BRANCH  13  14
HETATM   14  C   UNL     1     -12.405  13.421  65.692  1.00  0.00    -0.470 C  
BRANCH  14  15
HETATM   15  C   UNL     1     -12.063  14.369  66.828  1.00  0.00    -0.365 C  
BRANCH  15  16
HETATM   16  O   UNL     1     -10.771  14.030  67.317  1.00  0.00    -0.274 OA 
BRANCH  16  17
HETATM   17  C   UNL     1      -9.881  15.139  67.241  1.00  0.00    -0.228 C  
BRANCH  17  18
HETATM   18  C   UNL     1      -8.466  14.611  67.067  1.00  0.00    -0.210 C  
BRANCH  18  19
HETATM   19  O   UNL     1      -7.926  14.313  68.349  1.00  0.00    -0.129 OA 
BRANCH  19  20
HETATM   20  C   UNL     1      -7.517  12.947  68.441  1.00  0.00    -0.124 C  
BRANCH  20  21
HETATM   21  C   UNL     1      -6.437  12.834  69.510  1.00  0.00    -0.077 C  
BRANCH  21  22
HETATM   22  O   UNL     1      -6.640  11.621  70.240  1.00  0.00    -0.154 OA 
BRANCH  22  23
HETATM   23  C   UNL     1      -5.404  11.031  70.626  1.00  0.00    -0.114 C  
BRANCH  23  24
HETATM   24  C   UNL     1      -5.686   9.730  71.362  1.00  0.00    -0.050 C  
BRANCH  24  25
HETATM   25  O   UNL     1      -5.708   9.992  72.763  1.00  0.00    -0.297 OA 
BRANCH  25  26
HETATM   26  C   UNL     1      -6.158   8.858  73.493  1.00  0.00    -0.012 C  
BRANCH  26  27
HETATM   27  C   UNL     1      -6.602   7.786  72.508  1.00  0.00    -0.065 C  
BRANCH  27  28
HETATM   28  O   UNL     1      -7.901   7.328  72.872  1.00  0.00    -0.091 OA 
BRANCH  28  29
HETATM   29  C   UNL     1      -8.914   8.118  72.258  1.00  0.00    -0.189 C  
BRANCH  29  30
HETATM   30  C   UNL     1      -9.067   7.683  70.809  1.00  0.00    -0.153 C  
BRANCH  30  31
HETATM   31  O   UNL     1     -10.333   8.121  70.325  1.00  0.00    -0.201 OA 
BRANCH  31  32
HETATM   32  C   UNL     1     -11.276   7.052  70.301  1.00  0.00    -0.298 C  
BRANCH  32  33
HETATM   33  C   UNL     1     -10.698   5.866  71.059  1.00  0.00    -0.267 C  
BRANCH  33  34
HETATM   34  O   UNL     1     -10.306   4.861  70.128  1.00  0.00    -0.265 OA 
BRANCH  34  35
HETATM   35  C   UNL     1      -9.561   3.825  70.763  1.00  0.00    -0.179 C  
BRANCH  35  36
HETATM   36  C   UNL     1      -8.629   3.190  69.740  1.00  0.00    -0.065 C  
BRANCH  36  37
HETATM   37  O   UNL     1      -7.312   3.093  70.283  1.00  0.00    -0.040 OA 
BRANCH  37  38
HETATM   38  C   UNL     1      -6.931   4.318  70.923  1.00  0.00    -0.036 C  
BRANCH  38  39
HETATM   39  C   UNL     1      -6.184   3.976  72.207  1.00  0.00    -0.017 C  
HETATM   40  O   UNL     1      -6.901   4.479  73.334  1.00  0.00    -0.059 OA 
HETATM   41  H   UNL     1      -6.436   4.265  74.134  1.00  0.00     0.000 HD 
ENDBRANCH  38  39
ENDBRANCH  37  38
ENDBRANCH  36  37
ENDBRANCH  35  36
ENDBRANCH  34  35
ENDBRANCH  33  34
ENDBRANCH  32  33
ENDBRANCH  31  32
ENDBRANCH  30  31
ENDBRANCH  29  30
ENDBRANCH  28  29
ENDBRANCH  27  28
ENDBRANCH  26  27
ENDBRANCH  25  26
ENDBRANCH  24  25
ENDBRANCH  23  24
ENDBRANCH  22  23
ENDBRANCH  21  22
ENDBRANCH  20  21
ENDBRANCH  19  20
ENDBRANCH  18  19
ENDBRANCH  17  18
ENDBRANCH  16  17
ENDBRANCH  15  16
ENDBRANCH  14  15
ENDBRANCH  13  14
ENDBRANCH  12  13
ENDBRANCH  11  12
ENDBRANCH  10  11
ENDBRANCH   9  10
ENDBRANCH   8   9
ENDBRANCH   7   8
ENDBRANCH   6   7
ENDBRANCH   5   6
ENDBRANCH   4   5
ENDBRANCH   3   4
ENDBRANCH   2   3
TORSDOF 37
ENDMDL
MODEL      193
REMARK 921   NORMALIZED FREE ENERGY PREDICTED BY IDOCK:   -2.17 KCAL/MOL
REMARK 922        TOTAL FREE ENERGY PREDICTED BY IDOCK:  -10.48 KCAL/MOL
REMARK 923 INTER-LIGAND FREE ENERGY PREDICTED BY IDOCK:   -7.81 KCAL/MOL
REMARK 924 INTRA-LIGAND FREE ENERGY PREDICTED BY IDOCK:   -2.67 KCAL/MOL
REMARK 927      BINDING AFFINITY PREDICTED BY RF-SCORE:    0.00 PKD
ROOT
HETATM    1  C   UNL     1     -11.792  15.402  70.459  1.00  0.00    -0.373 C  
HETATM    2  C   UNL     1     -10.939  15.201  69.219  1.00  0.00    -0.260 C  
ENDROOT
BRANCH   2   3
HETATM    3  C   UNL     1     -11.675  15.666  67.965  1.00  0.00    -0.162 C  
BRANCH   3   4
HETATM    4  C   UNL     1     -11.250  14.857  66.742  1.00  0.00    -0.338 C  
BRANCH   4   5
HETATM    5  C   UNL     1     -12.363  13.907  66.308  1.00  0.00    -0.489 C  
BRANCH   5   6
HETATM    6  C   UNL     1     -11.787  12.600  65.774  1.00  0.00    -0.497 C  
BRANCH   6   7
HETATM    7  C   UNL     1     -10.608  12.870  64.845  1.00  0.00    -0.342 C  
BRANCH   7   8
HETATM    8  C   UNL     1      -9.552  11.782  64.988  1.00  0.00    -0.150 C  
BRANCH   8   9
HETATM    9  C   UNL     1     -10.029  10.473  64.367  1.00  0.00    -0.410 C  
BRANCH   9  10
HETATM   10  C   UNL     1      -9.654  10.424  62.892  1.00  0.00    -0.331 C  
BRANCH  10  11
HETATM   11  C   UNL     1      -8.624   9.337  62.622  1.00  0.00    -0.224 C  
BRANCH  11  12
HETATM   12  C   UNL     1      -7.260   9.762  63.138  1.00  0.00    -0.119 C  
BRANCH  12  13
HETATM   13  O   UNL     1      -6.653   8.637  63.763  1.00  0.00    -0.083 OA 
BRANCH  13  14
HETATM   14  C   UNL     1      -6.736   8.743  65.180  1.00  0.00    -0.064 C  
BRANCH  14  15
HETATM   15  C   UNL     1      -6.812   7.351  65.782  1.00  0.00    -0.056 C  
BRANCH  15  16
HETATM   16  O   UNL     1      -7.418   6.486  64.829  1.00  0.00    -0.078 OA 
BRANCH  16  17
HETATM   17  C   UNL     1      -8.454   5.709  65.419  1.00  0.00    -0.147 C  
BRANCH  17  18
HETATM   18  C   UNL     1      -8.543   6.067  66.894  1.00  0.00    -0.108 C  
BRANCH  18  19
HETATM   19  O   UNL     1      -8.211   4.920  67.667  1.00  0.00    -0.104 OA 
BRANCH  19  20
HETATM   20  C   UNL     1      -9.324   4.031  67.791  1.00  0.00    -0.176 C  
BRANCH  20  21
HETATM   21  C   UNL     1      -8.957   2.929  68.777  1.00  0.00    -0.132 C  
BRANCH  21  22
HETATM   22  O   UNL     1      -9.782   3.061  69.938  1.00  0.00    -0.103 OA 
BRANCH  22  23
HETATM   23  C   UNL     1      -9.108   3.755  70.981  1.00  0.00    -0.112 C  
BRANCH  23  24
HETATM   24  C   UNL     1      -9.959   4.938  71.417  1.00  0.00    -0.197 C  
BRANCH  24  25
HETATM   25  O   UNL     1      -9.097   6.022  71.754  1.00  0.00    -0.145 OA 
BRANCH  25  26
HETATM   26  C   UNL     1      -9.829   7.116  72.291  1.00  0.00    -0.153 C  
BRANCH  26  27
HETATM   27  C   UNL     1     -11.107   7.294  71.484  1.00  0.00    -0.237 C  
BRANCH  27  28
HETATM   28  O   UNL     1     -11.726   8.521  71.857  1.00  0.00    -0.296 OA 
BRANCH  28  29
HETATM   29  C   UNL     1     -11.778   9.424  70.757  1.00  0.00    -0.282 C  
BRANCH  29  30
HETATM   30  C   UNL     1     -10.691   9.053  69.762  1.00  0.00    -0.225 C  
BRANCH  30  31
HETATM   31  O   UNL     1     -10.850   9.841  68.587  1.00  0.00    -0.222 OA 
BRANCH  31  32
HETATM   32  C   UNL     1     -10.166  11.087  68.703  1.00  0.00    -0.199 C  
BRANCH  32  33
HETATM   33  C   UNL     1      -8.702  10.819  69.020  1.00  0.00    -0.130 C  
BRANCH  33  34
HETATM   34  O   UNL     1      -7.964  10.742  67.803  1.00  0.00    -0.108 OA 
BRANCH  34  35
HETATM   35  C   UNL     1      -6.671  11.325  67.940  1.00  0.00    -0.063 C  
BRANCH  35  36
HETATM   36  C   UNL     1      -6.711  12.747  67.397  1.00  0.00    -0.134 C  
BRANCH  36  37
HETATM   37  O   UNL     1      -6.197  13.651  68.376  1.00  0.00    -0.079 OA 
BRANCH  37  38
HETATM   38  C   UNL     1      -7.216  14.555  68.822  1.00  0.00    -0.126 C  
BRANCH  38  39
HETATM   39  C   UNL     1      -6.905  15.939  68.266  1.00  0.00    -0.117 C  
HETATM   40  O   UNL     1      -7.699  16.920  68.931  1.00  0.00    -0.238 OA 
HETATM   41  H   UNL     1      -7.505  17.783  68.584  1.00  0.00     0.000 HD 
ENDBRANCH  38  39
ENDBRANCH  37  38
ENDBRANCH  36  37
ENDBRANCH  35  36
ENDBRANCH  34  35
ENDBRANCH  33  34
ENDBRANCH  32  33
ENDBRANCH  31  32
ENDBRANCH  30  31
ENDBRANCH  29  30
ENDBRANCH  28  29
ENDBRANCH  27  28
ENDBRANCH  26  27
ENDBRANCH  25  26
ENDBRANCH  24  25
ENDBRANCH  23  24
ENDBRANCH  22  23
ENDBRANCH  21  22
ENDBRANCH  20  21
ENDBRANCH  19  20
ENDBRANCH  18  19
ENDBRANCH  17  18
ENDBRANCH  16  17
ENDBRANCH  15  16
ENDBRANCH  14  15
ENDBRANCH  13  14
ENDBRANCH  12  13
ENDBRANCH  11  12
ENDBRANCH  10  11
ENDBRANCH   9  10
ENDBRANCH   8   9
ENDBRANCH   7   8
ENDBRANCH   6   7
ENDBRANCH   5   6
ENDBRANCH   4   5
ENDBRANCH   3   4
ENDBRANCH   2   3
TORSDOF 37
ENDMDL
MODEL      194
REMARK 921   NORMALIZED FREE ENERGY PREDICTED BY IDOCK:   -2.10 KCAL/MOL
REMARK 922        TOTAL FREE ENERGY PREDICTED BY IDOCK:  -10.27 KCAL/MOL
REMARK 923 INTER-LIGAND FREE ENERGY PREDICTED BY IDOCK:   -8.38 KCAL/MOL
REMARK 924 INTRA-LIGAND FREE ENERGY PREDICTED BY IDOCK:   -1.90 KCAL/MOL
REMARK 927      BINDING AFFINITY PREDICTED BY RF-SCORE:    0.00 PKD
ROOT
HETATM    1  C   UNL     1      -7.086   5.000  73.820  1.00  0.00    -0.082 C  
HETATM    2  C   UNL     1      -8.380   4.701  74.557  1.00  0.00    -0.100 C  
ENDROOT
BRANCH   2   3
HETATM    3  C   UNL     1      -9.388   5.834  74.379  1.00  0.00    -0.141 C  
BRANCH   3   4
HETATM    4  C   UNL     1     -10.722   5.310  73.851  1.00  0.00    -0.320 C  
BRANCH   4   5
HETATM    5  C   UNL     1     -10.507   4.412  72.635  1.00  0.00    -0.249 C  
BRANCH   5   6
HETATM    6  C   UNL     1      -9.973   5.214  71.454  1.00  0.00    -0.252 C  
BRANCH   6   7
HETATM    7  C   UNL     1     -10.091   4.414  70.160  1.00  0.00    -0.155 C  
BRANCH   7   8
HETATM    8  C   UNL     1      -9.005   4.824  69.174  1.00  0.00    -0.133 C  
BRANCH   8   9
HETATM    9  C   UNL     1      -9.457   4.590  67.737  1.00  0.00    -0.196 C  
BRANCH   9  10
HETATM   10  C   UNL     1      -8.249   4.385  66.832  1.00  0.00    -0.102 C  
BRANCH  10  11
HETATM   11  C   UNL     1      -8.402   3.132  65.983  1.00  0.00    -0.101 C  
BRANCH  11  12
HETATM   12  C   UNL     1      -8.854   3.497  64.580  1.00  0.00    -0.114 C  
BRANCH  12  13
HETATM   13  O   UNL     1      -8.850   4.915  64.468  1.00  0.00    -0.152 OA 
BRANCH  13  14
HETATM   14  C   UNL     1      -8.409   5.317  63.176  1.00  0.00    -0.108 C  
BRANCH  14  15
HETATM   15  C   UNL     1      -7.577   6.580  63.302  1.00  0.00    -0.081 C  
BRANCH  15  16
HETATM   16  O   UNL     1      -7.219   6.743  64.670  1.00  0.00    -0.066 OA 
BRANCH  16  17
HETATM   17  C   UNL     1      -7.442   8.080  65.107  1.00  0.00    -0.085 C  
BRANCH  17  18
HETATM   18  C   UNL     1      -8.753   8.569  64.512  1.00  0.00     0.051 C  
BRANCH  18  19
HETATM   19  O   UNL     1      -9.645   8.896  65.569  1.00  0.00    -0.184 OA 
BRANCH  19  20
HETATM   20  C   UNL     1      -9.429   8.066  66.713  1.00  0.00    -0.202 C  
BRANCH  20  21
HETATM   21  C   UNL     1      -9.744   8.874  67.966  1.00  0.00    -0.156 C  
BRANCH  21  22
HETATM   22  O   UNL     1     -10.375   8.014  68.919  1.00  0.00    -0.208 OA 
BRANCH  22  23
HETATM   23  C   UNL     1     -10.648   8.696  70.137  1.00  0.00    -0.225 C  
BRANCH  23  24
HETATM   24  C   UNL     1     -11.573   9.868  69.849  1.00  0.00    -0.127 C  
BRANCH  24  25
HETATM   25  O   UNL     1     -11.880  10.521  71.078  1.00  0.00    -0.350 OA 
BRANCH  25  26
HETATM   26  C   UNL     1     -12.646  11.699  70.859  1.00  0.00    -0.313 C  
BRANCH  26  27
HETATM   27  C   UNL     1     -13.386  12.049  72.143  1.00  0.00    -0.290 C  
BRANCH  27  28
HETATM   28  O   UNL     1     -14.086  13.274  71.958  1.00  0.00    -0.344 OA 
BRANCH  28  29
HETATM   29  C   UNL     1     -13.539  14.306  72.772  1.00  0.00    -0.435 C  
BRANCH  29  30
HETATM   30  C   UNL     1     -13.322  15.545  71.918  1.00  0.00    -0.477 C  
BRANCH  30  31
HETATM   31  O   UNL     1     -11.923  15.763  71.765  1.00  0.00    -0.377 OA 
BRANCH  31  32
HETATM   32  C   UNL     1     -11.591  16.061  70.411  1.00  0.00    -0.348 C  
BRANCH  32  33
HETATM   33  C   UNL     1     -12.261  15.042  69.501  1.00  0.00    -0.232 C  
BRANCH  33  34
HETATM   34  O   UNL     1     -11.667  15.108  68.207  1.00  0.00    -0.338 OA 
BRANCH  34  35
HETATM   35  C   UNL     1     -12.406  14.345  67.256  1.00  0.00    -0.055 C  
BRANCH  35  36
HETATM   36  C   UNL     1     -11.461  13.878  66.157  1.00  0.00    -0.345 C  
BRANCH  36  37
HETATM   37  O   UNL     1     -11.704  12.501  65.866  1.00  0.00    -0.385 OA 
BRANCH  37  38
HETATM   38  C   UNL     1     -10.554  11.703  66.175  1.00  0.00    -0.262 C  
BRANCH  38  39
HETATM   39  C   UNL     1      -9.345  12.317  65.479  1.00  0.00     0.068 C  
HETATM   40  O   UNL     1      -8.330  12.612  66.438  1.00  0.00    -0.406 OA 
HETATM   41  H   UNL     1      -7.577  12.994  66.004  1.00  0.00     0.000 HD 
ENDBRANCH  38  39
ENDBRANCH  37  38
ENDBRANCH  36  37
ENDBRANCH  35  36
ENDBRANCH  34  35
ENDBRANCH  33  34
ENDBRANCH  32  33
ENDBRANCH  31  32
ENDBRANCH  30  31
ENDBRANCH  29  30
ENDBRANCH  28  29
ENDBRANCH  27  28
ENDBRANCH  26  27
ENDBRANCH  25  26
ENDBRANCH  24  25
ENDBRANCH  23  24
ENDBRANCH  22  23
ENDBRANCH  21  22
ENDBRANCH  20  21
ENDBRANCH  19  20
ENDBRANCH  18  19
ENDBRANCH  17  18
ENDBRANCH  16  17
ENDBRANCH  15  16
ENDBRANCH  14  15
ENDBRANCH  13  14
ENDBRANCH  12  13
ENDBRANCH  11  12
ENDBRANCH  10  11
ENDBRANCH   9  10
ENDBRANCH   8   9
ENDBRANCH   7   8
ENDBRANCH   6   7
ENDBRANCH   5   6
ENDBRANCH   4   5
ENDBRANCH   3   4
ENDBRANCH   2   3
TORSDOF 37
ENDMDL
MODEL      195
REMARK 921   NORMALIZED FREE ENERGY PREDICTED BY IDOCK:   -2.03 KCAL/MOL
REMARK 922        TOTAL FREE ENERGY PREDICTED BY IDOCK:  -10.05 KCAL/MOL
REMARK 923 INTER-LIGAND FREE ENERGY PREDICTED BY IDOCK:   -8.03 KCAL/MOL
REMARK 924 INTRA-LIGAND FREE ENERGY PREDICTED BY IDOCK:   -2.02 KCAL/MOL
REMARK 927      BINDING AFFINITY PREDICTED BY RF-SCORE:    0.00 PKD
ROOT
HETATM    1  C   UNL     1      -6.371  19.104  69.483  1.00  0.00    -0.318 C  
HETATM    2  C   UNL     1      -5.246  18.171  69.070  1.00  0.00    -0.183 C  
ENDROOT
BRANCH   2   3
HETATM    3  C   UNL     1      -5.670  16.710  69.198  1.00  0.00    -0.146 C  
BRANCH   3   4
HETATM    4  C   UNL     1      -5.602  15.994  67.851  1.00  0.00    -0.146 C  
BRANCH   4   5
HETATM    5  C   UNL     1      -6.983  15.494  67.434  1.00  0.00    -0.232 C  
BRANCH   5   6
HETATM    6  C   UNL     1      -7.918  16.660  67.138  1.00  0.00    -0.212 C  
BRANCH   6   7
HETATM    7  C   UNL     1      -9.165  16.588  68.013  1.00  0.00    -0.214 C  
BRANCH   7   8
HETATM    8  C   UNL     1     -10.424  16.588  67.156  1.00  0.00    -0.300 C  
BRANCH   8   9
HETATM    9  C   UNL     1     -10.345  15.518  66.072  1.00  0.00    -0.342 C  
BRANCH   9  10
HETATM   10  C   UNL     1     -10.443  14.131  66.693  1.00  0.00    -0.278 C  
BRANCH  10  11
HETATM   11  C   UNL     1     -11.893  13.728  66.916  1.00  0.00    -0.447 C  
BRANCH  11  12
HETATM   12  C   UNL     1     -12.630  13.656  65.590  1.00  0.00    -0.484 C  
BRANCH  12  13
HETATM   13  O   UNL     1     -12.314  12.413  64.975  1.00  0.00    -0.475 OA 
BRANCH  13  14
HETATM   14  C   UNL     1     -11.944  12.605  63.614  1.00  0.00    -0.535 C  
BRANCH  14  15
HETATM   15  C   UNL     1     -10.454  12.354  63.460  1.00  0.00    -0.393 C  
BRANCH  15  16
HETATM   16  O   UNL     1     -10.186  11.013  63.856  1.00  0.00    -0.310 OA 
BRANCH  16  17
HETATM   17  C   UNL     1      -9.656  10.251  62.777  1.00  0.00    -0.239 C  
BRANCH  17  18
HETATM   18  C   UNL     1      -8.154  10.478  62.719  1.00  0.00    -0.149 C  
BRANCH  18  19
HETATM   19  O   UNL     1      -7.498   9.216  62.718  1.00  0.00    -0.102 OA 
BRANCH  19  20
HETATM   20  C   UNL     1      -7.982   8.372  63.765  1.00  0.00    -0.159 C  
BRANCH  20  21
HETATM   21  C   UNL     1      -7.377   6.985  63.590  1.00  0.00    -0.078 C  
BRANCH  21  22
HETATM   22  O   UNL     1      -6.070   6.978  64.172  1.00  0.00    -0.035 OA 
BRANCH  22  23
HETATM   23  C   UNL     1      -6.014   7.792  65.337  1.00  0.00    -0.038 C  
BRANCH  23  24
HETATM   24  C   UNL     1      -5.852   6.898  66.557  1.00  0.00    -0.029 C  
BRANCH  24  25
HETATM   25  O   UNL     1      -5.763   5.544  66.123  1.00  0.00    -0.016 OA 
BRANCH  25  26
HETATM   26  C   UNL     1      -6.458   4.672  67.006  1.00  0.00    -0.042 C  
BRANCH  26  27
HETATM   27  C   UNL     1      -7.883   4.497  66.502  1.00  0.00    -0.099 C  
BRANCH  27  28
HETATM   28  O   UNL     1      -8.766   4.426  67.617  1.00  0.00    -0.102 OA 
BRANCH  28  29
HETATM   29  C   UNL     1      -9.999   5.081  67.337  1.00  0.00    -0.177 C  
BRANCH  29  30
HETATM   30  C   UNL     1     -10.166   6.250  68.294  1.00  0.00    -0.169 C  
BRANCH  30  31
HETATM   31  O   UNL     1      -9.285   6.073  69.399  1.00  0.00    -0.131 OA 
BRANCH  31  32
HETATM   32  C   UNL     1      -9.426   7.128  70.347  1.00  0.00    -0.162 C  
BRANCH  32  33
HETATM   33  C   UNL     1      -8.583   6.807  71.573  1.00  0.00    -0.120 C  
BRANCH  33  34
HETATM   34  O   UNL     1      -9.426   6.748  72.720  1.00  0.00    -0.142 OA 
BRANCH  34  35
HETATM   35  C   UNL     1     -10.803   6.812  72.357  1.00  0.00    -0.238 C  
BRANCH  35  36
HETATM   36  C   UNL     1     -11.514   5.580  72.901  1.00  0.00    -0.267 C  
BRANCH  36  37
HETATM   37  O   UNL     1     -10.835   4.401  72.465  1.00  0.00    -0.140 OA 
BRANCH  37  38
HETATM   38  C   UNL     1     -10.158   3.768  73.558  1.00  0.00    -0.134 C  
BRANCH  38  39
HETATM   39  C   UNL     1      -9.969   2.294  73.216  1.00  0.00    -0.106 C  
HETATM   40  O   UNL     1     -10.362   2.055  71.865  1.00  0.00    -0.137 OA 
HETATM   41  H   UNL     1     -10.244   1.138  71.652  1.00  0.00     0.000 HD 
ENDBRANCH  38  39
ENDBRANCH  37  38
ENDBRANCH  36  37
ENDBRANCH  35  36
ENDBRANCH  34  35
ENDBRANCH  33  34
ENDBRANCH  32  33
ENDBRANCH  31  32
ENDBRANCH  30  31
ENDBRANCH  29  30
ENDBRANCH  28  29
ENDBRANCH  27  28
ENDBRANCH  26  27
ENDBRANCH  25  26
ENDBRANCH  24  25
ENDBRANCH  23  24
ENDBRANCH  22  23
ENDBRANCH  21  22
ENDBRANCH  20  21
ENDBRANCH  19  20
ENDBRANCH  18  19
ENDBRANCH  17  18
ENDBRANCH  16  17
ENDBRANCH  15  16
ENDBRANCH  14  15
ENDBRANCH  13  14
ENDBRANCH  12  13
ENDBRANCH  11  12
ENDBRANCH  10  11
ENDBRANCH   9  10
ENDBRANCH   8   9
ENDBRANCH   7   8
ENDBRANCH   6   7
ENDBRANCH   5   6
ENDBRANCH   4   5
ENDBRANCH   3   4
ENDBRANCH   2   3
TORSDOF 37
ENDMDL
MODEL      196
REMARK 921   NORMALIZED FREE ENERGY PREDICTED BY IDOCK:   -2.03 KCAL/MOL
REMARK 922        TOTAL FREE ENERGY PREDICTED BY IDOCK:  -10.03 KCAL/MOL
REMARK 923 INTER-LIGAND FREE ENERGY PREDICTED BY IDOCK:   -7.09 KCAL/MOL
REMARK 924 INTRA-LIGAND FREE ENERGY PREDICTED BY IDOCK:   -2.94 KCAL/MOL
REMARK 927      BINDING AFFINITY PREDICTED BY RF-SCORE:    0.00 PKD
ROOT
HETATM    1  C   UNL     1      -5.698   6.303  65.841  1.00  0.00    -0.024 C  
HETATM    2  C   UNL     1      -6.923   6.946  66.468  1.00  0.00    -0.066 C  
ENDROOT
BRANCH   2   3
HETATM    3  C   UNL     1      -6.879   8.464  66.327  1.00  0.00    -0.073 C  
BRANCH   3   4
HETATM    4  C   UNL     1      -6.201   8.880  65.024  1.00  0.00    -0.064 C  
BRANCH   4   5
HETATM    5  C   UNL     1      -7.178   8.791  63.854  1.00  0.00    -0.096 C  
BRANCH   5   6
HETATM    6  C   UNL     1      -7.741  10.164  63.508  1.00  0.00    -0.144 C  
BRANCH   6   7
HETATM    7  C   UNL     1      -9.012  10.033  62.677  1.00  0.00    -0.278 C  
BRANCH   7   8
HETATM    8  C   UNL     1     -10.019  11.109  63.061  1.00  0.00    -0.347 C  
BRANCH   8   9
HETATM    9  C   UNL     1      -9.772  11.605  64.482  1.00  0.00    -0.203 C  
BRANCH   9  10
HETATM   10  C   UNL     1     -10.814  11.024  65.430  1.00  0.00    -0.168 C  
BRANCH  10  11
HETATM   11  C   UNL     1     -10.195   9.999  66.368  1.00  0.00    -0.290 C  
BRANCH  11  12
HETATM   12  C   UNL     1      -9.927  10.621  67.728  1.00  0.00    -0.167 C  
BRANCH  12  13
HETATM   13  O   UNL     1      -9.520   9.587  68.615  1.00  0.00    -0.140 OA 
BRANCH  13  14
HETATM   14  C   UNL     1     -10.588   9.217  69.480  1.00  0.00    -0.223 C  
BRANCH  14  15
HETATM   15  C   UNL     1     -11.609  10.340  69.523  1.00  0.00    -0.168 C  
BRANCH  15  16
HETATM   16  O   UNL     1     -11.750  10.761  70.875  1.00  0.00    -0.320 OA 
BRANCH  16  17
HETATM   17  C   UNL     1     -12.479  11.981  70.963  1.00  0.00    -0.276 C  
BRANCH  17  18
HETATM   18  C   UNL     1     -13.388  11.911  72.179  1.00  0.00    -0.256 C  
BRANCH  18  19
HETATM   19  O   UNL     1     -13.430  13.192  72.796  1.00  0.00    -0.536 OA 
BRANCH  19  20
HETATM   20  C   UNL     1     -14.405  14.038  72.183  1.00  0.00    -0.487 C  
BRANCH  20  21
HETATM   21  C   UNL     1     -13.751  15.375  71.856  1.00  0.00    -0.501 C  
BRANCH  21  22
HETATM   22  O   UNL     1     -12.339  15.253  72.046  1.00  0.00    -0.316 OA 
BRANCH  22  23
HETATM   23  C   UNL     1     -11.616  16.042  71.108  1.00  0.00    -0.443 C  
BRANCH  23  24
HETATM   24  C   UNL     1     -11.589  15.318  69.771  1.00  0.00    -0.314 C  
BRANCH  24  25
HETATM   25  O   UNL     1     -10.240  14.976  69.463  1.00  0.00    -0.225 OA 
BRANCH  25  26
HETATM   26  C   UNL     1     -10.014  14.978  68.059  1.00  0.00    -0.219 C  
BRANCH  26  27
HETATM   27  C   UNL     1      -8.625  14.420  67.785  1.00  0.00    -0.171 C  
BRANCH  27  28
HETATM   28  O   UNL     1      -7.727  14.895  68.783  1.00  0.00    -0.122 OA 
BRANCH  28  29
HETATM   29  C   UNL     1      -6.520  14.139  68.790  1.00  0.00    -0.091 C  
BRANCH  29  30
HETATM   30  C   UNL     1      -6.865  12.660  68.723  1.00  0.00    -0.096 C  
BRANCH  30  31
HETATM   31  O   UNL     1      -6.437  12.030  69.926  1.00  0.00    -0.121 OA 
BRANCH  31  32
HETATM   32  C   UNL     1      -6.189  10.641  69.724  1.00  0.00    -0.085 C  
BRANCH  32  33
HETATM   33  C   UNL     1      -6.349   9.911  71.049  1.00  0.00    -0.005 C  
BRANCH  33  34
HETATM   34  O   UNL     1      -7.642   9.314  71.102  1.00  0.00    -0.261 OA 
BRANCH  34  35
HETATM   35  C   UNL     1      -8.037   9.045  72.445  1.00  0.00     0.508 C  
BRANCH  35  36
HETATM   36  C   UNL     1      -7.379   7.751  72.903  1.00  0.00    -0.088 C  
BRANCH  36  37
HETATM   37  O   UNL     1      -7.603   6.727  71.933  1.00  0.00    -0.093 OA 
BRANCH  37  38
HETATM   38  C   UNL     1      -7.227   5.444  72.448  1.00  0.00    -0.093 C  
BRANCH  38  39
HETATM   39  C   UNL     1      -6.531   4.666  71.336  1.00  0.00    -0.019 C  
HETATM   40  O   UNL     1      -5.436   3.927  71.873  1.00  0.00    -0.006 OA 
HETATM   41  H   UNL     1      -5.003   3.443  71.180  1.00  0.00     0.000 HD 
ENDBRANCH  38  39
ENDBRANCH  37  38
ENDBRANCH  36  37
ENDBRANCH  35  36
ENDBRANCH  34  35
ENDBRANCH  33  34
ENDBRANCH  32  33
ENDBRANCH  31  32
ENDBRANCH  30  31
ENDBRANCH  29  30
ENDBRANCH  28  29
ENDBRANCH  27  28
ENDBRANCH  26  27
ENDBRANCH  25  26
ENDBRANCH  24  25
ENDBRANCH  23  24
ENDBRANCH  22  23
ENDBRANCH  21  22
ENDBRANCH  20  21
ENDBRANCH  19  20
ENDBRANCH  18  19
ENDBRANCH  17  18
ENDBRANCH  16  17
ENDBRANCH  15  16
ENDBRANCH  14  15
ENDBRANCH  13  14
ENDBRANCH  12  13
ENDBRANCH  11  12
ENDBRANCH  10  11
ENDBRANCH   9  10
ENDBRANCH   8   9
ENDBRANCH   7   8
ENDBRANCH   6   7
ENDBRANCH   5   6
ENDBRANCH   4   5
ENDBRANCH   3   4
ENDBRANCH   2   3
TORSDOF 37
ENDMDL
MODEL      197
REMARK 921   NORMALIZED FREE ENERGY PREDICTED BY IDOCK:   -1.95 KCAL/MOL
REMARK 922        TOTAL FREE ENERGY PREDICTED BY IDOCK:   -9.78 KCAL/MOL
REMARK 923 INTER-LIGAND FREE ENERGY PREDICTED BY IDOCK:   -7.50 KCAL/MOL
REMARK 924 INTRA-LIGAND FREE ENERGY PREDICTED BY IDOCK:   -2.28 KCAL/MOL
REMARK 927      BINDING AFFINITY PREDICTED BY RF-SCORE:    0.00 PKD
ROOT
HETATM    1  C   UNL     1     -11.663  15.203  70.781  1.00  0.00    -0.370 C  
HETATM    2  C   UNL     1     -10.722  14.922  69.622  1.00  0.00    -0.245 C  
ENDROOT
BRANCH   2   3
HETATM    3  C   UNL     1     -11.168  15.660  68.363  1.00  0.00    -0.352 C  
BRANCH   3   4
HETATM    4  C   UNL     1     -10.829  14.863  67.105  1.00  0.00    -0.311 C  
BRANCH   4   5
HETATM    5  C   UNL     1     -12.067  14.153  66.564  1.00  0.00    -0.481 C  
BRANCH   5   6
HETATM    6  C   UNL     1     -11.690  12.842  65.883  1.00  0.00    -0.449 C  
BRANCH   6   7
HETATM    7  C   UNL     1     -10.572  13.063  64.869  1.00  0.00    -0.355 C  
BRANCH   7   8
HETATM    8  C   UNL     1      -9.510  11.978  64.997  1.00  0.00     0.028 C  
BRANCH   8   9
HETATM    9  C   UNL     1     -10.021  10.648  64.454  1.00  0.00    -0.415 C  
BRANCH   9  10
HETATM   10  C   UNL     1      -9.719  10.536  62.965  1.00  0.00    -0.337 C  
BRANCH  10  11
HETATM   11  C   UNL     1      -8.722   9.422  62.687  1.00  0.00    -0.234 C  
BRANCH  11  12
HETATM   12  C   UNL     1      -7.327   9.840  63.122  1.00  0.00    -0.121 C  
BRANCH  12  13
HETATM   13  O   UNL     1      -6.740   8.753  63.828  1.00  0.00    -0.087 OA 
BRANCH  13  14
HETATM   14  C   UNL     1      -6.817   8.966  65.233  1.00  0.00    -0.072 C  
BRANCH  14  15
HETATM   15  C   UNL     1      -7.100   7.644  65.924  1.00  0.00    -0.065 C  
BRANCH  15  16
HETATM   16  O   UNL     1      -7.889   6.845  65.050  1.00  0.00    -0.108 OA 
BRANCH  16  17
HETATM   17  C   UNL     1      -8.818   6.047  65.775  1.00  0.00    -0.135 C  
BRANCH  17  18
HETATM   18  C   UNL     1      -8.464   6.117  67.252  1.00  0.00    -0.104 C  
BRANCH  18  19
HETATM   19  O   UNL     1      -8.234   4.798  67.733  1.00  0.00    -0.100 OA 
BRANCH  19  20
HETATM   20  C   UNL     1      -9.455   4.156  68.107  1.00  0.00    -0.158 C  
BRANCH  20  21
HETATM   21  C   UNL     1      -9.141   2.729  68.538  1.00  0.00    -0.163 C  
BRANCH  21  22
HETATM   22  O   UNL     1      -9.380   2.611  69.943  1.00  0.00    -0.132 OA 
BRANCH  22  23
HETATM   23  C   UNL     1      -8.162   2.523  70.674  1.00  0.00    -0.049 C  
BRANCH  23  24
HETATM   24  C   UNL     1      -8.233   3.464  71.867  1.00  0.00    -0.063 C  
BRANCH  24  25
HETATM   25  O   UNL     1      -6.924   3.954  72.141  1.00  0.00    -0.044 OA 
BRANCH  25  26
HETATM   26  C   UNL     1      -6.893   4.692  73.357  1.00  0.00    -0.068 C  
BRANCH  26  27
HETATM   27  C   UNL     1      -8.163   5.524  73.457  1.00  0.00    -0.113 C  
BRANCH  27  28
HETATM   28  O   UNL     1      -7.979   6.538  74.440  1.00  0.00    -0.110 OA 
BRANCH  28  29
HETATM   29  C   UNL     1      -8.310   7.822  73.922  1.00  0.00    -0.227 C  
BRANCH  29  30
HETATM   30  C   UNL     1      -8.201   7.785  72.406  1.00  0.00    -0.121 C  
BRANCH  30  31
HETATM   31  O   UNL     1      -8.953   8.865  71.861  1.00  0.00    -0.331 OA 
BRANCH  31  32
HETATM   32  C   UNL     1      -8.959   8.824  70.436  1.00  0.00    -0.169 C  
BRANCH  32  33
HETATM   33  C   UNL     1      -9.909   7.727  69.977  1.00  0.00    -0.181 C  
BRANCH  33  34
HETATM   34  O   UNL     1     -11.106   8.321  69.482  1.00  0.00    -0.112 OA 
BRANCH  34  35
HETATM   35  C   UNL     1     -10.824   9.360  68.548  1.00  0.00    -0.105 C  
BRANCH  35  36
HETATM   36  C   UNL     1     -11.684  10.571  68.882  1.00  0.00    -0.146 C  
BRANCH  36  37
HETATM   37  O   UNL     1     -11.673  10.794  70.293  1.00  0.00    -0.295 OA 
BRANCH  37  38
HETATM   38  C   UNL     1     -13.008  10.910  70.802  1.00  0.00    -0.222 C  
BRANCH  38  39
HETATM   39  C   UNL     1     -13.174  12.303  71.398  1.00  0.00    -0.086 C  
HETATM   40  O   UNL     1     -13.276  12.214  72.819  1.00  0.00    -0.291 OA 
HETATM   41  H   UNL     1     -13.380  13.082  73.190  1.00  0.00     0.000 HD 
ENDBRANCH  38  39
ENDBRANCH  37  38
ENDBRANCH  36  37
ENDBRANCH  35  36
ENDBRANCH  34  35
ENDBRANCH  33  34
ENDBRANCH  32  33
ENDBRANCH  31  32
ENDBRANCH  30  31
ENDBRANCH  29  30
ENDBRANCH  28  29
ENDBRANCH  27  28
ENDBRANCH  26  27
ENDBRANCH  25  26
ENDBRANCH  24  25
ENDBRANCH  23  24
ENDBRANCH  22  23
ENDBRANCH  21  22
ENDBRANCH  20  21
ENDBRANCH  19  20
ENDBRANCH  18  19
ENDBRANCH  17  18
ENDBRANCH  16  17
ENDBRANCH  15  16
ENDBRANCH  14  15
ENDBRANCH  13  14
ENDBRANCH  12  13
ENDBRANCH  11  12
ENDBRANCH  10  11
ENDBRANCH   9  10
ENDBRANCH   8   9
ENDBRANCH   7   8
ENDBRANCH   6   7
ENDBRANCH   5   6
ENDBRANCH   4   5
ENDBRANCH   3   4
ENDBRANCH   2   3
TORSDOF 37
ENDMDL
MODEL      198
REMARK 921   NORMALIZED FREE ENERGY PREDICTED BY IDOCK:   -1.90 KCAL/MOL
REMARK 922        TOTAL FREE ENERGY PREDICTED BY IDOCK:   -9.62 KCAL/MOL
REMARK 923 INTER-LIGAND FREE ENERGY PREDICTED BY IDOCK:   -6.65 KCAL/MOL
REMARK 924 INTRA-LIGAND FREE ENERGY PREDICTED BY IDOCK:   -2.97 KCAL/MOL
REMARK 927      BINDING AFFINITY PREDICTED BY RF-SCORE:    0.00 PKD
ROOT
HETATM    1  C   UNL     1      -8.163  20.152  67.720  1.00  0.00    -0.302 C  
HETATM    2  C   UNL     1      -7.467  18.829  67.456  1.00  0.00    -0.241 C  
ENDROOT
BRANCH   2   3
HETATM    3  C   UNL     1      -8.030  18.152  66.209  1.00  0.00    -0.271 C  
BRANCH   3   4
HETATM    4  C   UNL     1      -8.756  16.856  66.563  1.00  0.00    -0.304 C  
BRANCH   4   5
HETATM    5  C   UNL     1     -10.267  17.073  66.594  1.00  0.00    -0.310 C  
BRANCH   5   6
HETATM    6  C   UNL     1     -10.754  17.316  68.018  1.00  0.00    -0.367 C  
BRANCH   6   7
HETATM    7  C   UNL     1     -11.734  16.229  68.446  1.00  0.00    -0.036 C  
BRANCH   7   8
HETATM    8  C   UNL     1     -10.997  15.073  69.111  1.00  0.00    -0.265 C  
BRANCH   8   9
HETATM    9  C   UNL     1     -11.324  13.751  68.424  1.00  0.00    -0.326 C  
BRANCH   9  10
HETATM   10  C   UNL     1     -10.254  13.415  67.393  1.00  0.00    -0.237 C  
BRANCH  10  11
HETATM   11  C   UNL     1      -8.861  13.494  67.999  1.00  0.00    -0.181 C  
BRANCH  11  12
HETATM   12  C   UNL     1      -8.320  12.099  68.263  1.00  0.00    -0.172 C  
BRANCH  12  13
HETATM   13  O   UNL     1      -9.034  11.185  67.440  1.00  0.00    -0.138 OA 
BRANCH  13  14
HETATM   14  C   UNL     1      -8.417  11.070  66.163  1.00  0.00    -0.168 C  
BRANCH  14  15
HETATM   15  C   UNL     1      -7.127  10.281  66.299  1.00  0.00    -0.117 C  
BRANCH  15  16
HETATM   16  O   UNL     1      -7.300   9.323  67.338  1.00  0.00    -0.086 OA 
BRANCH  16  17
HETATM   17  C   UNL     1      -7.465   8.012  66.810  1.00  0.00    -0.090 C  
BRANCH  17  18
HETATM   18  C   UNL     1      -6.356   7.754  65.803  1.00  0.00    -0.042 C  
BRANCH  18  19
HETATM   19  O   UNL     1      -6.876   6.971  64.735  1.00  0.00    -0.045 OA 
BRANCH  19  20
HETATM   20  C   UNL     1      -6.281   5.672  64.699  1.00  0.00    -0.025 C  
BRANCH  20  21
HETATM   21  C   UNL     1      -7.353   4.639  65.024  1.00  0.00    -0.072 C  
BRANCH  21  22
HETATM   22  O   UNL     1      -7.325   4.375  66.430  1.00  0.00    -0.078 OA 
BRANCH  22  23
HETATM   23  C   UNL     1      -8.096   3.227  66.761  1.00  0.00    -0.080 C  
BRANCH  23  24
HETATM   24  C   UNL     1      -9.441   3.677  67.310  1.00  0.00    -0.196 C  
BRANCH  24  25
HETATM   25  O   UNL     1      -9.393   5.082  67.543  1.00  0.00    -0.117 OA 
BRANCH  25  26
HETATM   26  C   UNL     1     -10.694   5.613  67.764  1.00  0.00    -0.166 C  
BRANCH  26  27
HETATM   27  C   UNL     1     -10.583   6.811  68.696  1.00  0.00    -0.227 C  
BRANCH  27  28
HETATM   28  O   UNL     1     -11.510   6.655  69.766  1.00  0.00    -0.351 OA 
BRANCH  28  29
HETATM   29  C   UNL     1     -11.278   7.618  70.789  1.00  0.00    -0.268 C  
BRANCH  29  30
HETATM   30  C   UNL     1     -12.045   7.207  72.036  1.00  0.00    -0.292 C  
BRANCH  30  31
HETATM   31  O   UNL     1     -11.910   5.801  72.220  1.00  0.00    -0.273 OA 
BRANCH  31  32
HETATM   32  C   UNL     1     -10.718   5.485  72.936  1.00  0.00    -0.249 C  
BRANCH  32  33
HETATM   33  C   UNL     1     -10.020   4.323  72.244  1.00  0.00    -0.172 C  
BRANCH  33  34
HETATM   34  O   UNL     1      -9.086   4.835  71.297  1.00  0.00    -0.131 OA 
BRANCH  34  35
HETATM   35  C   UNL     1      -8.197   5.774  71.896  1.00  0.00    -0.119 C  
BRANCH  35  36
HETATM   36  C   UNL     1      -7.135   5.016  72.681  1.00  0.00    -0.083 C  
BRANCH  36  37
HETATM   37  O   UNL     1      -5.837   5.468  72.294  1.00  0.00    -0.024 OA 
BRANCH  37  38
HETATM   38  C   UNL     1      -5.306   4.655  71.239  1.00  0.00    -0.004 C  
BRANCH  38  39
HETATM   39  C   UNL     1      -5.154   5.523  69.995  1.00  0.00    -0.004 C  
HETATM   40  O   UNL     1      -6.128   5.150  69.021  1.00  0.00    -0.023 OA 
HETATM   41  H   UNL     1      -6.033   5.691  68.246  1.00  0.00     0.000 HD 
ENDBRANCH  38  39
ENDBRANCH  37  38
ENDBRANCH  36  37
ENDBRANCH  35  36
ENDBRANCH  34  35
ENDBRANCH  33  34
ENDBRANCH  32  33
ENDBRANCH  31  32
ENDBRANCH  30  31
ENDBRANCH  29  30
ENDBRANCH  28  29
ENDBRANCH  27  28
ENDBRANCH  26  27
ENDBRANCH  25  26
ENDBRANCH  24  25
ENDBRANCH  23  24
ENDBRANCH  22  23
ENDBRANCH  21  22
ENDBRANCH  20  21
ENDBRANCH  19  20
ENDBRANCH  18  19
ENDBRANCH  17  18
ENDBRANCH  16  17
ENDBRANCH  15  16
ENDBRANCH  14  15
ENDBRANCH  13  14
ENDBRANCH  12  13
ENDBRANCH  11  12
ENDBRANCH  10  11
ENDBRANCH   9  10
ENDBRANCH   8   9
ENDBRANCH   7   8
ENDBRANCH   6   7
ENDBRANCH   5   6
ENDBRANCH   4   5
ENDBRANCH   3   4
ENDBRANCH   2   3
TORSDOF 37
ENDMDL
MODEL      199
REMARK 921   NORMALIZED FREE ENERGY PREDICTED BY IDOCK:   -1.88 KCAL/MOL
REMARK 922        TOTAL FREE ENERGY PREDICTED BY IDOCK:   -9.58 KCAL/MOL
REMARK 923 INTER-LIGAND FREE ENERGY PREDICTED BY IDOCK:   -8.91 KCAL/MOL
REMARK 924 INTRA-LIGAND FREE ENERGY PREDICTED BY IDOCK:   -0.67 KCAL/MOL
REMARK 927      BINDING AFFINITY PREDICTED BY RF-SCORE:    0.00 PKD
ROOT
HETATM    1  C   UNL     1      -7.035  18.740  69.561  1.00  0.00    -0.096 C  
HETATM    2  C   UNL     1      -5.979  17.778  69.045  1.00  0.00    -0.201 C  
ENDROOT
BRANCH   2   3
HETATM    3  C   UNL     1      -6.440  16.330  69.186  1.00  0.00    -0.175 C  
BRANCH   3   4
HETATM    4  C   UNL     1      -6.321  15.580  67.862  1.00  0.00    -0.169 C  
BRANCH   4   5
HETATM    5  C   UNL     1      -7.701  15.316  67.264  1.00  0.00    -0.243 C  
BRANCH   5   6
HETATM    6  C   UNL     1      -8.638  16.491  67.515  1.00  0.00    -0.188 C  
BRANCH   6   7
HETATM    7  C   UNL     1      -9.931  16.020  68.171  1.00  0.00    -0.228 C  
BRANCH   7   8
HETATM    8  C   UNL     1     -11.034  15.864  67.132  1.00  0.00    -0.214 C  
BRANCH   8   9
HETATM    9  C   UNL     1     -10.550  15.041  65.943  1.00  0.00    -0.338 C  
BRANCH   9  10
HETATM   10  C   UNL     1     -10.642  13.554  66.259  1.00  0.00    -0.288 C  
BRANCH  10  11
HETATM   11  C   UNL     1     -12.091  13.100  66.354  1.00  0.00    -0.447 C  
BRANCH  11  12
HETATM   12  C   UNL     1     -12.707  13.007  64.968  1.00  0.00    -0.410 C  
BRANCH  12  13
HETATM   13  O   UNL     1     -12.157  11.870  64.314  1.00  0.00    -0.319 OA 
BRANCH  13  14
HETATM   14  C   UNL     1     -11.355  12.267  63.207  1.00  0.00    -0.336 C  
BRANCH  14  15
HETATM   15  C   UNL     1      -9.899  11.953  63.505  1.00  0.00    -0.336 C  
BRANCH  15  16
HETATM   16  O   UNL     1      -9.794  10.563  63.792  1.00  0.00    -0.305 OA 
BRANCH  16  17
HETATM   17  C   UNL     1      -9.100   9.873  62.758  1.00  0.00    -0.284 C  
BRANCH  17  18
HETATM   18  C   UNL     1      -7.608   9.954  63.041  1.00  0.00    -0.132 C  
BRANCH  18  19
HETATM   19  O   UNL     1      -7.040   8.659  62.891  1.00  0.00    -0.090 OA 
BRANCH  19  20
HETATM   20  C   UNL     1      -7.970   7.634  63.249  1.00  0.00    -0.102 C  
BRANCH  20  21
HETATM   21  C   UNL     1      -7.244   6.295  63.237  1.00  0.00    -0.058 C  
BRANCH  21  22
HETATM   22  O   UNL     1      -6.149   6.359  64.156  1.00  0.00    -0.026 OA 
BRANCH  22  23
HETATM   23  C   UNL     1      -6.494   7.084  65.330  1.00  0.00    -0.047 C  
BRANCH  23  24
HETATM   24  C   UNL     1      -6.934   6.102  66.405  1.00  0.00    -0.067 C  
BRANCH  24  25
HETATM   25  O   UNL     1      -6.748   4.776  65.917  1.00  0.00    -0.050 OA 
BRANCH  25  26
HETATM   26  C   UNL     1      -7.629   3.862  66.558  1.00  0.00    -0.088 C  
BRANCH  26  27
HETATM   27  C   UNL     1      -8.993   3.943  65.889  1.00  0.00    -0.132 C  
BRANCH  27  28
HETATM   28  O   UNL     1      -9.960   4.349  66.851  1.00  0.00    -0.213 OA 
BRANCH  28  29
HETATM   29  C   UNL     1     -10.344   5.706  66.652  1.00  0.00    -0.256 C  
BRANCH  29  30
HETATM   30  C   UNL     1     -10.712   6.316  67.995  1.00  0.00    -0.295 C  
BRANCH  30  31
HETATM   31  O   UNL     1     -10.365   5.402  69.030  1.00  0.00    -0.217 OA 
BRANCH  31  32
HETATM   32  C   UNL     1      -9.319   5.918  69.848  1.00  0.00    -0.150 C  
BRANCH  32  33
HETATM   33  C   UNL     1      -9.764   5.881  71.303  1.00  0.00    -0.173 C  
BRANCH  33  34
HETATM   34  O   UNL     1      -9.458   7.130  71.919  1.00  0.00    -0.147 OA 
BRANCH  34  35
HETATM   35  C   UNL     1      -9.500   8.198  70.977  1.00  0.00    -0.156 C  
BRANCH  35  36
HETATM   36  C   UNL     1     -10.798   8.972  71.165  1.00  0.00    -0.294 C  
BRANCH  36  37
HETATM   37  O   UNL     1     -11.879   8.058  71.361  1.00  0.00    -0.283 OA 
BRANCH  37  38
HETATM   38  C   UNL     1     -12.816   8.573  72.316  1.00  0.00    -0.355 C  
BRANCH  38  39
HETATM   39  C   UNL     1     -14.207   8.529  71.693  1.00  0.00    -0.421 C  
HETATM   40  O   UNL     1     -14.319   7.396  70.834  1.00  0.00    -0.584 OA 
HETATM   41  H   UNL     1     -15.185   7.369  70.446  1.00  0.00     0.000 HD 
ENDBRANCH  38  39
ENDBRANCH  37  38
ENDBRANCH  36  37
ENDBRANCH  35  36
ENDBRANCH  34  35
ENDBRANCH  33  34
ENDBRANCH  32  33
ENDBRANCH  31  32
ENDBRANCH  30  31
ENDBRANCH  29  30
ENDBRANCH  28  29
ENDBRANCH  27  28
ENDBRANCH  26  27
ENDBRANCH  25  26
ENDBRANCH  24  25
ENDBRANCH  23  24
ENDBRANCH  22  23
ENDBRANCH  21  22
ENDBRANCH  20  21
ENDBRANCH  19  20
ENDBRANCH  18  19
ENDBRANCH  17  18
ENDBRANCH  16  17
ENDBRANCH  15  16
ENDBRANCH  14  15
ENDBRANCH  13  14
ENDBRANCH  12  13
ENDBRANCH  11  12
ENDBRANCH  10  11
ENDBRANCH   9  10
ENDBRANCH   8   9
ENDBRANCH   7   8
ENDBRANCH   6   7
ENDBRANCH   5   6
ENDBRANCH   4   5
ENDBRANCH   3   4
ENDBRANCH   2   3
TORSDOF 37
ENDMDL
MODEL      200
REMARK 921   NORMALIZED FREE ENERGY PREDICTED BY IDOCK:   -1.85 KCAL/MOL
REMARK 922        TOTAL FREE ENERGY PREDICTED BY IDOCK:   -9.46 KCAL/MOL
REMARK 923 INTER-LIGAND FREE ENERGY PREDICTED BY IDOCK:   -8.86 KCAL/MOL
REMARK 924 INTRA-LIGAND FREE ENERGY PREDICTED BY IDOCK:   -0.60 KCAL/MOL
REMARK 927      BINDING AFFINITY PREDICTED BY RF-SCORE:    0.00 PKD
ROOT
HETATM    1  C   UNL     1      -8.513  14.847  69.512  1.00  0.00    -0.004 C  
HETATM    2  C   UNL     1      -8.180  16.004  68.586  1.00  0.00    -0.193 C  
ENDROOT
BRANCH   2   3
HETATM    3  C   UNL     1      -6.675  16.257  68.543  1.00  0.00    -0.135 C  
BRANCH   3   4
HETATM    4  C   UNL     1      -6.169  16.339  67.105  1.00  0.00    -0.176 C  
BRANCH   4   5
HETATM    5  C   UNL     1      -5.989  17.794  66.677  1.00  0.00    -0.204 C  
BRANCH   5   6
HETATM    6  C   UNL     1      -5.817  18.701  67.890  1.00  0.00    -0.189 C  
BRANCH   6   7
HETATM    7  C   UNL     1      -7.158  19.284  68.322  1.00  0.00    -0.315 C  
BRANCH   7   8
HETATM    8  C   UNL     1      -7.516  20.495  67.471  1.00  0.00    -0.354 C  
BRANCH   8   9
HETATM    9  C   UNL     1      -7.989  20.067  66.086  1.00  0.00    -0.315 C  
BRANCH   9  10
HETATM   10  C   UNL     1      -9.488  19.799  66.101  1.00  0.00    -0.464 C  
BRANCH  10  11
HETATM   11  C   UNL     1      -9.938  19.259  67.450  1.00  0.00    -0.462 C  
BRANCH  11  12
HETATM   12  C   UNL     1     -10.843  18.054  67.261  1.00  0.00    -0.197 C  
BRANCH  12  13
HETATM   13  O   UNL     1     -10.207  17.160  66.356  1.00  0.00    -0.311 OA 
BRANCH  13  14
HETATM   14  C   UNL     1     -10.868  17.167  65.095  1.00  0.00     0.001 C  
BRANCH  14  15
HETATM   15  C   UNL     1     -11.101  15.736  64.645  1.00  0.00    -0.361 C  
BRANCH  15  16
HETATM   16  O   UNL     1     -11.272  14.927  65.803  1.00  0.00    -0.335 OA 
BRANCH  16  17
HETATM   17  C   UNL     1     -12.315  13.975  65.620  1.00  0.00    -0.479 C  
BRANCH  17  18
HETATM   18  C   UNL     1     -11.850  12.639  66.175  1.00  0.00    -0.418 C  
BRANCH  18  19
HETATM   19  O   UNL     1     -12.196  12.566  67.553  1.00  0.00    -0.418 OA 
BRANCH  19  20
HETATM   20  C   UNL     1     -11.203  11.869  68.307  1.00  0.00    -0.261 C  
BRANCH  20  21
HETATM   21  C   UNL     1     -10.055  11.502  67.376  1.00  0.00    -0.191 C  
BRANCH  21  22
HETATM   22  O   UNL     1      -9.663  10.152  67.643  1.00  0.00    -0.157 OA 
BRANCH  22  23
HETATM   23  C   UNL     1      -8.252  10.036  67.783  1.00  0.00    -0.113 C  
BRANCH  23  24
HETATM   24  C   UNL     1      -7.857  10.470  69.186  1.00  0.00    -0.138 C  
BRANCH  24  25
HETATM   25  O   UNL     1      -7.241   9.369  69.849  1.00  0.00    -0.064 OA 
BRANCH  25  26
HETATM   26  C   UNL     1      -6.466   8.590  68.946  1.00  0.00    -0.049 C  
BRANCH  26  27
HETATM   27  C   UNL     1      -6.490   7.139  69.404  1.00  0.00    -0.036 C  
BRANCH  27  28
HETATM   28  O   UNL     1      -6.028   7.068  70.749  1.00  0.00    -0.027 OA 
BRANCH  28  29
HETATM   29  C   UNL     1      -5.760   5.722  71.129  1.00  0.00    -0.017 C  
BRANCH  29  30
HETATM   30  C   UNL     1      -6.646   4.794  70.314  1.00  0.00    -0.036 C  
BRANCH  30  31
HETATM   31  O   UNL     1      -7.289   3.877  71.193  1.00  0.00    -0.039 OA 
BRANCH  31  32
HETATM   32  C   UNL     1      -8.666   4.203  71.364  1.00  0.00    -0.106 C  
BRANCH  32  33
HETATM   33  C   UNL     1      -8.885   4.696  72.787  1.00  0.00    -0.117 C  
BRANCH  33  34
HETATM   34  O   UNL     1     -10.284   4.776  73.046  1.00  0.00    -0.157 OA 
BRANCH  34  35
HETATM   35  C   UNL     1     -10.691   6.118  73.299  1.00  0.00    -0.260 C  
BRANCH  35  36
HETATM   36  C   UNL     1     -11.891   6.443  72.421  1.00  0.00    -0.213 C  
BRANCH  36  37
HETATM   37  O   UNL     1     -11.758   7.763  71.892  1.00  0.00    -0.270 OA 
BRANCH  37  38
HETATM   38  C   UNL     1     -12.885   8.573  72.251  1.00  0.00    -0.355 C  
BRANCH  38  39
HETATM   39  C   UNL     1     -12.770   9.905  71.518  1.00  0.00    -0.415 C  
HETATM   40  O   UNL     1     -13.479   9.842  70.282  1.00  0.00    -0.508 OA 
HETATM   41  H   UNL     1     -13.408  10.672  69.826  1.00  0.00     0.000 HD 
ENDBRANCH  38  39
ENDBRANCH  37  38
ENDBRANCH  36  37
ENDBRANCH  35  36
ENDBRANCH  34  35
ENDBRANCH  33  34
ENDBRANCH  32  33
ENDBRANCH  31  32
ENDBRANCH  30  31
ENDBRANCH  29  30
ENDBRANCH  28  29
ENDBRANCH  27  28
ENDBRANCH  26  27
ENDBRANCH  25  26
ENDBRANCH  24  25
ENDBRANCH  23  24
ENDBRANCH  22  23
ENDBRANCH  21  22
ENDBRANCH  20  21
ENDBRANCH  19  20
ENDBRANCH  18  19
ENDBRANCH  17  18
ENDBRANCH  16  17
ENDBRANCH  15  16
ENDBRANCH  14  15
ENDBRANCH  13  14
ENDBRANCH  12  13
ENDBRANCH  11  12
ENDBRANCH  10  11
ENDBRANCH   9  10
ENDBRANCH   8   9
ENDBRANCH   7   8
ENDBRANCH   6   7
ENDBRANCH   5   6
ENDBRANCH   4   5
ENDBRANCH   3   4
ENDBRANCH   2   3
TORSDOF 37
ENDMDL
MODEL      201
REMARK 921   NORMALIZED FREE ENERGY PREDICTED BY IDOCK:   -1.85 KCAL/MOL
REMARK 922        TOTAL FREE ENERGY PREDICTED BY IDOCK:   -9.46 KCAL/MOL
REMARK 923 INTER-LIGAND FREE ENERGY PREDICTED BY IDOCK:   -7.83 KCAL/MOL
REMARK 924 INTRA-LIGAND FREE ENERGY PREDICTED BY IDOCK:   -1.64 KCAL/MOL
REMARK 927      BINDING AFFINITY PREDICTED BY RF-SCORE:    0.00 PKD
ROOT
HETATM    1  C   UNL     1      -9.773   2.969  71.131  1.00  0.00    -0.192 C  
HETATM    2  C   UNL     1      -8.752   2.362  70.184  1.00  0.00    -0.121 C  
ENDROOT
BRANCH   2   3
HETATM    3  C   UNL     1      -8.184   3.418  69.240  1.00  0.00    -0.076 C  
BRANCH   3   4
HETATM    4  C   UNL     1      -8.358   4.823  69.812  1.00  0.00    -0.078 C  
BRANCH   4   5
HETATM    5  C   UNL     1      -7.002   5.447  70.134  1.00  0.00    -0.057 C  
BRANCH   5   6
HETATM    6  C   UNL     1      -6.026   5.256  68.979  1.00  0.00    -0.021 C  
BRANCH   6   7
HETATM    7  C   UNL     1      -6.662   5.678  67.659  1.00  0.00    -0.059 C  
BRANCH   7   8
HETATM    8  C   UNL     1      -6.372   7.144  67.368  1.00  0.00    -0.050 C  
BRANCH   8   9
HETATM    9  C   UNL     1      -6.820   7.520  65.959  1.00  0.00    -0.057 C  
BRANCH   9  10
HETATM   10  C   UNL     1      -8.274   7.118  65.745  1.00  0.00    -0.132 C  
BRANCH  10  11
HETATM   11  C   UNL     1      -9.165   7.663  66.851  1.00  0.00    -0.179 C  
BRANCH  11  12
HETATM   12  C   UNL     1     -10.486   6.913  66.883  1.00  0.00    -0.279 C  
BRANCH  12  13
HETATM   13  O   UNL     1     -11.126   7.199  68.121  1.00  0.00    -0.087 OA 
BRANCH  13  14
HETATM   14  C   UNL     1     -10.297   8.016  68.939  1.00  0.00    -0.209 C  
BRANCH  14  15
HETATM   15  C   UNL     1     -11.102   9.202  69.441  1.00  0.00    -0.008 C  
BRANCH  15  16
HETATM   16  O   UNL     1     -10.237  10.036  70.203  1.00  0.00    -0.262 OA 
BRANCH  16  17
HETATM   17  C   UNL     1      -9.338  10.753  69.364  1.00  0.00     0.003 C  
BRANCH  17  18
HETATM   18  C   UNL     1      -7.916  10.415  69.781  1.00  0.00    -0.067 C  
BRANCH  18  19
HETATM   19  O   UNL     1      -7.011  11.164  68.981  1.00  0.00    -0.082 OA 
BRANCH  19  20
HETATM   20  C   UNL     1      -7.146  10.842  67.595  1.00  0.00    -0.087 C  
BRANCH  20  21
HETATM   21  C   UNL     1      -8.186  11.771  66.980  1.00  0.00    -0.172 C  
BRANCH  21  22
HETATM   22  O   UNL     1      -9.069  10.994  66.166  1.00  0.00    -0.180 OA 
BRANCH  22  23
HETATM   23  C   UNL     1      -8.513  10.747  64.880  1.00  0.00    -0.055 C  
BRANCH  23  24
HETATM   24  C   UNL     1      -9.642  10.490  63.894  1.00  0.00    -0.309 C  
BRANCH  24  25
HETATM   25  O   UNL     1      -9.612  11.501  62.890  1.00  0.00    -0.380 OA 
BRANCH  25  26
HETATM   26  C   UNL     1     -10.576  12.514  63.148  1.00  0.00     0.182 C  
BRANCH  26  27
HETATM   27  C   UNL     1     -11.871  11.855  63.600  1.00  0.00    -0.473 C  
BRANCH  27  28
HETATM   28  O   UNL     1     -12.714  12.840  64.188  1.00  0.00    -0.658 OA 
BRANCH  28  29
HETATM   29  C   UNL     1     -11.994  13.643  65.117  1.00  0.00    -0.372 C  
BRANCH  29  30
HETATM   30  C   UNL     1     -11.985  12.946  66.469  1.00  0.00    -0.377 C  
BRANCH  30  31
HETATM   31  O   UNL     1     -12.215  13.912  67.489  1.00  0.00    -0.366 OA 
BRANCH  31  32
HETATM   32  C   UNL     1     -11.138  13.946  68.422  1.00  0.00    -0.255 C  
BRANCH  32  33
HETATM   33  C   UNL     1     -11.408  15.037  69.449  1.00  0.00    -0.297 C  
BRANCH  33  34
HETATM   34  O   UNL     1     -10.212  15.781  69.667  1.00  0.00    -0.256 OA 
BRANCH  34  35
HETATM   35  C   UNL     1      -9.728  16.354  68.455  1.00  0.00    -0.228 C  
BRANCH  35  36
HETATM   36  C   UNL     1      -9.996  17.852  68.476  1.00  0.00    -0.379 C  
BRANCH  36  37
HETATM   37  O   UNL     1      -9.007  18.529  67.699  1.00  0.00    -0.268 OA 
BRANCH  37  38
HETATM   38  C   UNL     1      -7.719  18.442  68.322  1.00  0.00    -0.293 C  
BRANCH  38  39
HETATM   39  C   UNL     1      -7.383  19.803  68.920  1.00  0.00    -0.292 C  
HETATM   40  O   UNL     1      -6.676  20.592  67.964  1.00  0.00    -0.301 OA 
HETATM   41  H   UNL     1      -6.466  21.440  68.337  1.00  0.00     0.000 HD 
ENDBRANCH  38  39
ENDBRANCH  37  38
ENDBRANCH  36  37
ENDBRANCH  35  36
ENDBRANCH  34  35
ENDBRANCH  33  34
ENDBRANCH  32  33
ENDBRANCH  31  32
ENDBRANCH  30  31
ENDBRANCH  29  30
ENDBRANCH  28  29
ENDBRANCH  27  28
ENDBRANCH  26  27
ENDBRANCH  25  26
ENDBRANCH  24  25
ENDBRANCH  23  24
ENDBRANCH  22  23
ENDBRANCH  21  22
ENDBRANCH  20  21
ENDBRANCH  19  20
ENDBRANCH  18  19
ENDBRANCH  17  18
ENDBRANCH  16  17
ENDBRANCH  15  16
ENDBRANCH  14  15
ENDBRANCH  13  14
ENDBRANCH  12  13
ENDBRANCH  11  12
ENDBRANCH  10  11
ENDBRANCH   9  10
ENDBRANCH   8   9
ENDBRANCH   7   8
ENDBRANCH   6   7
ENDBRANCH   5   6
ENDBRANCH   4   5
ENDBRANCH   3   4
ENDBRANCH   2   3
TORSDOF 37
ENDMDL
MODEL      202
REMARK 921   NORMALIZED FREE ENERGY PREDICTED BY IDOCK:   -1.76 KCAL/MOL
REMARK 922        TOTAL FREE ENERGY PREDICTED BY IDOCK:   -9.18 KCAL/MOL
REMARK 923 INTER-LIGAND FREE ENERGY PREDICTED BY IDOCK:   -7.59 KCAL/MOL
REMARK 924 INTRA-LIGAND FREE ENERGY PREDICTED BY IDOCK:   -1.58 KCAL/MOL
REMARK 927      BINDING AFFINITY PREDICTED BY RF-SCORE:    0.00 PKD
ROOT
HETATM    1  C   UNL     1     -11.266   3.233  73.660  1.00  0.00    -0.280 C  
HETATM    2  C   UNL     1     -10.776   4.669  73.728  1.00  0.00    -0.356 C  
ENDROOT
BRANCH   2   3
HETATM    3  C   UNL     1     -10.427   5.197  72.339  1.00  0.00    -0.272 C  
BRANCH   3   4
HETATM    4  C   UNL     1     -10.297   6.718  72.342  1.00  0.00    -0.218 C  
BRANCH   4   5
HETATM    5  C   UNL     1      -8.843   7.137  72.134  1.00  0.00    -0.140 C  
BRANCH   5   6
HETATM    6  C   UNL     1      -7.985   6.733  73.327  1.00  0.00    -0.109 C  
BRANCH   6   7
HETATM    7  C   UNL     1      -6.812   5.867  72.880  1.00  0.00    -0.075 C  
BRANCH   7   8
HETATM    8  C   UNL     1      -6.820   5.692  71.366  1.00  0.00    -0.062 C  
BRANCH   8   9
HETATM    9  C   UNL     1      -7.150   4.252  70.985  1.00  0.00    -0.037 C  
BRANCH   9  10
HETATM   10  C   UNL     1      -6.283   3.806  69.816  1.00  0.00    -0.028 C  
BRANCH  10  11
HETATM   11  C   UNL     1      -5.969   4.969  68.887  1.00  0.00    -0.021 C  
BRANCH  11  12
HETATM   12  C   UNL     1      -7.057   5.117  67.838  1.00  0.00    -0.066 C  
BRANCH  12  13
HETATM   13  O   UNL     1      -6.501   4.781  66.573  1.00  0.00    -0.039 OA 
BRANCH  13  14
HETATM   14  C   UNL     1      -7.402   3.971  65.827  1.00  0.00    -0.076 C  
BRANCH  14  15
HETATM   15  C   UNL     1      -7.113   4.135  64.345  1.00  0.00    -0.050 C  
BRANCH  15  16
HETATM   16  O   UNL     1      -8.185   4.866  63.761  1.00  0.00    -0.108 OA 
BRANCH  16  17
HETATM   17  C   UNL     1      -8.031   6.266  63.967  1.00  0.00    -0.099 C  
BRANCH  17  18
HETATM   18  C   UNL     1      -7.511   6.888  62.682  1.00  0.00    -0.085 C  
BRANCH  18  19
HETATM   19  O   UNL     1      -8.312   8.019  62.361  1.00  0.00    -0.173 OA 
BRANCH  19  20
HETATM   20  C   UNL     1      -7.547   9.226  62.379  1.00  0.00    -0.105 C  
BRANCH  20  21
HETATM   21  C   UNL     1      -8.155  10.172  63.407  1.00  0.00    -0.161 C  
BRANCH  21  22
HETATM   22  O   UNL     1      -9.561   9.922  63.484  1.00  0.00    -0.212 OA 
BRANCH  22  23
HETATM   23  C   UNL     1     -10.103  10.364  64.722  1.00  0.00    -0.317 C  
BRANCH  23  24
HETATM   24  C   UNL     1     -10.699  11.751  64.534  1.00  0.00    -0.315 C  
BRANCH  24  25
HETATM   25  O   UNL     1     -11.081  12.262  65.808  1.00  0.00    -0.298 OA 
BRANCH  25  26
HETATM   26  C   UNL     1     -10.771  13.645  65.924  1.00  0.00    -0.281 C  
BRANCH  26  27
HETATM   27  C   UNL     1     -10.700  14.010  67.400  1.00  0.00    -0.283 C  
BRANCH  27  28
HETATM   28  O   UNL     1      -9.425  14.580  67.677  1.00  0.00    -0.203 OA 
BRANCH  28  29
HETATM   29  C   UNL     1      -8.379  13.649  67.417  1.00  0.00    -0.192 C  
BRANCH  29  30
HETATM   30  C   UNL     1      -7.158  14.038  68.235  1.00  0.00    -0.110 C  
BRANCH  30  31
HETATM   31  O   UNL     1      -6.230  14.712  67.390  1.00  0.00    -0.332 OA 
BRANCH  31  32
HETATM   32  C   UNL     1      -5.628  15.816  68.061  1.00  0.00    -0.130 C  
BRANCH  32  33
HETATM   33  C   UNL     1      -6.322  16.022  69.399  1.00  0.00    -0.169 C  
BRANCH  33  34
HETATM   34  O   UNL     1      -6.889  17.329  69.437  1.00  0.00    -0.237 OA 
BRANCH  34  35
HETATM   35  C   UNL     1      -7.034  17.872  68.128  1.00  0.00    -0.218 C  
BRANCH  35  36
HETATM   36  C   UNL     1      -6.930  19.389  68.208  1.00  0.00    -0.282 C  
BRANCH  36  37
HETATM   37  O   UNL     1      -8.173  19.977  67.824  1.00  0.00    -0.304 OA 
BRANCH  37  38
HETATM   38  C   UNL     1      -8.563  19.540  66.516  1.00  0.00    -0.348 C  
BRANCH  38  39
HETATM   39  C   UNL     1      -9.880  18.781  66.638  1.00  0.00    -0.356 C  
HETATM   40  O   UNL     1     -10.964  19.702  66.740  1.00  0.00    -0.444 OA 
HETATM   41  H   UNL     1     -11.784  19.229  66.815  1.00  0.00     0.000 HD 
ENDBRANCH  38  39
ENDBRANCH  37  38
ENDBRANCH  36  37
ENDBRANCH  35  36
ENDBRANCH  34  35
ENDBRANCH  33  34
ENDBRANCH  32  33
ENDBRANCH  31  32
ENDBRANCH  30  31
ENDBRANCH  29  30
ENDBRANCH  28  29
ENDBRANCH  27  28
ENDBRANCH  26  27
ENDBRANCH  25  26
ENDBRANCH  24  25
ENDBRANCH  23  24
ENDBRANCH  22  23
ENDBRANCH  21  22
ENDBRANCH  20  21
ENDBRANCH  19  20
ENDBRANCH  18  19
ENDBRANCH  17  18
ENDBRANCH  16  17
ENDBRANCH  15  16
ENDBRANCH  14  15
ENDBRANCH  13  14
ENDBRANCH  12  13
ENDBRANCH  11  12
ENDBRANCH  10  11
ENDBRANCH   9  10
ENDBRANCH   8   9
ENDBRANCH   7   8
ENDBRANCH   6   7
ENDBRANCH   5   6
ENDBRANCH   4   5
ENDBRANCH   3   4
ENDBRANCH   2   3
TORSDOF 37
ENDMDL
MODEL      203
REMARK 921   NORMALIZED FREE ENERGY PREDICTED BY IDOCK:   -1.75 KCAL/MOL
REMARK 922        TOTAL FREE ENERGY PREDICTED BY IDOCK:   -9.15 KCAL/MOL
REMARK 923 INTER-LIGAND FREE ENERGY PREDICTED BY IDOCK:   -7.05 KCAL/MOL
REMARK 924 INTRA-LIGAND FREE ENERGY PREDICTED BY IDOCK:   -2.10 KCAL/MOL
REMARK 927      BINDING AFFINITY PREDICTED BY RF-SCORE:    0.00 PKD
ROOT
HETATM    1  C   UNL     1     -12.391  11.260  71.391  1.00  0.00    -0.308 C  
HETATM    2  C   UNL     1     -11.865   9.862  71.664  1.00  0.00    -0.374 C  
ENDROOT
BRANCH   2   3
HETATM    3  C   UNL     1     -11.459   9.165  70.368  1.00  0.00    -0.228 C  
BRANCH   3   4
HETATM    4  C   UNL     1     -11.517  10.126  69.182  1.00  0.00    -0.155 C  
BRANCH   4   5
HETATM    5  C   UNL     1     -10.497   9.732  68.117  1.00  0.00    -0.258 C  
BRANCH   5   6
HETATM    6  C   UNL     1     -10.746  10.490  66.818  1.00  0.00    -0.252 C  
BRANCH   6   7
HETATM    7  C   UNL     1     -11.727  11.636  67.042  1.00  0.00    -0.176 C  
BRANCH   7   8
HETATM    8  C   UNL     1     -12.098  12.292  65.718  1.00  0.00    -0.287 C  
BRANCH   8   9
HETATM    9  C   UNL     1     -11.771  13.781  65.736  1.00  0.00    -0.365 C  
BRANCH   9  10
HETATM   10  C   UNL     1     -12.215  14.433  64.433  1.00  0.00    -0.481 C  
BRANCH  10  11
HETATM   11  C   UNL     1     -11.355  15.644  64.101  1.00  0.00    -0.033 C  
BRANCH  11  12
HETATM   12  C   UNL     1     -10.787  16.252  65.372  1.00  0.00    -0.273 C  
BRANCH  12  13
HETATM   13  O   UNL     1     -10.051  17.416  65.014  1.00  0.00    -0.001 OA 
BRANCH  13  14
HETATM   14  C   UNL     1      -9.434  17.992  66.160  1.00  0.00    -0.146 C  
BRANCH  14  15
HETATM   15  C   UNL     1     -10.418  18.926  66.841  1.00  0.00    -0.427 C  
BRANCH  15  16
HETATM   16  O   UNL     1     -10.410  18.641  68.235  1.00  0.00    -0.374 OA 
BRANCH  16  17
HETATM   17  C   UNL     1     -10.570  17.247  68.479  1.00  0.00    -0.350 C  
BRANCH  17  18
HETATM   18  C   UNL     1     -10.677  17.030  69.980  1.00  0.00     0.199 C  
BRANCH  18  19
HETATM   19  O   UNL     1     -11.586  15.965  70.227  1.00  0.00    -0.320 OA 
BRANCH  19  20
HETATM   20  C   UNL     1     -11.711  15.107  69.091  1.00  0.00    -0.325 C  
BRANCH  20  21
HETATM   21  C   UNL     1     -10.779  13.916  69.278  1.00  0.00    -0.085 C  
BRANCH  21  22
HETATM   22  O   UNL     1      -9.666  14.061  68.391  1.00  0.00    -0.217 OA 
BRANCH  22  23
HETATM   23  C   UNL     1      -8.481  14.415  69.095  1.00  0.00     0.080 C  
BRANCH  23  24
HETATM   24  C   UNL     1      -7.410  14.811  68.090  1.00  0.00    -0.119 C  
BRANCH  24  25
HETATM   25  O   UNL     1      -6.171  14.961  68.777  1.00  0.00    -0.081 OA 
BRANCH  25  26
HETATM   26  C   UNL     1      -5.146  14.186  68.169  1.00  0.00    -0.116 C  
BRANCH  26  27
HETATM   27  C   UNL     1      -5.507  12.713  68.291  1.00  0.00    -0.064 C  
BRANCH  27  28
HETATM   28  O   UNL     1      -5.763  12.187  66.993  1.00  0.00    -0.186 OA 
BRANCH  28  29
HETATM   29  C   UNL     1      -6.818  11.231  67.026  1.00  0.00    -0.126 C  
BRANCH  29  30
HETATM   30  C   UNL     1      -6.250   9.885  67.449  1.00  0.00    -0.059 C  
BRANCH  30  31
HETATM   31  O   UNL     1      -7.271   8.899  67.347  1.00  0.00    -0.079 OA 
BRANCH  31  32
HETATM   32  C   UNL     1      -7.461   8.487  65.995  1.00  0.00    -0.085 C  
BRANCH  32  33
HETATM   33  C   UNL     1      -8.558   7.433  65.948  1.00  0.00    -0.153 C  
BRANCH  33  34
HETATM   34  O   UNL     1      -7.966   6.138  65.996  1.00  0.00    -0.102 OA 
BRANCH  34  35
HETATM   35  C   UNL     1      -8.708   5.198  65.225  1.00  0.00    -0.150 C  
BRANCH  35  36
HETATM   36  C   UNL     1      -8.667   3.845  65.923  1.00  0.00    -0.114 C  
BRANCH  36  37
HETATM   37  O   UNL     1      -9.244   3.957  67.224  1.00  0.00    -0.147 OA 
BRANCH  37  38
HETATM   38  C   UNL     1      -9.219   2.695  67.904  1.00  0.00    -0.205 C  
BRANCH  38  39
HETATM   39  C   UNL     1      -8.045   2.699  68.877  1.00  0.00    -0.052 C  
HETATM   40  O   UNL     1      -8.437   3.301  70.109  1.00  0.00    -0.054 OA 
HETATM   41  H   UNL     1      -7.705   3.303  70.715  1.00  0.00     0.000 HD 
ENDBRANCH  38  39
ENDBRANCH  37  38
ENDBRANCH  36  37
ENDBRANCH  35  36
ENDBRANCH  34  35
ENDBRANCH  33  34
ENDBRANCH  32  33
ENDBRANCH  31  32
ENDBRANCH  30  31
ENDBRANCH  29  30
ENDBRANCH  28  29
ENDBRANCH  27  28
ENDBRANCH  26  27
ENDBRANCH  25  26
ENDBRANCH  24  25
ENDBRANCH  23  24
ENDBRANCH  22  23
ENDBRANCH  21  22
ENDBRANCH  20  21
ENDBRANCH  19  20
ENDBRANCH  18  19
ENDBRANCH  17  18
ENDBRANCH  16  17
ENDBRANCH  15  16
ENDBRANCH  14  15
ENDBRANCH  13  14
ENDBRANCH  12  13
ENDBRANCH  11  12
ENDBRANCH  10  11
ENDBRANCH   9  10
ENDBRANCH   8   9
ENDBRANCH   7   8
ENDBRANCH   6   7
ENDBRANCH   5   6
ENDBRANCH   4   5
ENDBRANCH   3   4
ENDBRANCH   2   3
TORSDOF 37
ENDMDL
MODEL      204
REMARK 921   NORMALIZED FREE ENERGY PREDICTED BY IDOCK:   -1.67 KCAL/MOL
REMARK 922        TOTAL FREE ENERGY PREDICTED BY IDOCK:   -8.92 KCAL/MOL
REMARK 923 INTER-LIGAND FREE ENERGY PREDICTED BY IDOCK:   -7.04 KCAL/MOL
REMARK 924 INTRA-LIGAND FREE ENERGY PREDICTED BY IDOCK:   -1.88 KCAL/MOL
REMARK 927      BINDING AFFINITY PREDICTED BY RF-SCORE:    0.00 PKD
ROOT
HETATM    1  C   UNL     1      -9.030   9.360  69.730  1.00  0.00    -0.199 C  
HETATM    2  C   UNL     1      -8.165  10.474  69.165  1.00  0.00    -0.152 C  
ENDROOT
BRANCH   2   3
HETATM    3  C   UNL     1      -8.918  11.268  68.101  1.00  0.00    -0.166 C  
BRANCH   3   4
HETATM    4  C   UNL     1      -9.560  12.519  68.695  1.00  0.00    -0.029 C  
BRANCH   4   5
HETATM    5  C   UNL     1      -9.266  13.741  67.829  1.00  0.00    -0.206 C  
BRANCH   5   6
HETATM    6  C   UNL     1     -10.070  14.948  68.298  1.00  0.00    -0.221 C  
BRANCH   6   7
HETATM    7  C   UNL     1     -10.442  14.809  69.771  1.00  0.00    -0.087 C  
BRANCH   7   8
HETATM    8  C   UNL     1     -11.712  15.592  70.079  1.00  0.00    -0.369 C  
BRANCH   8   9
HETATM    9  C   UNL     1     -11.792  15.939  71.563  1.00  0.00    -0.536 C  
BRANCH   9  10
HETATM   10  C   UNL     1     -13.197  15.675  72.090  1.00  0.00    -0.547 C  
BRANCH  10  11
HETATM   11  C   UNL     1     -13.730  14.340  71.593  1.00  0.00    -0.466 C  
BRANCH  11  12
HETATM   12  C   UNL     1     -14.150  13.470  72.765  1.00  0.00     0.124 C  
BRANCH  12  13
HETATM   13  O   UNL     1     -13.754  12.132  72.487  1.00  0.00    -0.201 OA 
BRANCH  13  14
HETATM   14  C   UNL     1     -12.754  12.104  71.474  1.00  0.00    -0.243 C  
BRANCH  14  15
HETATM   15  C   UNL     1     -12.641  10.695  70.921  1.00  0.00    -0.407 C  
BRANCH  15  16
HETATM   16  O   UNL     1     -13.671   9.905  71.504  1.00  0.00    -0.272 OA 
BRANCH  16  17
HETATM   17  C   UNL     1     -13.164   8.662  71.979  1.00  0.00    -0.386 C  
BRANCH  17  18
HETATM   18  C   UNL     1     -11.648   8.753  72.042  1.00  0.00    -0.366 C  
BRANCH  18  19
HETATM   19  O   UNL     1     -11.193   8.066  73.201  1.00  0.00    -0.336 OA 
BRANCH  19  20
HETATM   20  C   UNL     1     -11.416   6.659  73.098  1.00  0.00     0.147 C  
BRANCH  20  21
HETATM   21  C   UNL     1     -10.103   5.937  73.376  1.00  0.00    -0.198 C  
BRANCH  21  22
HETATM   22  O   UNL     1      -9.327   5.918  72.174  1.00  0.00    -0.146 OA 
BRANCH  22  23
HETATM   23  C   UNL     1      -8.673   4.667  71.996  1.00  0.00    -0.122 C  
BRANCH  23  24
HETATM   24  C   UNL     1      -9.693   3.636  71.538  1.00  0.00    -0.167 C  
BRANCH  24  25
HETATM   25  O   UNL     1     -10.011   3.883  70.171  1.00  0.00    -0.162 OA 
BRANCH  25  26
HETATM   26  C   UNL     1      -9.007   3.364  69.306  1.00  0.00    -0.117 C  
BRANCH  26  27
HETATM   27  C   UNL     1      -9.640   3.037  67.962  1.00  0.00    -0.065 C  
BRANCH  27  28
HETATM   28  O   UNL     1      -9.175   3.967  66.989  1.00  0.00    -0.147 OA 
BRANCH  28  29
HETATM   29  C   UNL     1      -8.358   4.969  67.586  1.00  0.00    -0.105 C  
BRANCH  29  30
HETATM   30  C   UNL     1      -7.383   5.496  66.546  1.00  0.00    -0.082 C  
BRANCH  30  31
HETATM   31  O   UNL     1      -6.271   4.610  66.462  1.00  0.00    -0.030 OA 
BRANCH  31  32
HETATM   32  C   UNL     1      -5.328   5.055  65.491  1.00  0.00    -0.013 C  
BRANCH  32  33
HETATM   33  C   UNL     1      -5.994   6.083  64.588  1.00  0.00    -0.025 C  
BRANCH  33  34
HETATM   34  O   UNL     1      -5.157   7.232  64.490  1.00  0.00    -0.027 OA 
BRANCH  34  35
HETATM   35  C   UNL     1      -5.824   8.307  63.833  1.00  0.00    -0.066 C  
BRANCH  35  36
HETATM   36  C   UNL     1      -6.853   8.903  64.783  1.00  0.00    -0.073 C  
BRANCH  36  37
HETATM   37  O   UNL     1      -6.878  10.324  64.637  1.00  0.00    -0.128 OA 
BRANCH  37  38
HETATM   38  C   UNL     1      -8.170  10.849  64.968  1.00  0.00     0.081 C  
BRANCH  38  39
HETATM   39  C   UNL     1      -9.205   9.752  64.745  1.00  0.00    -0.261 C  
HETATM   40  O   UNL     1     -10.174   9.779  65.791  1.00  0.00    -0.264 OA 
HETATM   41  H   UNL     1     -10.819   9.096  65.652  1.00  0.00     0.000 HD 
ENDBRANCH  38  39
ENDBRANCH  37  38
ENDBRANCH  36  37
ENDBRANCH  35  36
ENDBRANCH  34  35
ENDBRANCH  33  34
ENDBRANCH  32  33
ENDBRANCH  31  32
ENDBRANCH  30  31
ENDBRANCH  29  30
ENDBRANCH  28  29
ENDBRANCH  27  28
ENDBRANCH  26  27
ENDBRANCH  25  26
ENDBRANCH  24  25
ENDBRANCH  23  24
ENDBRANCH  22  23
ENDBRANCH  21  22
ENDBRANCH  20  21
ENDBRANCH  19  20
ENDBRANCH  18  19
ENDBRANCH  17  18
ENDBRANCH  16  17
ENDBRANCH  15  16
ENDBRANCH  14  15
ENDBRANCH  13  14
ENDBRANCH  12  13
ENDBRANCH  11  12
ENDBRANCH  10  11
ENDBRANCH   9  10
ENDBRANCH   8   9
ENDBRANCH   7   8
ENDBRANCH   6   7
ENDBRANCH   5   6
ENDBRANCH   4   5
ENDBRANCH   3   4
ENDBRANCH   2   3
TORSDOF 37
ENDMDL
MODEL      205
REMARK 921   NORMALIZED FREE ENERGY PREDICTED BY IDOCK:   -1.65 KCAL/MOL
REMARK 922        TOTAL FREE ENERGY PREDICTED BY IDOCK:   -8.83 KCAL/MOL
REMARK 923 INTER-LIGAND FREE ENERGY PREDICTED BY IDOCK:   -7.63 KCAL/MOL
REMARK 924 INTRA-LIGAND FREE ENERGY PREDICTED BY IDOCK:   -1.20 KCAL/MOL
REMARK 927      BINDING AFFINITY PREDICTED BY RF-SCORE:    0.00 PKD
ROOT
HETATM    1  C   UNL     1      -6.566   3.409  71.882  1.00  0.00    -0.015 C  
HETATM    2  C   UNL     1      -7.939   3.256  72.512  1.00  0.00    -0.064 C  
ENDROOT
BRANCH   2   3
HETATM    3  C   UNL     1      -8.718   4.567  72.456  1.00  0.00    -0.119 C  
BRANCH   3   4
HETATM    4  C   UNL     1     -10.093   4.368  71.821  1.00  0.00    -0.238 C  
BRANCH   4   5
HETATM    5  C   UNL     1      -9.958   3.908  70.372  1.00  0.00    -0.055 C  
BRANCH   5   6
HETATM    6  C   UNL     1      -9.395   5.022  69.497  1.00  0.00    -0.184 C  
BRANCH   6   7
HETATM    7  C   UNL     1      -9.283   4.564  68.046  1.00  0.00    -0.166 C  
BRANCH   7   8
HETATM    8  C   UNL     1      -7.943   4.980  67.454  1.00  0.00    -0.096 C  
BRANCH   8   9
HETATM    9  C   UNL     1      -8.085   5.334  65.977  1.00  0.00    -0.110 C  
BRANCH   9  10
HETATM   10  C   UNL     1      -6.743   5.191  65.271  1.00  0.00    -0.048 C  
BRANCH  10  11
HETATM   11  C   UNL     1      -6.872   4.354  64.007  1.00  0.00    -0.045 C  
BRANCH  11  12
HETATM   12  C   UNL     1      -7.391   5.204  62.860  1.00  0.00    -0.044 C  
BRANCH  12  13
HETATM   13  O   UNL     1      -7.506   6.545  63.321  1.00  0.00    -0.061 OA 
BRANCH  13  14
HETATM   14  C   UNL     1      -7.047   7.458  62.330  1.00  0.00    -0.079 C  
BRANCH  14  15
HETATM   15  C   UNL     1      -6.110   8.465  62.973  1.00  0.00    -0.082 C  
BRANCH  15  16
HETATM   16  O   UNL     1      -6.216   8.332  64.386  1.00  0.00    -0.063 OA 
BRANCH  16  17
HETATM   17  C   UNL     1      -6.386   9.598  65.013  1.00  0.00    -0.089 C  
BRANCH  17  18
HETATM   18  C   UNL     1      -7.505  10.342  64.302  1.00  0.00    -0.072 C  
BRANCH  18  19
HETATM   19  O   UNL     1      -8.743  10.007  64.916  1.00  0.00    -0.157 OA 
BRANCH  19  20
HETATM   20  C   UNL     1      -8.605   8.897  65.805  1.00  0.00    -0.160 C  
BRANCH  20  21
HETATM   21  C   UNL     1      -9.014   9.340  67.204  1.00  0.00    -0.126 C  
BRANCH  21  22
HETATM   22  O   UNL     1      -9.419   8.188  67.949  1.00  0.00    -0.143 OA 
BRANCH  22  23
HETATM   23  C   UNL     1      -9.706   8.517  69.303  1.00  0.00    -0.173 C  
BRANCH  23  24
HETATM   24  C   UNL     1     -11.029   9.264  69.360  1.00  0.00    -0.120 C  
BRANCH  24  25
HETATM   25  O   UNL     1     -10.953  10.254  70.383  1.00  0.00    -0.296 OA 
BRANCH  25  26
HETATM   26  C   UNL     1     -12.066  11.137  70.331  1.00  0.00    -0.385 C  
BRANCH  26  27
HETATM   27  C   UNL     1     -12.473  11.496  71.753  1.00  0.00     0.033 C  
BRANCH  27  28
HETATM   28  O   UNL     1     -13.671  12.265  71.714  1.00  0.00    -0.097 OA 
BRANCH  28  29
HETATM   29  C   UNL     1     -13.560  13.429  72.526  1.00  0.00    -0.554 C  
BRANCH  29  30
HETATM   30  C   UNL     1     -13.904  14.650  71.688  1.00  0.00    -0.440 C  
BRANCH  30  31
HETATM   31  O   UNL     1     -13.049  15.725  72.064  1.00  0.00    -0.445 OA 
BRANCH  31  32
HETATM   32  C   UNL     1     -12.162  16.076  71.006  1.00  0.00    -0.285 C  
BRANCH  32  33
HETATM   33  C   UNL     1     -11.060  15.031  70.916  1.00  0.00    -0.183 C  
BRANCH  33  34
HETATM   34  O   UNL     1     -10.627  14.920  69.563  1.00  0.00    -0.246 OA 
BRANCH  34  35
HETATM   35  C   UNL     1     -11.664  14.418  68.725  1.00  0.00    -0.337 C  
BRANCH  35  36
HETATM   36  C   UNL     1     -11.172  13.155  68.033  1.00  0.00    -0.277 C  
BRANCH  36  37
HETATM   37  O   UNL     1     -11.587  13.161  66.666  1.00  0.00    -0.321 OA 
BRANCH  37  38
HETATM   38  C   UNL     1     -10.897  14.176  65.927  1.00  0.00    -0.294 C  
BRANCH  38  39
HETATM   39  C   UNL     1     -11.883  14.814  64.954  1.00  0.00    -0.377 C  
HETATM   40  O   UNL     1     -13.211  14.393  65.263  1.00  0.00    -0.619 OA 
HETATM   41  H   UNL     1     -13.825  14.790  64.657  1.00  0.00     0.000 HD 
ENDBRANCH  38  39
ENDBRANCH  37  38
ENDBRANCH  36  37
ENDBRANCH  35  36
ENDBRANCH  34  35
ENDBRANCH  33  34
ENDBRANCH  32  33
ENDBRANCH  31  32
ENDBRANCH  30  31
ENDBRANCH  29  30
ENDBRANCH  28  29
ENDBRANCH  27  28
ENDBRANCH  26  27
ENDBRANCH  25  26
ENDBRANCH  24  25
ENDBRANCH  23  24
ENDBRANCH  22  23
ENDBRANCH  21  22
ENDBRANCH  20  21
ENDBRANCH  19  20
ENDBRANCH  18  19
ENDBRANCH  17  18
ENDBRANCH  16  17
ENDBRANCH  15  16
ENDBRANCH  14  15
ENDBRANCH  13  14
ENDBRANCH  12  13
ENDBRANCH  11  12
ENDBRANCH  10  11
ENDBRANCH   9  10
ENDBRANCH   8   9
ENDBRANCH   7   8
ENDBRANCH   6   7
ENDBRANCH   5   6
ENDBRANCH   4   5
ENDBRANCH   3   4
ENDBRANCH   2   3
TORSDOF 37
ENDMDL
MODEL      206
REMARK 921   NORMALIZED FREE ENERGY PREDICTED BY IDOCK:   -1.63 KCAL/MOL
REMARK 922        TOTAL FREE ENERGY PREDICTED BY IDOCK:   -8.76 KCAL/MOL
REMARK 923 INTER-LIGAND FREE ENERGY PREDICTED BY IDOCK:   -7.30 KCAL/MOL
REMARK 924 INTRA-LIGAND FREE ENERGY PREDICTED BY IDOCK:   -1.46 KCAL/MOL
REMARK 927      BINDING AFFINITY PREDICTED BY RF-SCORE:    0.00 PKD
ROOT
HETATM    1  C   UNL     1     -12.563  14.454  68.238  1.00  0.00     0.476 C  
HETATM    2  C   UNL     1     -11.333  13.953  67.502  1.00  0.00    -0.342 C  
ENDROOT
BRANCH   2   3
HETATM    3  C   UNL     1     -10.115  13.929  68.421  1.00  0.00    -0.237 C  
BRANCH   3   4
HETATM    4  C   UNL     1      -9.372  15.263  68.390  1.00  0.00    -0.194 C  
BRANCH   4   5
HETATM    5  C   UNL     1      -9.575  16.025  69.697  1.00  0.00    -0.120 C  
BRANCH   5   6
HETATM    6  C   UNL     1     -11.041  16.396  69.889  1.00  0.00    -0.313 C  
BRANCH   6   7
HETATM    7  C   UNL     1     -11.432  16.308  71.361  1.00  0.00    -0.361 C  
BRANCH   7   8
HETATM    8  C   UNL     1     -11.774  14.873  71.740  1.00  0.00    -0.398 C  
BRANCH   8   9
HETATM    9  C   UNL     1     -13.090  14.811  72.508  1.00  0.00    -0.492 C  
BRANCH   9  10
HETATM   10  C   UNL     1     -14.032  13.806  71.857  1.00  0.00    -0.464 C  
BRANCH  10  11
HETATM   11  C   UNL     1     -13.545  12.380  72.066  1.00  0.00    -0.349 C  
BRANCH  11  12
HETATM   12  C   UNL     1     -12.864  11.865  70.809  1.00  0.00    -0.052 C  
BRANCH  12  13
HETATM   13  O   UNL     1     -12.982  10.448  70.791  1.00  0.00    -0.375 OA 
BRANCH  13  14
HETATM   14  C   UNL     1     -12.373   9.879  71.945  1.00  0.00    -0.305 C  
BRANCH  14  15
HETATM   15  C   UNL     1     -13.166   8.658  72.379  1.00  0.00    -0.346 C  
BRANCH  15  16
HETATM   16  O   UNL     1     -13.224   7.753  71.282  1.00  0.00    -0.285 OA 
BRANCH  16  17
HETATM   17  C   UNL     1     -11.984   7.076  71.104  1.00  0.00    -0.356 C  
BRANCH  17  18
HETATM   18  C   UNL     1     -11.534   6.532  72.450  1.00  0.00    -0.271 C  
BRANCH  18  19
HETATM   19  O   UNL     1     -10.300   7.143  72.804  1.00  0.00    -0.196 OA 
BRANCH  19  20
HETATM   20  C   UNL     1      -9.388   6.197  73.364  1.00  0.00    -0.134 C  
BRANCH  20  21
HETATM   21  C   UNL     1      -7.979   6.771  73.280  1.00  0.00    -0.102 C  
BRANCH  21  22
HETATM   22  O   UNL     1      -8.067   8.146  72.894  1.00  0.00    -0.147 OA 
BRANCH  22  23
HETATM   23  C   UNL     1      -6.802   8.656  72.491  1.00  0.00     0.000 C  
BRANCH  23  24
HETATM   24  C   UNL     1      -6.799   8.832  70.980  1.00  0.00    -0.074 C  
BRANCH  24  25
HETATM   25  O   UNL     1      -7.174  10.173  70.675  1.00  0.00    -0.317 OA 
BRANCH  25  26
HETATM   26  C   UNL     1      -7.455  10.327  69.290  1.00  0.00    -0.112 C  
BRANCH  26  27
HETATM   27  C   UNL     1      -8.924  10.012  69.049  1.00  0.00    -0.163 C  
BRANCH  27  28
HETATM   28  O   UNL     1      -9.276  10.410  67.728  1.00  0.00    -0.141 OA 
BRANCH  28  29
HETATM   29  C   UNL     1      -9.472   9.277  66.887  1.00  0.00    -0.161 C  
BRANCH  29  30
HETATM   30  C   UNL     1      -8.310   8.315  67.076  1.00  0.00    -0.122 C  
BRANCH  30  31
HETATM   31  O   UNL     1      -8.048   7.657  65.840  1.00  0.00    -0.108 OA 
BRANCH  31  32
HETATM   32  C   UNL     1      -8.784   6.441  65.736  1.00  0.00    -0.127 C  
BRANCH  32  33
HETATM   33  C   UNL     1      -8.119   5.384  66.606  1.00  0.00    -0.105 C  
BRANCH  33  34
HETATM   34  O   UNL     1      -9.043   4.944  67.597  1.00  0.00    -0.110 OA 
BRANCH  34  35
HETATM   35  C   UNL     1      -8.979   5.756  68.767  1.00  0.00    -0.116 C  
BRANCH  35  36
HETATM   36  C   UNL     1      -8.452   4.916  69.922  1.00  0.00    -0.079 C  
BRANCH  36  37
HETATM   37  O   UNL     1      -8.877   3.562  69.766  1.00  0.00    -0.074 OA 
BRANCH  37  38
HETATM   38  C   UNL     1      -7.918   2.657  70.329  1.00  0.00    -0.042 C  
BRANCH  38  39
HETATM   39  C   UNL     1      -8.185   2.548  71.826  1.00  0.00    -0.056 C  
HETATM   40  O   UNL     1      -7.163   1.768  72.446  1.00  0.00    -0.029 OA 
HETATM   41  H   UNL     1      -7.329   1.700  73.378  1.00  0.00     0.000 HD 
ENDBRANCH  38  39
ENDBRANCH  37  38
ENDBRANCH  36  37
ENDBRANCH  35  36
ENDBRANCH  34  35
ENDBRANCH  33  34
ENDBRANCH  32  33
ENDBRANCH  31  32
ENDBRANCH  30  31
ENDBRANCH  29  30
ENDBRANCH  28  29
ENDBRANCH  27  28
ENDBRANCH  26  27
ENDBRANCH  25  26
ENDBRANCH  24  25
ENDBRANCH  23  24
ENDBRANCH  22  23
ENDBRANCH  21  22
ENDBRANCH  20  21
ENDBRANCH  19  20
ENDBRANCH  18  19
ENDBRANCH  17  18
ENDBRANCH  16  17
ENDBRANCH  15  16
ENDBRANCH  14  15
ENDBRANCH  13  14
ENDBRANCH  12  13
ENDBRANCH  11  12
ENDBRANCH  10  11
ENDBRANCH   9  10
ENDBRANCH   8   9
ENDBRANCH   7   8
ENDBRANCH   6   7
ENDBRANCH   5   6
ENDBRANCH   4   5
ENDBRANCH   3   4
ENDBRANCH   2   3
TORSDOF 37
ENDMDL
MODEL      207
REMARK 921   NORMALIZED FREE ENERGY PREDICTED BY IDOCK:   -1.38 KCAL/MOL
REMARK 922        TOTAL FREE ENERGY PREDICTED BY IDOCK:   -8.00 KCAL/MOL
REMARK 923 INTER-LIGAND FREE ENERGY PREDICTED BY IDOCK:   -7.95 KCAL/MOL
REMARK 924 INTRA-LIGAND FREE ENERGY PREDICTED BY IDOCK:   -0.05 KCAL/MOL
REMARK 927      BINDING AFFINITY PREDICTED BY RF-SCORE:    0.00 PKD
ROOT
HETATM    1  C   UNL     1     -10.561  14.689  68.472  1.00  0.00    -0.245 C  
HETATM    2  C   UNL     1      -9.140  14.241  68.767  1.00  0.00    -0.103 C  
ENDROOT
BRANCH   2   3
HETATM    3  C   UNL     1      -8.485  15.144  69.809  1.00  0.00     0.049 C  
BRANCH   3   4
HETATM    4  C   UNL     1      -7.605  16.203  69.149  1.00  0.00    -0.230 C  
BRANCH   4   5
HETATM    5  C   UNL     1      -6.128  15.843  69.291  1.00  0.00    -0.133 C  
BRANCH   5   6
HETATM    6  C   UNL     1      -5.593  15.219  68.007  1.00  0.00    -0.146 C  
BRANCH   6   7
HETATM    7  C   UNL     1      -5.166  16.300  67.019  1.00  0.00     0.064 C  
BRANCH   7   8
HETATM    8  C   UNL     1      -6.355  17.163  66.619  1.00  0.00    -0.254 C  
BRANCH   8   9
HETATM    9  C   UNL     1      -5.909  18.343  65.761  1.00  0.00    -0.241 C  
BRANCH   9  10
HETATM   10  C   UNL     1      -6.890  19.499  65.906  1.00  0.00    -0.285 C  
BRANCH  10  11
HETATM   11  C   UNL     1      -8.324  18.997  65.996  1.00  0.00    -0.129 C  
BRANCH  11  12
HETATM   12  C   UNL     1      -9.188  20.000  66.741  1.00  0.00    -0.382 C  
BRANCH  12  13
HETATM   13  O   UNL     1     -10.513  19.485  66.799  1.00  0.00    -0.417 OA 
BRANCH  13  14
HETATM   14  C   UNL     1     -10.909  18.974  65.530  1.00  0.00     0.045 C  
BRANCH  14  15
HETATM   15  C   UNL     1     -10.924  17.457  65.585  1.00  0.00     0.143 C  
BRANCH  15  16
HETATM   16  O   UNL     1     -11.265  16.969  64.292  1.00  0.00    -1.186 OA 
BRANCH  16  17
HETATM   17  C   UNL     1     -11.886  15.691  64.369  1.00  0.00    -0.182 C  
BRANCH  17  18
HETATM   18  C   UNL     1     -10.807  14.643  64.591  1.00  0.00    -0.313 C  
BRANCH  18  19
HETATM   19  O   UNL     1     -11.199  13.800  65.667  1.00  0.00    -0.300 OA 
BRANCH  19  20
HETATM   20  C   UNL     1     -11.844  12.615  65.197  1.00  0.00    -0.396 C  
BRANCH  20  21
HETATM   21  C   UNL     1     -10.823  11.774  64.440  1.00  0.00    -0.334 C  
BRANCH  21  22
HETATM   22  O   UNL     1      -9.568  11.853  65.123  1.00  0.00    -0.212 OA 
BRANCH  22  23
HETATM   23  C   UNL     1      -9.726  11.685  66.526  1.00  0.00    -0.206 C  
BRANCH  23  24
HETATM   24  C   UNL     1      -9.696  10.199  66.852  1.00  0.00    -0.187 C  
BRANCH  24  25
HETATM   25  O   UNL     1      -9.610  10.042  68.266  1.00  0.00    -0.139 OA 
BRANCH  25  26
HETATM   26  C   UNL     1     -10.455   8.992  68.721  1.00  0.00    -0.206 C  
BRANCH  26  27
HETATM   27  C   UNL     1     -10.720   9.186  70.206  1.00  0.00    -0.231 C  
BRANCH  27  28
HETATM   28  O   UNL     1      -9.482   9.160  70.908  1.00  0.00    -0.240 OA 
BRANCH  28  29
HETATM   29  C   UNL     1      -9.025   7.825  71.095  1.00  0.00    -0.138 C  
BRANCH  29  30
HETATM   30  C   UNL     1      -9.710   7.235  72.317  1.00  0.00    -0.149 C  
BRANCH  30  31
HETATM   31  O   UNL     1      -9.354   5.861  72.430  1.00  0.00    -0.144 OA 
BRANCH  31  32
HETATM   32  C   UNL     1     -10.483   5.015  72.225  1.00  0.00    -0.214 C  
BRANCH  32  33
HETATM   33  C   UNL     1     -10.016   3.709  71.598  1.00  0.00    -0.126 C  
BRANCH  33  34
HETATM   34  O   UNL     1      -8.627   3.534  71.861  1.00  0.00    -0.083 OA 
BRANCH  34  35
HETATM   35  C   UNL     1      -7.906   3.231  70.669  1.00  0.00    -0.043 C  
BRANCH  35  36
HETATM   36  C   UNL     1      -8.831   3.413  69.474  1.00  0.00    -0.092 C  
BRANCH  36  37
HETATM   37  O   UNL     1      -8.727   2.282  68.608  1.00  0.00    -0.068 OA 
BRANCH  37  38
HETATM   38  C   UNL     1      -7.761   2.515  67.575  1.00  0.00    -0.061 C  
BRANCH  38  39
HETATM   39  C   UNL     1      -8.507   2.743  66.265  1.00  0.00    -0.103 C  
HETATM   40  O   UNL     1      -9.466   1.705  66.065  1.00  0.00    -0.333 OA 
HETATM   41  H   UNL     1      -9.930   1.847  65.249  1.00  0.00     0.000 HD 
ENDBRANCH  38  39
ENDBRANCH  37  38
ENDBRANCH  36  37
ENDBRANCH  35  36
ENDBRANCH  34  35
ENDBRANCH  33  34
ENDBRANCH  32  33
ENDBRANCH  31  32
ENDBRANCH  30  31
ENDBRANCH  29  30
ENDBRANCH  28  29
ENDBRANCH  27  28
ENDBRANCH  26  27
ENDBRANCH  25  26
ENDBRANCH  24  25
ENDBRANCH  23  24
ENDBRANCH  22  23
ENDBRANCH  21  22
ENDBRANCH  20  21
ENDBRANCH  19  20
ENDBRANCH  18  19
ENDBRANCH  17  18
ENDBRANCH  16  17
ENDBRANCH  15  16
ENDBRANCH  14  15
ENDBRANCH  13  14
ENDBRANCH  12  13
ENDBRANCH  11  12
ENDBRANCH  10  11
ENDBRANCH   9  10
ENDBRANCH   8   9
ENDBRANCH   7   8
ENDBRANCH   6   7
ENDBRANCH   5   6
ENDBRANCH   4   5
ENDBRANCH   3   4
ENDBRANCH   2   3
TORSDOF 37
ENDMDL
MODEL      208
REMARK 921   NORMALIZED FREE ENERGY PREDICTED BY IDOCK:   -1.35 KCAL/MOL
REMARK 922        TOTAL FREE ENERGY PREDICTED BY IDOCK:   -7.88 KCAL/MOL
REMARK 923 INTER-LIGAND FREE ENERGY PREDICTED BY IDOCK:   -9.26 KCAL/MOL
REMARK 924 INTRA-LIGAND FREE ENERGY PREDICTED BY IDOCK:    1.38 KCAL/MOL
REMARK 927      BINDING AFFINITY PREDICTED BY RF-SCORE:    0.00 PKD
ROOT
HETATM    1  C   UNL     1     -10.238   3.496  72.135  1.00  0.00    -0.153 C  
HETATM    2  C   UNL     1      -9.560   4.794  72.538  1.00  0.00    -0.174 C  
ENDROOT
BRANCH   2   3
HETATM    3  C   UNL     1      -9.767   5.083  74.022  1.00  0.00    -0.154 C  
BRANCH   3   4
HETATM    4  C   UNL     1      -9.758   6.584  74.300  1.00  0.00    -0.309 C  
BRANCH   4   5
HETATM    5  C   UNL     1     -10.829   7.294  73.476  1.00  0.00    -0.290 C  
BRANCH   5   6
HETATM    6  C   UNL     1     -10.259   8.529  72.789  1.00  0.00    -0.147 C  
BRANCH   6   7
HETATM    7  C   UNL     1      -9.485   8.139  71.533  1.00  0.00    -0.222 C  
BRANCH   7   8
HETATM    8  C   UNL     1      -9.765   9.121  70.403  1.00  0.00    -0.266 C  
BRANCH   8   9
HETATM    9  C   UNL     1      -8.558   9.249  69.480  1.00  0.00    -0.147 C  
BRANCH   9  10
HETATM   10  C   UNL     1      -8.617  10.564  68.715  1.00  0.00    -0.146 C  
BRANCH  10  11
HETATM   11  C   UNL     1      -9.742  10.556  67.691  1.00  0.00    -0.187 C  
BRANCH  11  12
HETATM   12  C   UNL     1     -11.092  10.557  68.389  1.00  0.00    -0.281 C  
BRANCH  12  13
HETATM   13  O   UNL     1     -11.036  11.494  69.457  1.00  0.00    -0.244 OA 
BRANCH  13  14
HETATM   14  C   UNL     1     -12.204  12.309  69.472  1.00  0.00    -0.093 C  
BRANCH  14  15
HETATM   15  C   UNL     1     -11.923  13.570  70.270  1.00  0.00    -0.316 C  
BRANCH  15  16
HETATM   16  O   UNL     1     -12.096  14.689  69.409  1.00  0.00    -0.306 OA 
BRANCH  16  17
HETATM   17  C   UNL     1     -12.531  15.836  70.131  1.00  0.00    -0.207 C  
BRANCH  17  18
HETATM   18  C   UNL     1     -11.341  16.417  70.876  1.00  0.00    -0.182 C  
BRANCH  18  19
HETATM   19  O   UNL     1     -10.199  16.366  70.030  1.00  0.00    -0.127 OA 
BRANCH  19  20
HETATM   20  C   UNL     1     -10.435  17.033  68.789  1.00  0.00    -0.347 C  
BRANCH  20  21
HETATM   21  C   UNL     1      -9.939  18.469  68.907  1.00  0.00    -0.347 C  
BRANCH  21  22
HETATM   22  O   UNL     1     -10.875  19.332  68.255  1.00  0.00    -0.159 OA 
BRANCH  22  23
HETATM   23  C   UNL     1     -10.290  20.589  67.934  1.00  0.00    -0.056 C  
BRANCH  23  24
HETATM   24  C   UNL     1      -8.870  20.361  67.438  1.00  0.00    -0.325 C  
BRANCH  24  25
HETATM   25  O   UNL     1      -8.006  20.235  68.564  1.00  0.00    -0.070 OA 
BRANCH  25  26
HETATM   26  C   UNL     1      -6.849  19.473  68.243  1.00  0.00    -0.285 C  
BRANCH  26  27
HETATM   27  C   UNL     1      -7.039  18.845  66.870  1.00  0.00    -0.206 C  
BRANCH  27  28
HETATM   28  O   UNL     1      -6.133  17.757  66.726  1.00  0.00    -0.135 OA 
BRANCH  28  29
HETATM   29  C   UNL     1      -6.829  16.540  66.475  1.00  0.00    -0.007 C  
BRANCH  29  30
HETATM   30  C   UNL     1      -6.528  15.559  67.597  1.00  0.00    -0.168 C  
BRANCH  30  31
HETATM   31  O   UNL     1      -7.669  14.734  67.810  1.00  0.00    -0.128 OA 
BRANCH  31  32
HETATM   32  C   UNL     1      -8.687  15.002  66.849  1.00  0.00    -0.256 C  
BRANCH  32  33
HETATM   33  C   UNL     1      -9.201  13.682  66.292  1.00  0.00    -0.058 C  
BRANCH  33  34
HETATM   34  O   UNL     1     -10.433  13.909  65.612  1.00  0.00    -0.290 OA 
BRANCH  34  35
HETATM   35  C   UNL     1     -11.513  14.067  66.528  1.00  0.00    -0.357 C  
BRANCH  35  36
HETATM   36  C   UNL     1     -12.797  14.294  65.742  1.00  0.00    -0.254 C  
BRANCH  36  37
HETATM   37  O   UNL     1     -12.702  13.653  64.469  1.00  0.00    -0.636 OA 
BRANCH  37  38
HETATM   38  C   UNL     1     -12.256  12.298  64.611  1.00  0.00    -0.377 C  
BRANCH  38  39
HETATM   39  C   UNL     1     -11.988  11.734  63.220  1.00  0.00    -0.248 C  
HETATM   40  O   UNL     1     -10.882  10.835  63.266  1.00  0.00    -0.601 OA 
HETATM   41  H   UNL     1     -10.715  10.484  62.399  1.00  0.00     0.000 HD 
ENDBRANCH  38  39
ENDBRANCH  37  38
ENDBRANCH  36  37
ENDBRANCH  35  36
ENDBRANCH  34  35
ENDBRANCH  33  34
ENDBRANCH  32  33
ENDBRANCH  31  32
ENDBRANCH  30  31
ENDBRANCH  29  30
ENDBRANCH  28  29
ENDBRANCH  27  28
ENDBRANCH  26  27
ENDBRANCH  25  26
ENDBRANCH  24  25
ENDBRANCH  23  24
ENDBRANCH  22  23
ENDBRANCH  21  22
ENDBRANCH  20  21
ENDBRANCH  19  20
ENDBRANCH  18  19
ENDBRANCH  17  18
ENDBRANCH  16  17
ENDBRANCH  15  16
ENDBRANCH  14  15
ENDBRANCH  13  14
ENDBRANCH  12  13
ENDBRANCH  11  12
ENDBRANCH  10  11
ENDBRANCH   9  10
ENDBRANCH   8   9
ENDBRANCH   7   8
ENDBRANCH   6   7
ENDBRANCH   5   6
ENDBRANCH   4   5
ENDBRANCH   3   4
ENDBRANCH   2   3
TORSDOF 37
ENDMDL
MODEL      209
REMARK 921   NORMALIZED FREE ENERGY PREDICTED BY IDOCK:   -1.32 KCAL/MOL
REMARK 922        TOTAL FREE ENERGY PREDICTED BY IDOCK:   -7.80 KCAL/MOL
REMARK 923 INTER-LIGAND FREE ENERGY PREDICTED BY IDOCK:   -7.09 KCAL/MOL
REMARK 924 INTRA-LIGAND FREE ENERGY PREDICTED BY IDOCK:   -0.71 KCAL/MOL
REMARK 927      BINDING AFFINITY PREDICTED BY RF-SCORE:    0.00 PKD
ROOT
HETATM    1  C   UNL     1     -11.896  15.429  70.217  1.00  0.00    -0.368 C  
HETATM    2  C   UNL     1     -11.013  15.186  69.004  1.00  0.00    -0.245 C  
ENDROOT
BRANCH   2   3
HETATM    3  C   UNL     1     -11.832  15.208  67.717  1.00  0.00    -0.165 C  
BRANCH   3   4
HETATM    4  C   UNL     1     -11.229  14.283  66.662  1.00  0.00    -0.337 C  
BRANCH   4   5
HETATM    5  C   UNL     1     -12.088  13.034  66.481  1.00  0.00    -0.410 C  
BRANCH   5   6
HETATM    6  C   UNL     1     -11.229  11.775  66.492  1.00  0.00    -0.380 C  
BRANCH   6   7
HETATM    7  C   UNL     1      -9.954  11.985  65.682  1.00  0.00    -0.270 C  
BRANCH   7   8
HETATM    8  C   UNL     1      -8.906  10.944  66.052  1.00  0.00    -0.198 C  
BRANCH   8   9
HETATM    9  C   UNL     1      -9.368   9.543  65.666  1.00  0.00    -0.302 C  
BRANCH   9  10
HETATM   10  C   UNL     1      -8.896   9.202  64.258  1.00  0.00    -0.139 C  
BRANCH  10  11
HETATM   11  C   UNL     1      -8.042   7.944  64.253  1.00  0.00    -0.093 C  
BRANCH  11  12
HETATM   12  C   UNL     1      -6.789   8.152  65.085  1.00  0.00    -0.058 C  
BRANCH  12  13
HETATM   13  O   UNL     1      -6.383   6.889  65.598  1.00  0.00    -0.041 OA 
BRANCH  13  14
HETATM   14  C   UNL     1      -6.681   6.791  66.986  1.00  0.00    -0.059 C  
BRANCH  14  15
HETATM   15  C   UNL     1      -6.914   5.334  67.346  1.00  0.00    -0.065 C  
BRANCH  15  16
HETATM   16  O   UNL     1      -7.523   4.692  66.232  1.00  0.00    -0.080 OA 
BRANCH  16  17
HETATM   17  C   UNL     1      -8.741   4.057  66.603  1.00  0.00    -0.116 C  
BRANCH  17  18
HETATM   18  C   UNL     1      -9.091   4.477  68.022  1.00  0.00    -0.123 C  
BRANCH  18  19
HETATM   19  O   UNL     1      -8.612   3.489  68.926  1.00  0.00    -0.078 OA 
BRANCH  19  20
HETATM   20  C   UNL     1      -9.624   2.530  69.238  1.00  0.00     0.033 C  
BRANCH  20  21
HETATM   21  C   UNL     1      -9.051   1.525  70.230  1.00  0.00    -0.082 C  
BRANCH  21  22
HETATM   22  O   UNL     1      -9.352   1.968  71.557  1.00  0.00    -0.091 OA 
BRANCH  22  23
HETATM   23  C   UNL     1      -8.466   2.999  71.976  1.00  0.00    -0.069 C  
BRANCH  23  24
HETATM   24  C   UNL     1      -9.282   4.147  72.552  1.00  0.00    -0.115 C  
BRANCH  24  25
HETATM   25  O   UNL     1      -8.865   5.361  71.932  1.00  0.00    -0.133 OA 
BRANCH  25  26
HETATM   26  C   UNL     1      -9.393   6.494  72.609  1.00  0.00    -0.140 C  
BRANCH  26  27
HETATM   27  C   UNL     1     -10.913   6.427  72.566  1.00  0.00    -0.251 C  
BRANCH  27  28
HETATM   28  O   UNL     1     -11.447   7.687  72.960  1.00  0.00    -0.342 OA 
BRANCH  28  29
HETATM   29  C   UNL     1     -11.605   8.551  71.840  1.00  0.00    -0.341 C  
BRANCH  29  30
HETATM   30  C   UNL     1     -10.665   8.099  70.733  1.00  0.00    -0.222 C  
BRANCH  30  31
HETATM   31  O   UNL     1     -10.925   8.869  69.563  1.00  0.00    -0.195 OA 
BRANCH  31  32
HETATM   32  C   UNL     1     -10.435  10.200  69.701  1.00  0.00    -0.252 C  
BRANCH  32  33
HETATM   33  C   UNL     1      -8.922  10.191  69.534  1.00  0.00    -0.188 C  
BRANCH  33  34
HETATM   34  O   UNL     1      -8.323   9.682  70.722  1.00  0.00    -0.264 OA 
BRANCH  34  35
HETATM   35  C   UNL     1      -6.918   9.506  70.561  1.00  0.00    -0.123 C  
BRANCH  35  36
HETATM   36  C   UNL     1      -6.403  10.531  69.560  1.00  0.00    -0.064 C  
BRANCH  36  37
HETATM   37  O   UNL     1      -6.340   9.944  68.260  1.00  0.00    -0.054 OA 
BRANCH  37  38
HETATM   38  C   UNL     1      -5.140  10.334  67.580  1.00  0.00    -0.034 C  
BRANCH  38  39
HETATM   39  C   UNL     1      -5.418  11.625  66.819  1.00  0.00    -0.125 C  
HETATM   40  O   UNL     1      -5.412  11.372  65.415  1.00  0.00    -0.504 OA 
HETATM   41  H   UNL     1      -5.586  12.177  64.941  1.00  0.00     0.000 HD 
ENDBRANCH  38  39
ENDBRANCH  37  38
ENDBRANCH  36  37
ENDBRANCH  35  36
ENDBRANCH  34  35
ENDBRANCH  33  34
ENDBRANCH  32  33
ENDBRANCH  31  32
ENDBRANCH  30  31
ENDBRANCH  29  30
ENDBRANCH  28  29
ENDBRANCH  27  28
ENDBRANCH  26  27
ENDBRANCH  25  26
ENDBRANCH  24  25
ENDBRANCH  23  24
ENDBRANCH  22  23
ENDBRANCH  21  22
ENDBRANCH  20  21
ENDBRANCH  19  20
ENDBRANCH  18  19
ENDBRANCH  17  18
ENDBRANCH  16  17
ENDBRANCH  15  16
ENDBRANCH  14  15
ENDBRANCH  13  14
ENDBRANCH  12  13
ENDBRANCH  11  12
ENDBRANCH  10  11
ENDBRANCH   9  10
ENDBRANCH   8   9
ENDBRANCH   7   8
ENDBRANCH   6   7
ENDBRANCH   5   6
ENDBRANCH   4   5
ENDBRANCH   3   4
ENDBRANCH   2   3
TORSDOF 37
ENDMDL
MODEL      210
REMARK 921   NORMALIZED FREE ENERGY PREDICTED BY IDOCK:   -1.27 KCAL/MOL
REMARK 922        TOTAL FREE ENERGY PREDICTED BY IDOCK:   -7.63 KCAL/MOL
REMARK 923 INTER-LIGAND FREE ENERGY PREDICTED BY IDOCK:   -7.07 KCAL/MOL
REMARK 924 INTRA-LIGAND FREE ENERGY PREDICTED BY IDOCK:   -0.55 KCAL/MOL
REMARK 927      BINDING AFFINITY PREDICTED BY RF-SCORE:    0.00 PKD
ROOT
HETATM    1  C   UNL     1     -12.476  14.250  67.150  1.00  0.00     0.020 C  
HETATM    2  C   UNL     1     -11.745  13.269  66.251  1.00  0.00    -0.412 C  
ENDROOT
BRANCH   2   3
HETATM    3  C   UNL     1     -10.720  13.986  65.375  1.00  0.00    -0.344 C  
BRANCH   3   4
HETATM    4  C   UNL     1      -9.865  12.989  64.596  1.00  0.00    -0.028 C  
BRANCH   4   5
HETATM    5  C   UNL     1     -10.682  12.318  63.496  1.00  0.00    -0.497 C  
BRANCH   5   6
HETATM    6  C   UNL     1     -10.273  10.860  63.325  1.00  0.00    -0.317 C  
BRANCH   6   7
HETATM    7  C   UNL     1      -8.958  10.754  62.559  1.00  0.00    -0.344 C  
BRANCH   7   8
HETATM    8  C   UNL     1      -7.857  10.203  63.455  1.00  0.00    -0.158 C  
BRANCH   8   9
HETATM    9  C   UNL     1      -7.317   8.886  62.908  1.00  0.00    -0.097 C  
BRANCH   9  10
HETATM   10  C   UNL     1      -7.561   7.761  63.905  1.00  0.00    -0.118 C  
BRANCH  10  11
HETATM   11  C   UNL     1      -8.349   8.254  65.110  1.00  0.00    -0.167 C  
BRANCH  11  12
HETATM   12  C   UNL     1      -7.412   8.848  66.147  1.00  0.00    -0.090 C  
BRANCH  12  13
HETATM   13  O   UNL     1      -8.199   9.527  67.117  1.00  0.00    -0.112 OA 
BRANCH  13  14
HETATM   14  C   UNL     1      -7.465   9.708  68.324  1.00  0.00    -0.077 C  
BRANCH  14  15
HETATM   15  C   UNL     1      -6.159   8.939  68.234  1.00  0.00    -0.053 C  
BRANCH  15  16
HETATM   16  O   UNL     1      -6.155   7.948  69.255  1.00  0.00    -0.033 OA 
BRANCH  16  17
HETATM   17  C   UNL     1      -7.006   8.315  70.336  1.00  0.00    -0.037 C  
BRANCH  17  18
HETATM   18  C   UNL     1      -6.202   9.151  71.318  1.00  0.00    -0.073 C  
BRANCH  18  19
HETATM   19  O   UNL     1      -6.954   9.304  72.516  1.00  0.00    -0.240 OA 
BRANCH  19  20
HETATM   20  C   UNL     1      -8.278   8.786  72.373  1.00  0.00     0.114 C  
BRANCH  20  21
HETATM   21  C   UNL     1      -8.673   8.097  73.673  1.00  0.00    -0.241 C  
BRANCH  21  22
HETATM   22  O   UNL     1      -7.487   7.813  74.420  1.00  0.00    -0.131 OA 
BRANCH  22  23
HETATM   23  C   UNL     1      -7.237   6.414  74.491  1.00  0.00    -0.100 C  
BRANCH  23  24
HETATM   24  C   UNL     1      -8.080   5.708  73.440  1.00  0.00    -0.113 C  
BRANCH  24  25
HETATM   25  O   UNL     1      -7.222   5.243  72.401  1.00  0.00    -0.086 OA 
BRANCH  25  26
HETATM   26  C   UNL     1      -7.755   4.085  71.771  1.00  0.00    -0.070 C  
BRANCH  26  27
HETATM   27  C   UNL     1      -6.612   3.135  71.444  1.00  0.00    -0.023 C  
BRANCH  27  28
HETATM   28  O   UNL     1      -5.867   3.662  70.351  1.00  0.00    -0.016 OA 
BRANCH  28  29
HETATM   29  C   UNL     1      -6.569   3.496  69.124  1.00  0.00    -0.034 C  
BRANCH  29  30
HETATM   30  C   UNL     1      -7.996   3.066  69.426  1.00  0.00    -0.048 C  
BRANCH  30  31
HETATM   31  O   UNL     1      -8.875   3.692  68.496  1.00  0.00    -0.097 OA 
BRANCH  31  32
HETATM   32  C   UNL     1      -8.793   5.112  68.582  1.00  0.00    -0.096 C  
BRANCH  32  33
HETATM   33  C   UNL     1      -9.996   5.631  69.356  1.00  0.00    -0.197 C  
BRANCH  33  34
HETATM   34  O   UNL     1      -9.718   6.947  69.827  1.00  0.00    -0.164 OA 
BRANCH  34  35
HETATM   35  C   UNL     1     -10.918   7.664  70.107  1.00  0.00    -0.246 C  
BRANCH  35  36
HETATM   36  C   UNL     1     -12.005   6.672  70.495  1.00  0.00    -0.316 C  
BRANCH  36  37
HETATM   37  O   UNL     1     -12.938   7.300  71.376  1.00  0.00    -0.371 OA 
BRANCH  37  38
HETATM   38  C   UNL     1     -12.277   8.233  72.240  1.00  0.00    -0.370 C  
BRANCH  38  39
HETATM   39  C   UNL     1     -13.097   9.518  72.274  1.00  0.00    -0.408 C  
HETATM   40  O   UNL     1     -14.234   9.346  73.118  1.00  0.00    -0.883 OA 
HETATM   41  H   UNL     1     -14.744  10.147  73.139  1.00  0.00     0.000 HD 
ENDBRANCH  38  39
ENDBRANCH  37  38
ENDBRANCH  36  37
ENDBRANCH  35  36
ENDBRANCH  34  35
ENDBRANCH  33  34
ENDBRANCH  32  33
ENDBRANCH  31  32
ENDBRANCH  30  31
ENDBRANCH  29  30
ENDBRANCH  28  29
ENDBRANCH  27  28
ENDBRANCH  26  27
ENDBRANCH  25  26
ENDBRANCH  24  25
ENDBRANCH  23  24
ENDBRANCH  22  23
ENDBRANCH  21  22
ENDBRANCH  20  21
ENDBRANCH  19  20
ENDBRANCH  18  19
ENDBRANCH  17  18
ENDBRANCH  16  17
ENDBRANCH  15  16
ENDBRANCH  14  15
ENDBRANCH  13  14
ENDBRANCH  12  13
ENDBRANCH  11  12
ENDBRANCH  10  11
ENDBRANCH   9  10
ENDBRANCH   8   9
ENDBRANCH   7   8
ENDBRANCH   6   7
ENDBRANCH   5   6
ENDBRANCH   4   5
ENDBRANCH   3   4
ENDBRANCH   2   3
TORSDOF 37
ENDMDL
MODEL      211
REMARK 921   NORMALIZED FREE ENERGY PREDICTED BY IDOCK:   -1.24 KCAL/MOL
REMARK 922        TOTAL FREE ENERGY PREDICTED BY IDOCK:   -7.54 KCAL/MOL
REMARK 923 INTER-LIGAND FREE ENERGY PREDICTED BY IDOCK:   -6.63 KCAL/MOL
REMARK 924 INTRA-LIGAND FREE ENERGY PREDICTED BY IDOCK:   -0.91 KCAL/MOL
REMARK 927      BINDING AFFINITY PREDICTED BY RF-SCORE:    0.00 PKD
ROOT
HETATM    1  C   UNL     1     -10.084   9.507  63.861  1.00  0.00     1.643 C  
HETATM    2  C   UNL     1      -9.954  10.616  64.890  1.00  0.00    -0.382 C  
ENDROOT
BRANCH   2   3
HETATM    3  C   UNL     1     -10.509  11.932  64.351  1.00  0.00    -0.356 C  
BRANCH   3   4
HETATM    4  C   UNL     1     -10.532  13.008  65.435  1.00  0.00    -0.308 C  
BRANCH   4   5
HETATM    5  C   UNL     1     -11.241  12.499  66.688  1.00  0.00    -0.357 C  
BRANCH   5   6
HETATM    6  C   UNL     1     -10.840  13.316  67.910  1.00  0.00    -0.260 C  
BRANCH   6   7
HETATM    7  C   UNL     1     -11.111  14.799  67.681  1.00  0.00    -0.311 C  
BRANCH   7   8
HETATM    8  C   UNL     1     -12.033  15.350  68.760  1.00  0.00    -0.278 C  
BRANCH   8   9
HETATM    9  C   UNL     1     -12.415  14.262  69.759  1.00  0.00    -0.264 C  
BRANCH   9  10
HETATM   10  C   UNL     1     -12.785  14.884  71.099  1.00  0.00    -0.411 C  
BRANCH  10  11
HETATM   11  C   UNL     1     -12.778  13.845  72.210  1.00  0.00    -0.304 C  
BRANCH  11  12
HETATM   12  C   UNL     1     -13.918  12.860  72.019  1.00  0.00    -0.032 C  
BRANCH  12  13
HETATM   13  O   UNL     1     -13.468  11.825  71.153  1.00  0.00     0.157 OA 
BRANCH  13  14
HETATM   14  C   UNL     1     -12.348  11.150  71.717  1.00  0.00     0.115 C  
BRANCH  14  15
HETATM   15  C   UNL     1     -12.823   9.884  72.409  1.00  0.00    -0.136 C  
BRANCH  15  16
HETATM   16  O   UNL     1     -11.745   8.956  72.427  1.00  0.00    -0.331 OA 
BRANCH  16  17
HETATM   17  C   UNL     1     -11.948   7.909  71.484  1.00  0.00    -0.301 C  
BRANCH  17  18
HETATM   18  C   UNL     1     -10.598   7.298  71.143  1.00  0.00    -0.222 C  
BRANCH  18  19
HETATM   19  O   UNL     1      -9.770   7.339  72.299  1.00  0.00    -0.149 OA 
BRANCH  19  20
HETATM   20  C   UNL     1      -8.463   6.831  72.025  1.00  0.00    -0.112 C  
BRANCH  20  21
HETATM   21  C   UNL     1      -7.457   7.590  72.882  1.00  0.00    -0.081 C  
BRANCH  21  22
HETATM   22  O   UNL     1      -6.921   8.669  72.111  1.00  0.00    -0.146 OA 
BRANCH  22  23
HETATM   23  C   UNL     1      -5.881   8.226  71.247  1.00  0.00    -0.035 C  
BRANCH  23  24
HETATM   24  C   UNL     1      -5.576   9.323  70.238  1.00  0.00    -0.031 C  
BRANCH  24  25
HETATM   25  O   UNL     1      -6.472  10.409  70.458  1.00  0.00    -0.188 OA 
BRANCH  25  26
HETATM   26  C   UNL     1      -7.744  10.156  69.874  1.00  0.00    -0.160 C  
BRANCH  26  27
HETATM   27  C   UNL     1      -7.788  10.804  68.498  1.00  0.00    -0.122 C  
BRANCH  27  28
HETATM   28  O   UNL     1      -7.154  12.077  68.561  1.00  0.00    -0.084 OA 
BRANCH  28  29
HETATM   29  C   UNL     1      -7.233  12.752  67.310  1.00  0.00    -0.082 C  
BRANCH  29  30
HETATM   30  C   UNL     1      -7.480  14.231  67.563  1.00  0.00    -0.182 C  
BRANCH  30  31
HETATM   31  O   UNL     1      -6.566  14.690  68.553  1.00  0.00    -0.086 OA 
BRANCH  31  32
HETATM   32  C   UNL     1      -6.189  16.046  68.321  1.00  0.00    -0.113 C  
BRANCH  32  33
HETATM   33  C   UNL     1      -6.730  16.910  69.451  1.00  0.00    -0.220 C  
BRANCH  33  34
HETATM   34  O   UNL     1      -6.395  18.272  69.201  1.00  0.00    -0.231 OA 
BRANCH  34  35
HETATM   35  C   UNL     1      -7.381  18.911  68.395  1.00  0.00    -0.288 C  
BRANCH  35  36
HETATM   36  C   UNL     1      -8.284  17.847  67.785  1.00  0.00    -0.233 C  
BRANCH  36  37
HETATM   37  O   UNL     1      -9.592  17.943  68.352  1.00  0.00    -0.293 OA 
BRANCH  37  38
HETATM   38  C   UNL     1     -10.355  18.971  67.707  1.00  0.00    -0.417 C  
BRANCH  38  39
HETATM   39  C   UNL     1      -9.913  19.052  66.250  1.00  0.00    -0.398 C  
HETATM   40  O   UNL     1      -9.850  20.416  65.836  1.00  0.00    -0.642 OA 
HETATM   41  H   UNL     1      -9.575  20.467  64.929  1.00  0.00     0.000 HD 
ENDBRANCH  38  39
ENDBRANCH  37  38
ENDBRANCH  36  37
ENDBRANCH  35  36
ENDBRANCH  34  35
ENDBRANCH  33  34
ENDBRANCH  32  33
ENDBRANCH  31  32
ENDBRANCH  30  31
ENDBRANCH  29  30
ENDBRANCH  28  29
ENDBRANCH  27  28
ENDBRANCH  26  27
ENDBRANCH  25  26
ENDBRANCH  24  25
ENDBRANCH  23  24
ENDBRANCH  22  23
ENDBRANCH  21  22
ENDBRANCH  20  21
ENDBRANCH  19  20
ENDBRANCH  18  19
ENDBRANCH  17  18
ENDBRANCH  16  17
ENDBRANCH  15  16
ENDBRANCH  14  15
ENDBRANCH  13  14
ENDBRANCH  12  13
ENDBRANCH  11  12
ENDBRANCH  10  11
ENDBRANCH   9  10
ENDBRANCH   8   9
ENDBRANCH   7   8
ENDBRANCH   6   7
ENDBRANCH   5   6
ENDBRANCH   4   5
ENDBRANCH   3   4
ENDBRANCH   2   3
TORSDOF 37
ENDMDL
MODEL      212
REMARK 921   NORMALIZED FREE ENERGY PREDICTED BY IDOCK:   -1.16 KCAL/MOL
REMARK 922        TOTAL FREE ENERGY PREDICTED BY IDOCK:   -7.29 KCAL/MOL
REMARK 923 INTER-LIGAND FREE ENERGY PREDICTED BY IDOCK:   -6.72 KCAL/MOL
REMARK 924 INTRA-LIGAND FREE ENERGY PREDICTED BY IDOCK:   -0.57 KCAL/MOL
REMARK 927      BINDING AFFINITY PREDICTED BY RF-SCORE:    0.00 PKD
ROOT
HETATM    1  C   UNL     1     -12.744  14.852  68.533  1.00  0.00     0.759 C  
HETATM    2  C   UNL     1     -11.609  14.628  67.549  1.00  0.00    -0.396 C  
ENDROOT
BRANCH   2   3
HETATM    3  C   UNL     1     -10.253  14.835  68.219  1.00  0.00    -0.227 C  
BRANCH   3   4
HETATM    4  C   UNL     1      -9.885  16.316  68.276  1.00  0.00    -0.227 C  
BRANCH   4   5
HETATM    5  C   UNL     1      -9.951  16.835  69.710  1.00  0.00     0.181 C  
BRANCH   5   6
HETATM    6  C   UNL     1     -11.369  16.738  70.260  1.00  0.00     0.284 C  
BRANCH   6   7
HETATM    7  C   UNL     1     -11.354  16.268  71.711  1.00  0.00    -0.142 C  
BRANCH   7   8
HETATM    8  C   UNL     1     -11.685  14.784  71.798  1.00  0.00    -0.315 C  
BRANCH   8   9
HETATM    9  C   UNL     1     -12.814  14.534  72.794  1.00  0.00    -0.518 C  
BRANCH   9  10
HETATM   10  C   UNL     1     -13.933  13.741  72.133  1.00  0.00    -0.638 C  
BRANCH  10  11
HETATM   11  C   UNL     1     -13.653  12.247  72.183  1.00  0.00    -0.348 C  
BRANCH  11  12
HETATM   12  C   UNL     1     -12.868  11.814  70.957  1.00  0.00    -0.215 C  
BRANCH  12  13
HETATM   13  O   UNL     1     -12.888  10.393  70.897  1.00  0.00    -0.357 OA 
BRANCH  13  14
HETATM   14  C   UNL     1     -12.394   9.832  72.108  1.00  0.00    -0.148 C  
BRANCH  14  15
HETATM   15  C   UNL     1     -13.246   8.634  72.489  1.00  0.00    -0.294 C  
BRANCH  15  16
HETATM   16  O   UNL     1     -13.298   7.753  71.373  1.00  0.00    -0.321 OA 
BRANCH  16  17
HETATM   17  C   UNL     1     -12.111   6.975  71.272  1.00  0.00    -0.361 C  
BRANCH  17  18
HETATM   18  C   UNL     1     -11.924   6.209  72.572  1.00  0.00    -0.124 C  
BRANCH  18  19
HETATM   19  O   UNL     1     -10.791   6.731  73.255  1.00  0.00    -0.282 OA 
BRANCH  19  20
HETATM   20  C   UNL     1     -10.113   5.716  73.998  1.00  0.00    -0.234 C  
BRANCH  20  21
HETATM   21  C   UNL     1      -8.703   6.202  74.309  1.00  0.00    -0.126 C  
BRANCH  21  22
HETATM   22  O   UNL     1      -8.585   7.564  73.890  1.00  0.00    -0.174 OA 
BRANCH  22  23
HETATM   23  C   UNL     1      -7.227   7.988  73.870  1.00  0.00    -0.144 C  
BRANCH  23  24
HETATM   24  C   UNL     1      -6.754   8.064  72.426  1.00  0.00    -0.077 C  
BRANCH  24  25
HETATM   25  O   UNL     1      -6.640   9.434  72.053  1.00  0.00    -0.300 OA 
BRANCH  25  26
HETATM   26  C   UNL     1      -6.483   9.575  70.647  1.00  0.00    -0.093 C  
BRANCH  26  27
HETATM   27  C   UNL     1      -7.851   9.800  70.021  1.00  0.00    -0.178 C  
BRANCH  27  28
HETATM   28  O   UNL     1      -7.682  10.337  68.713  1.00  0.00    -0.085 OA 
BRANCH  28  29
HETATM   29  C   UNL     1      -7.739   9.311  67.726  1.00  0.00    -0.088 C  
BRANCH  29  30
HETATM   30  C   UNL     1      -6.918   8.124  68.202  1.00  0.00    -0.077 C  
BRANCH  30  31
HETATM   31  O   UNL     1      -5.824   7.929  67.311  1.00  0.00    -0.039 OA 
BRANCH  31  32
HETATM   32  C   UNL     1      -6.222   7.193  66.157  1.00  0.00    -0.040 C  
BRANCH  32  33
HETATM   33  C   UNL     1      -6.901   5.906  66.601  1.00  0.00    -0.059 C  
BRANCH  33  34
HETATM   34  O   UNL     1      -6.515   4.847  65.729  1.00  0.00    -0.038 OA 
BRANCH  34  35
HETATM   35  C   UNL     1      -6.764   5.179  64.365  1.00  0.00    -0.047 C  
BRANCH  35  36
HETATM   36  C   UNL     1      -8.034   4.473  63.910  1.00  0.00    -0.093 C  
BRANCH  36  37
HETATM   37  O   UNL     1      -8.261   3.319  64.721  1.00  0.00    -0.089 OA 
BRANCH  37  38
HETATM   38  C   UNL     1      -9.661   3.136  64.969  1.00  0.00    -0.099 C  
BRANCH  38  39
HETATM   39  C   UNL     1     -10.434   4.128  64.107  1.00  0.00    -0.095 C  
HETATM   40  O   UNL     1     -11.727   4.353  64.667  1.00  0.00    -0.854 OA 
HETATM   41  H   UNL     1     -12.209   4.971  64.130  1.00  0.00     0.000 HD 
ENDBRANCH  38  39
ENDBRANCH  37  38
ENDBRANCH  36  37
ENDBRANCH  35  36
ENDBRANCH  34  35
ENDBRANCH  33  34
ENDBRANCH  32  33
ENDBRANCH  31  32
ENDBRANCH  30  31
ENDBRANCH  29  30
ENDBRANCH  28  29
ENDBRANCH  27  28
ENDBRANCH  26  27
ENDBRANCH  25  26
ENDBRANCH  24  25
ENDBRANCH  23  24
ENDBRANCH  22  23
ENDBRANCH  21  22
ENDBRANCH  20  21
ENDBRANCH  19  20
ENDBRANCH  18  19
ENDBRANCH  17  18
ENDBRANCH  16  17
ENDBRANCH  15  16
ENDBRANCH  14  15
ENDBRANCH  13  14
ENDBRANCH  12  13
ENDBRANCH  11  12
ENDBRANCH  10  11
ENDBRANCH   9  10
ENDBRANCH   8   9
ENDBRANCH   7   8
ENDBRANCH   6   7
ENDBRANCH   5   6
ENDBRANCH   4   5
ENDBRANCH   3   4
ENDBRANCH   2   3
TORSDOF 37
ENDMDL
MODEL      213
REMARK 921   NORMALIZED FREE ENERGY PREDICTED BY IDOCK:   -1.11 KCAL/MOL
REMARK 922        TOTAL FREE ENERGY PREDICTED BY IDOCK:   -7.14 KCAL/MOL
REMARK 923 INTER-LIGAND FREE ENERGY PREDICTED BY IDOCK:   -6.16 KCAL/MOL
REMARK 924 INTRA-LIGAND FREE ENERGY PREDICTED BY IDOCK:   -0.98 KCAL/MOL
REMARK 927      BINDING AFFINITY PREDICTED BY RF-SCORE:    0.00 PKD
ROOT
HETATM    1  C   UNL     1     -10.224   3.616  72.888  1.00  0.00    -0.236 C  
HETATM    2  C   UNL     1      -9.226   4.667  72.432  1.00  0.00    -0.149 C  
ENDROOT
BRANCH   2   3
HETATM    3  C   UNL     1      -9.194   4.769  70.909  1.00  0.00    -0.194 C  
BRANCH   3   4
HETATM    4  C   UNL     1      -8.612   6.106  70.456  1.00  0.00    -0.138 C  
BRANCH   4   5
HETATM    5  C   UNL     1      -7.140   5.956  70.081  1.00  0.00    -0.071 C  
BRANCH   5   6
HETATM    6  C   UNL     1      -6.347   5.330  71.223  1.00  0.00    -0.034 C  
BRANCH   6   7
HETATM    7  C   UNL     1      -5.489   4.176  70.716  1.00  0.00    -0.011 C  
BRANCH   7   8
HETATM    8  C   UNL     1      -5.673   3.989  69.215  1.00  0.00    -0.018 C  
BRANCH   8   9
HETATM    9  C   UNL     1      -6.654   2.859  68.922  1.00  0.00    -0.033 C  
BRANCH   9  10
HETATM   10  C   UNL     1      -6.163   2.028  67.745  1.00  0.00    -0.024 C  
BRANCH  10  11
HETATM   11  C   UNL     1      -5.401   2.885  66.745  1.00  0.00    -0.016 C  
BRANCH  11  12
HETATM   12  C   UNL     1      -6.336   3.884  66.086  1.00  0.00    -0.033 C  
BRANCH  12  13
HETATM   13  O   UNL     1      -6.394   3.586  64.696  1.00  0.00    -0.023 OA 
BRANCH  13  14
HETATM   14  C   UNL     1      -7.723   3.254  64.308  1.00  0.00    -0.077 C  
BRANCH  14  15
HETATM   15  C   UNL     1      -7.930   3.638  62.854  1.00  0.00    -0.071 C  
BRANCH  15  16
HETATM   16  O   UNL     1      -8.824   4.745  62.810  1.00  0.00    -0.124 OA 
BRANCH  16  17
HETATM   17  C   UNL     1      -8.281   5.875  63.484  1.00  0.00    -0.049 C  
BRANCH  17  18
HETATM   18  C   UNL     1      -7.535   6.729  62.472  1.00  0.00    -0.078 C  
BRANCH  18  19
HETATM   19  O   UNL     1      -8.103   8.033  62.462  1.00  0.00    -0.154 OA 
BRANCH  19  20
HETATM   20  C   UNL     1      -7.149   9.023  62.853  1.00  0.00    -0.091 C  
BRANCH  20  21
HETATM   21  C   UNL     1      -7.606   9.644  64.168  1.00  0.00    -0.128 C  
BRANCH  21  22
HETATM   22  O   UNL     1      -8.985   9.322  64.372  1.00  0.00    -0.198 OA 
BRANCH  22  23
HETATM   23  C   UNL     1      -9.406   9.645  65.692  1.00  0.00    -0.237 C  
BRANCH  23  24
HETATM   24  C   UNL     1      -9.948  11.066  65.703  1.00  0.00    -0.248 C  
BRANCH  24  25
HETATM   25  O   UNL     1      -9.963  11.540  67.047  1.00  0.00    -0.197 OA 
BRANCH  25  26
HETATM   26  C   UNL     1     -10.119  12.952  67.095  1.00  0.00    -0.243 C  
BRANCH  26  27
HETATM   27  C   UNL     1      -9.927  13.418  68.531  1.00  0.00    -0.193 C  
BRANCH  27  28
HETATM   28  O   UNL     1      -8.969  14.471  68.555  1.00  0.00    -0.180 OA 
BRANCH  28  29
HETATM   29  C   UNL     1      -7.641  13.957  68.530  1.00  0.00    -0.134 C  
BRANCH  29  30
HETATM   30  C   UNL     1      -6.714  14.952  69.209  1.00  0.00    -0.141 C  
BRANCH  30  31
HETATM   31  O   UNL     1      -5.743  15.398  68.268  1.00  0.00    -0.102 OA 
BRANCH  31  32
HETATM   32  C   UNL     1      -5.605  16.817  68.299  1.00  0.00    -0.115 C  
BRANCH  32  33
HETATM   33  C   UNL     1      -6.870  17.424  68.889  1.00  0.00    -0.241 C  
BRANCH  33  34
HETATM   34  O   UNL     1      -7.566  18.138  67.872  1.00  0.00    -0.224 OA 
BRANCH  34  35
HETATM   35  C   UNL     1      -8.059  19.385  68.356  1.00  0.00    -0.343 C  
BRANCH  35  36
HETATM   36  C   UNL     1      -9.564  19.440  68.133  1.00  0.00    -0.358 C  
BRANCH  36  37
HETATM   37  O   UNL     1     -10.211  18.485  68.975  1.00  0.00    -0.356 OA 
BRANCH  37  38
HETATM   38  C   UNL     1     -10.551  17.302  68.241  1.00  0.00    -0.383 C  
BRANCH  38  39
HETATM   39  C   UNL     1     -11.594  16.527  69.038  1.00  0.00    -0.027 C  
HETATM   40  O   UNL     1     -11.307  16.620  70.433  1.00  0.00    -0.493 OA 
HETATM   41  H   UNL     1     -11.957  16.137  70.929  1.00  0.00     0.000 HD 
ENDBRANCH  38  39
ENDBRANCH  37  38
ENDBRANCH  36  37
ENDBRANCH  35  36
ENDBRANCH  34  35
ENDBRANCH  33  34
ENDBRANCH  32  33
ENDBRANCH  31  32
ENDBRANCH  30  31
ENDBRANCH  29  30
ENDBRANCH  28  29
ENDBRANCH  27  28
ENDBRANCH  26  27
ENDBRANCH  25  26
ENDBRANCH  24  25
ENDBRANCH  23  24
ENDBRANCH  22  23
ENDBRANCH  21  22
ENDBRANCH  20  21
ENDBRANCH  19  20
ENDBRANCH  18  19
ENDBRANCH  17  18
ENDBRANCH  16  17
ENDBRANCH  15  16
ENDBRANCH  14  15
ENDBRANCH  13  14
ENDBRANCH  12  13
ENDBRANCH  11  12
ENDBRANCH  10  11
ENDBRANCH   9  10
ENDBRANCH   8   9
ENDBRANCH   7   8
ENDBRANCH   6   7
ENDBRANCH   5   6
ENDBRANCH   4   5
ENDBRANCH   3   4
ENDBRANCH   2   3
TORSDOF 37
ENDMDL
MODEL      214
REMARK 921   NORMALIZED FREE ENERGY PREDICTED BY IDOCK:   -1.10 KCAL/MOL
REMARK 922        TOTAL FREE ENERGY PREDICTED BY IDOCK:   -7.12 KCAL/MOL
REMARK 923 INTER-LIGAND FREE ENERGY PREDICTED BY IDOCK:   -6.80 KCAL/MOL
REMARK 924 INTRA-LIGAND FREE ENERGY PREDICTED BY IDOCK:   -0.32 KCAL/MOL
REMARK 927      BINDING AFFINITY PREDICTED BY RF-SCORE:    0.00 PKD
ROOT
HETATM    1  C   UNL     1     -10.627  14.630  68.495  1.00  0.00    -0.245 C  
HETATM    2  C   UNL     1      -9.231  14.179  68.889  1.00  0.00    -0.003 C  
ENDROOT
BRANCH   2   3
HETATM    3  C   UNL     1      -8.655  15.069  69.986  1.00  0.00     0.436 C  
BRANCH   3   4
HETATM    4  C   UNL     1      -7.819  16.204  69.397  1.00  0.00    -0.126 C  
BRANCH   4   5
HETATM    5  C   UNL     1      -6.334  15.978  69.666  1.00  0.00    -0.186 C  
BRANCH   5   6
HETATM    6  C   UNL     1      -5.643  15.383  68.444  1.00  0.00    -0.106 C  
BRANCH   6   7
HETATM    7  C   UNL     1      -5.172  16.485  67.501  1.00  0.00    -0.154 C  
BRANCH   7   8
HETATM    8  C   UNL     1      -6.345  17.348  67.055  1.00  0.00    -0.202 C  
BRANCH   8   9
HETATM    9  C   UNL     1      -5.875  18.483  66.151  1.00  0.00    -0.202 C  
BRANCH   9  10
HETATM   10  C   UNL     1      -6.825  19.669  66.259  1.00  0.00    -0.228 C  
BRANCH  10  11
HETATM   11  C   UNL     1      -8.276  19.213  66.268  1.00  0.00    -0.309 C  
BRANCH  11  12
HETATM   12  C   UNL     1      -9.160  20.279  66.893  1.00  0.00    -0.328 C  
BRANCH  12  13
HETATM   13  O   UNL     1     -10.509  19.836  66.815  1.00  0.00    -0.440 OA 
BRANCH  13  14
HETATM   14  C   UNL     1     -10.796  19.322  65.519  1.00  0.00    -0.059 C  
BRANCH  14  15
HETATM   15  C   UNL     1     -10.866  17.807  65.585  1.00  0.00     0.050 C  
BRANCH  15  16
HETATM   16  O   UNL     1     -11.062  17.312  64.265  1.00  0.00    -0.851 OA 
BRANCH  16  17
HETATM   17  C   UNL     1     -11.747  16.065  64.276  1.00  0.00    -0.081 C  
BRANCH  17  18
HETATM   18  C   UNL     1     -10.754  14.973  64.641  1.00  0.00    -0.217 C  
BRANCH  18  19
HETATM   19  O   UNL     1     -11.304  14.181  65.686  1.00  0.00    -0.309 OA 
BRANCH  19  20
HETATM   20  C   UNL     1     -12.009  13.049  65.171  1.00  0.00    -0.402 C  
BRANCH  20  21
HETATM   21  C   UNL     1     -11.014  12.142  64.457  1.00  0.00    -0.314 C  
BRANCH  21  22
HETATM   22  O   UNL     1      -9.789  12.133  65.195  1.00  0.00    -0.247 OA 
BRANCH  22  23
HETATM   23  C   UNL     1      -9.969  11.588  66.497  1.00  0.00    -0.210 C  
BRANCH  23  24
HETATM   24  C   UNL     1      -9.830  10.075  66.423  1.00  0.00    -0.224 C  
BRANCH  24  25
HETATM   25  O   UNL     1      -9.550   9.577  67.728  1.00  0.00    -0.131 OA 
BRANCH  25  26
HETATM   26  C   UNL     1     -10.249   8.363  67.977  1.00  0.00    -0.212 C  
BRANCH  26  27
HETATM   27  C   UNL     1     -10.232   8.086  69.473  1.00  0.00    -0.209 C  
BRANCH  27  28
HETATM   28  O   UNL     1      -8.882   8.050  69.925  1.00  0.00    -0.141 OA 
BRANCH  28  29
HETATM   29  C   UNL     1      -8.217   6.880  69.460  1.00  0.00    -0.131 C  
BRANCH  29  30
HETATM   30  C   UNL     1      -8.407   5.767  70.478  1.00  0.00    -0.119 C  
BRANCH  30  31
HETATM   31  O   UNL     1      -7.988   4.535  69.901  1.00  0.00    -0.060 OA 
BRANCH  31  32
HETATM   32  C   UNL     1      -9.048   3.582  69.888  1.00  0.00    -0.125 C  
BRANCH  32  33
HETATM   33  C   UNL     1      -9.008   2.816  68.573  1.00  0.00    -0.142 C  
BRANCH  33  34
HETATM   34  O   UNL     1      -7.684   2.856  68.047  1.00  0.00    -0.056 OA 
BRANCH  34  35
HETATM   35  C   UNL     1      -7.628   3.603  66.835  1.00  0.00    -0.080 C  
BRANCH  35  36
HETATM   36  C   UNL     1      -8.951   3.447  66.098  1.00  0.00    -0.145 C  
BRANCH  36  37
HETATM   37  O   UNL     1      -8.740   2.742  64.874  1.00  0.00    -0.104 OA 
BRANCH  37  38
HETATM   38  C   UNL     1      -8.497   3.653  63.795  1.00  0.00    -0.091 C  
BRANCH  38  39
HETATM   39  C   UNL     1      -9.631   4.672  63.764  1.00  0.00     0.138 C  
HETATM   40  O   UNL     1      -9.508   5.501  62.609  1.00  0.00    -0.234 OA 
HETATM   41  H   UNL     1     -10.214   6.135  62.589  1.00  0.00     0.000 HD 
ENDBRANCH  38  39
ENDBRANCH  37  38
ENDBRANCH  36  37
ENDBRANCH  35  36
ENDBRANCH  34  35
ENDBRANCH  33  34
ENDBRANCH  32  33
ENDBRANCH  31  32
ENDBRANCH  30  31
ENDBRANCH  29  30
ENDBRANCH  28  29
ENDBRANCH  27  28
ENDBRANCH  26  27
ENDBRANCH  25  26
ENDBRANCH  24  25
ENDBRANCH  23  24
ENDBRANCH  22  23
ENDBRANCH  21  22
ENDBRANCH  20  21
ENDBRANCH  19  20
ENDBRANCH  18  19
ENDBRANCH  17  18
ENDBRANCH  16  17
ENDBRANCH  15  16
ENDBRANCH  14  15
ENDBRANCH  13  14
ENDBRANCH  12  13
ENDBRANCH  11  12
ENDBRANCH  10  11
ENDBRANCH   9  10
ENDBRANCH   8   9
ENDBRANCH   7   8
ENDBRANCH   6   7
ENDBRANCH   5   6
ENDBRANCH   4   5
ENDBRANCH   3   4
ENDBRANCH   2   3
TORSDOF 37
ENDMDL
MODEL      215
REMARK 921   NORMALIZED FREE ENERGY PREDICTED BY IDOCK:   -1.05 KCAL/MOL
REMARK 922        TOTAL FREE ENERGY PREDICTED BY IDOCK:   -6.95 KCAL/MOL
REMARK 923 INTER-LIGAND FREE ENERGY PREDICTED BY IDOCK:   -7.64 KCAL/MOL
REMARK 924 INTRA-LIGAND FREE ENERGY PREDICTED BY IDOCK:    0.69 KCAL/MOL
REMARK 927      BINDING AFFINITY PREDICTED BY RF-SCORE:    0.00 PKD
ROOT
HETATM    1  C   UNL     1      -5.813   3.134  63.518  1.00  0.00    -0.013 C  
HETATM    2  C   UNL     1      -5.816   3.310  65.026  1.00  0.00    -0.018 C  
ENDROOT
BRANCH   2   3
HETATM    3  C   UNL     1      -6.233   2.021  65.729  1.00  0.00    -0.023 C  
BRANCH   3   4
HETATM    4  C   UNL     1      -7.462   2.243  66.608  1.00  0.00    -0.065 C  
BRANCH   4   5
HETATM    5  C   UNL     1      -7.720   3.734  66.812  1.00  0.00    -0.084 C  
BRANCH   5   6
HETATM    6  C   UNL     1      -6.972   4.254  68.034  1.00  0.00    -0.055 C  
BRANCH   6   7
HETATM    7  C   UNL     1      -6.107   5.456  67.666  1.00  0.00    -0.026 C  
BRANCH   7   8
HETATM    8  C   UNL     1      -6.360   6.612  68.625  1.00  0.00    -0.031 C  
BRANCH   8   9
HETATM    9  C   UNL     1      -6.031   6.213  70.060  1.00  0.00    -0.025 C  
BRANCH   9  10
HETATM   10  C   UNL     1      -5.491   7.411  70.829  1.00  0.00    -0.027 C  
BRANCH  10  11
HETATM   11  C   UNL     1      -6.534   8.513  70.936  1.00  0.00    -0.042 C  
BRANCH  11  12
HETATM   12  C   UNL     1      -6.681   8.963  72.380  1.00  0.00     0.101 C  
BRANCH  12  13
HETATM   13  O   UNL     1      -7.956   8.539  72.848  1.00  0.00    -0.335 OA 
BRANCH  13  14
HETATM   14  C   UNL     1      -7.976   7.129  73.042  1.00  0.00    -0.101 C  
BRANCH  14  15
HETATM   15  C   UNL     1      -9.139   6.534  72.267  1.00  0.00    -0.138 C  
BRANCH  15  16
HETATM   16  O   UNL     1     -10.205   7.477  72.272  1.00  0.00    -0.191 OA 
BRANCH  16  17
HETATM   17  C   UNL     1     -11.210   7.127  71.326  1.00  0.00    -0.259 C  
BRANCH  17  18
HETATM   18  C   UNL     1     -11.642   8.387  70.595  1.00  0.00    -0.191 C  
BRANCH  18  19
HETATM   19  O   UNL     1     -10.919   9.494  71.118  1.00  0.00    -0.317 OA 
BRANCH  19  20
HETATM   20  C   UNL     1     -11.217  10.698  70.408  1.00  0.00    -0.252 C  
BRANCH  20  21
HETATM   21  C   UNL     1     -12.665  10.638  69.935  1.00  0.00    -0.015 C  
BRANCH  21  22
HETATM   22  O   UNL     1     -13.506  10.392  71.066  1.00  0.00    -0.277 OA 
BRANCH  22  23
HETATM   23  C   UNL     1     -13.261  11.324  72.112  1.00  0.00    -0.181 C  
BRANCH  23  24
HETATM   24  C   UNL     1     -13.397  12.734  71.558  1.00  0.00    -0.144 C  
BRANCH  24  25
HETATM   25  O   UNL     1     -13.956  13.571  72.567  1.00  0.00    -0.701 OA 
BRANCH  25  26
HETATM   26  C   UNL     1     -14.393  14.811  72.026  1.00  0.00    -0.554 C  
BRANCH  26  27
HETATM   27  C   UNL     1     -13.308  15.356  71.110  1.00  0.00    -0.508 C  
BRANCH  27  28
HETATM   28  O   UNL     1     -12.135  14.562  71.253  1.00  0.00    -0.331 OA 
BRANCH  28  29
HETATM   29  C   UNL     1     -10.963  15.371  71.248  1.00  0.00    -0.184 C  
BRANCH  29  30
HETATM   30  C   UNL     1     -10.194  15.117  69.961  1.00  0.00    -0.127 C  
BRANCH  30  31
HETATM   31  O   UNL     1     -10.990  15.532  68.856  1.00  0.00    -0.239 OA 
BRANCH  31  32
HETATM   32  C   UNL     1     -10.341  16.556  68.107  1.00  0.00    -0.296 C  
BRANCH  32  33
HETATM   33  C   UNL     1      -9.702  15.937  66.872  1.00  0.00    -0.230 C  
BRANCH  33  34
HETATM   34  O   UNL     1     -10.416  14.756  66.517  1.00  0.00    -0.280 OA 
BRANCH  34  35
HETATM   35  C   UNL     1      -9.561  13.616  66.497  1.00  0.00    -0.286 C  
BRANCH  35  36
HETATM   36  C   UNL     1     -10.386  12.387  66.140  1.00  0.00    -0.247 C  
BRANCH  36  37
HETATM   37  O   UNL     1      -9.628  11.530  65.285  1.00  0.00    -0.230 OA 
BRANCH  37  38
HETATM   38  C   UNL     1     -10.287  10.269  65.111  1.00  0.00    -0.128 C  
BRANCH  38  39
HETATM   39  C   UNL     1      -9.782   9.313  66.185  1.00  0.00    -0.279 C  
HETATM   40  O   UNL     1     -10.871   8.878  66.999  1.00  0.00    -0.308 OA 
HETATM   41  H   UNL     1     -10.556   8.282  67.668  1.00  0.00     0.000 HD 
ENDBRANCH  38  39
ENDBRANCH  37  38
ENDBRANCH  36  37
ENDBRANCH  35  36
ENDBRANCH  34  35
ENDBRANCH  33  34
ENDBRANCH  32  33
ENDBRANCH  31  32
ENDBRANCH  30  31
ENDBRANCH  29  30
ENDBRANCH  28  29
ENDBRANCH  27  28
ENDBRANCH  26  27
ENDBRANCH  25  26
ENDBRANCH  24  25
ENDBRANCH  23  24
ENDBRANCH  22  23
ENDBRANCH  21  22
ENDBRANCH  20  21
ENDBRANCH  19  20
ENDBRANCH  18  19
ENDBRANCH  17  18
ENDBRANCH  16  17
ENDBRANCH  15  16
ENDBRANCH  14  15
ENDBRANCH  13  14
ENDBRANCH  12  13
ENDBRANCH  11  12
ENDBRANCH  10  11
ENDBRANCH   9  10
ENDBRANCH   8   9
ENDBRANCH   7   8
ENDBRANCH   6   7
ENDBRANCH   5   6
ENDBRANCH   4   5
ENDBRANCH   3   4
ENDBRANCH   2   3
TORSDOF 37
ENDMDL
MODEL      216
REMARK 921   NORMALIZED FREE ENERGY PREDICTED BY IDOCK:   -1.03 KCAL/MOL
REMARK 922        TOTAL FREE ENERGY PREDICTED BY IDOCK:   -6.88 KCAL/MOL
REMARK 923 INTER-LIGAND FREE ENERGY PREDICTED BY IDOCK:   -5.89 KCAL/MOL
REMARK 924 INTRA-LIGAND FREE ENERGY PREDICTED BY IDOCK:   -0.99 KCAL/MOL
REMARK 927      BINDING AFFINITY PREDICTED BY RF-SCORE:    0.00 PKD
ROOT
HETATM    1  C   UNL     1     -10.494   3.356  64.099  1.00  0.00    -0.181 C  
HETATM    2  C   UNL     1      -9.001   3.583  63.941  1.00  0.00    -0.095 C  
ENDROOT
BRANCH   2   3
HETATM    3  C   UNL     1      -8.321   3.729  65.300  1.00  0.00    -0.101 C  
BRANCH   3   4
HETATM    4  C   UNL     1      -6.812   3.905  65.148  1.00  0.00    -0.053 C  
BRANCH   4   5
HETATM    5  C   UNL     1      -6.224   4.609  66.369  1.00  0.00    -0.032 C  
BRANCH   5   6
HETATM    6  C   UNL     1      -5.136   5.594  65.958  1.00  0.00    -0.009 C  
BRANCH   6   7
HETATM    7  C   UNL     1      -5.727   6.976  65.702  1.00  0.00    -0.032 C  
BRANCH   7   8
HETATM    8  C   UNL     1      -5.513   7.883  66.906  1.00  0.00    -0.032 C  
BRANCH   8   9
HETATM    9  C   UNL     1      -5.862   9.329  66.569  1.00  0.00    -0.058 C  
BRANCH   9  10
HETATM   10  C   UNL     1      -6.816   9.897  67.612  1.00  0.00    -0.084 C  
BRANCH  10  11
HETATM   11  C   UNL     1      -7.540  11.127  67.084  1.00  0.00    -0.125 C  
BRANCH  11  12
HETATM   12  C   UNL     1      -7.610  11.089  65.567  1.00  0.00     0.177 C  
BRANCH  12  13
HETATM   13  O   UNL     1      -8.789  10.385  65.197  1.00  0.00    -0.172 OA 
BRANCH  13  14
HETATM   14  C   UNL     1      -9.861  11.291  64.959  1.00  0.00    -0.261 C  
BRANCH  14  15
HETATM   15  C   UNL     1     -11.082  10.837  65.739  1.00  0.00     0.208 C  
BRANCH  15  16
HETATM   16  O   UNL     1     -12.212  11.552  65.253  1.00  0.00     0.038 OA 
BRANCH  16  17
HETATM   17  C   UNL     1     -12.246  11.561  63.830  1.00  0.00     0.024 C  
BRANCH  17  18
HETATM   18  C   UNL     1     -11.772  12.922  63.346  1.00  0.00    -0.461 C  
BRANCH  18  19
HETATM   19  O   UNL     1     -12.313  13.927  64.194  1.00  0.00    -0.614 OA 
BRANCH  19  20
HETATM   20  C   UNL     1     -11.316  14.869  64.593  1.00  0.00    -0.357 C  
BRANCH  20  21
HETATM   21  C   UNL     1     -11.939  16.259  64.606  1.00  0.00     0.448 C  
BRANCH  21  22
HETATM   22  O   UNL     1     -10.895  17.231  64.491  1.00  0.00    -0.726 OA 
BRANCH  22  23
HETATM   23  C   UNL     1     -10.264  17.470  65.743  1.00  0.00    -0.173 C  
BRANCH  23  24
HETATM   24  C   UNL     1      -8.940  16.721  65.780  1.00  0.00     0.103 C  
BRANCH  24  25
HETATM   25  O   UNL     1      -7.877  17.668  65.719  1.00  0.00    -0.548 OA 
BRANCH  25  26
HETATM   26  C   UNL     1      -7.313  17.894  67.005  1.00  0.00    -0.194 C  
BRANCH  26  27
HETATM   27  C   UNL     1      -7.536  19.350  67.388  1.00  0.00    -0.231 C  
BRANCH  27  28
HETATM   28  O   UNL     1      -8.229  19.403  68.630  1.00  0.00    -0.355 OA 
BRANCH  28  29
HETATM   29  C   UNL     1      -9.478  18.725  68.551  1.00  0.00    -0.358 C  
BRANCH  29  30
HETATM   30  C   UNL     1     -10.039  18.556  69.954  1.00  0.00     0.865 C  
BRANCH  30  31
HETATM   31  O   UNL     1     -10.982  17.490  69.950  1.00  0.00     0.423 OA 
BRANCH  31  32
HETATM   32  C   UNL     1     -10.425  16.307  69.381  1.00  0.00    -0.292 C  
BRANCH  32  33
HETATM   33  C   UNL     1     -11.535  15.511  68.710  1.00  0.00    -0.355 C  
BRANCH  33  34
HETATM   34  O   UNL     1     -12.236  14.760  69.698  1.00  0.00    -0.306 OA 
BRANCH  34  35
HETATM   35  C   UNL     1     -12.249  13.370  69.382  1.00  0.00    -0.195 C  
BRANCH  35  36
HETATM   36  C   UNL     1     -12.227  12.570  70.678  1.00  0.00    -0.276 C  
BRANCH  36  37
HETATM   37  O   UNL     1     -13.299  12.991  71.522  1.00  0.00    -0.318 OA 
BRANCH  37  38
HETATM   38  C   UNL     1     -12.805  13.736  72.642  1.00  0.00    -0.214 C  
BRANCH  38  39
HETATM   39  C   UNL     1     -13.626  15.015  72.768  1.00  0.00    -0.461 C  
HETATM   40  O   UNL     1     -14.358  15.242  71.564  1.00  0.00    -0.509 OA 
HETATM   41  H   UNL     1     -14.869  16.038  71.642  1.00  0.00     0.000 HD 
ENDBRANCH  38  39
ENDBRANCH  37  38
ENDBRANCH  36  37
ENDBRANCH  35  36
ENDBRANCH  34  35
ENDBRANCH  33  34
ENDBRANCH  32  33
ENDBRANCH  31  32
ENDBRANCH  30  31
ENDBRANCH  29  30
ENDBRANCH  28  29
ENDBRANCH  27  28
ENDBRANCH  26  27
ENDBRANCH  25  26
ENDBRANCH  24  25
ENDBRANCH  23  24
ENDBRANCH  22  23
ENDBRANCH  21  22
ENDBRANCH  20  21
ENDBRANCH  19  20
ENDBRANCH  18  19
ENDBRANCH  17  18
ENDBRANCH  16  17
ENDBRANCH  15  16
ENDBRANCH  14  15
ENDBRANCH  13  14
ENDBRANCH  12  13
ENDBRANCH  11  12
ENDBRANCH  10  11
ENDBRANCH   9  10
ENDBRANCH   8   9
ENDBRANCH   7   8
ENDBRANCH   6   7
ENDBRANCH   5   6
ENDBRANCH   4   5
ENDBRANCH   3   4
ENDBRANCH   2   3
TORSDOF 37
ENDMDL
MODEL      217
REMARK 921   NORMALIZED FREE ENERGY PREDICTED BY IDOCK:   -1.02 KCAL/MOL
REMARK 922        TOTAL FREE ENERGY PREDICTED BY IDOCK:   -6.84 KCAL/MOL
REMARK 923 INTER-LIGAND FREE ENERGY PREDICTED BY IDOCK:   -6.47 KCAL/MOL
REMARK 924 INTRA-LIGAND FREE ENERGY PREDICTED BY IDOCK:   -0.37 KCAL/MOL
REMARK 927      BINDING AFFINITY PREDICTED BY RF-SCORE:    0.00 PKD
ROOT
HETATM    1  C   UNL     1     -11.895  15.429  70.217  1.00  0.00    -0.368 C  
HETATM    2  C   UNL     1     -11.011  15.188  69.005  1.00  0.00    -0.245 C  
ENDROOT
BRANCH   2   3
HETATM    3  C   UNL     1     -11.828  15.212  67.716  1.00  0.00    -0.165 C  
BRANCH   3   4
HETATM    4  C   UNL     1     -11.223  14.290  66.660  1.00  0.00    -0.337 C  
BRANCH   4   5
HETATM    5  C   UNL     1     -12.082  13.042  66.475  1.00  0.00    -0.410 C  
BRANCH   5   6
HETATM    6  C   UNL     1     -11.224  11.783  66.483  1.00  0.00    -0.380 C  
BRANCH   6   7
HETATM    7  C   UNL     1      -9.946  11.995  65.678  1.00  0.00    -0.270 C  
BRANCH   7   8
HETATM    8  C   UNL     1      -8.900  10.952  66.046  1.00  0.00    -0.198 C  
BRANCH   8   9
HETATM    9  C   UNL     1      -9.361   9.553  65.651  1.00  0.00    -0.302 C  
BRANCH   9  10
HETATM   10  C   UNL     1      -8.885   9.219  64.243  1.00  0.00    -0.185 C  
BRANCH  10  11
HETATM   11  C   UNL     1      -8.032   7.960  64.234  1.00  0.00    -0.130 C  
BRANCH  11  12
HETATM   12  C   UNL     1      -6.782   8.162  65.074  1.00  0.00    -0.052 C  
BRANCH  12  13
HETATM   13  O   UNL     1      -6.380   6.895  65.579  1.00  0.00    -0.041 OA 
BRANCH  13  14
HETATM   14  C   UNL     1      -6.685   6.787  66.965  1.00  0.00    -0.059 C  
BRANCH  14  15
HETATM   15  C   UNL     1      -6.919   5.327  67.314  1.00  0.00    -0.065 C  
BRANCH  15  16
HETATM   16  O   UNL     1      -7.523   4.693  66.192  1.00  0.00    -0.080 OA 
BRANCH  16  17
HETATM   17  C   UNL     1      -8.742   4.053  66.553  1.00  0.00    -0.116 C  
BRANCH  17  18
HETATM   18  C   UNL     1      -9.097   4.460  67.974  1.00  0.00    -0.127 C  
BRANCH  18  19
HETATM   19  O   UNL     1      -8.622   3.464  68.871  1.00  0.00    -0.075 OA 
BRANCH  19  20
HETATM   20  C   UNL     1      -9.635   2.500  69.167  1.00  0.00     0.030 C  
BRANCH  20  21
HETATM   21  C   UNL     1      -9.066   1.485  70.151  1.00  0.00    -0.083 C  
BRANCH  21  22
HETATM   22  O   UNL     1      -9.379   1.911  71.481  1.00  0.00    -0.088 OA 
BRANCH  22  23
HETATM   23  C   UNL     1      -8.500   2.939  71.920  1.00  0.00    -0.062 C  
BRANCH  23  24
HETATM   24  C   UNL     1      -9.323   4.077  72.504  1.00  0.00    -0.120 C  
BRANCH  24  25
HETATM   25  O   UNL     1      -8.902   5.300  71.905  1.00  0.00    -0.133 OA 
BRANCH  25  26
HETATM   26  C   UNL     1      -9.440   6.422  72.592  1.00  0.00    -0.148 C  
BRANCH  26  27
HETATM   27  C   UNL     1     -10.959   6.353  72.531  1.00  0.00    -0.251 C  
BRANCH  27  28
HETATM   28  O   UNL     1     -11.500   7.606  72.936  1.00  0.00    -0.354 OA 
BRANCH  28  29
HETATM   29  C   UNL     1     -11.645   8.486  71.825  1.00  0.00    -0.312 C  
BRANCH  29  30
HETATM   30  C   UNL     1     -10.688   8.053  70.726  1.00  0.00    -0.223 C  
BRANCH  30  31
HETATM   31  O   UNL     1     -10.935   8.837  69.563  1.00  0.00    -0.186 OA 
BRANCH  31  32
HETATM   32  C   UNL     1     -10.457  10.170  69.726  1.00  0.00    -0.263 C  
BRANCH  32  33
HETATM   33  C   UNL     1      -8.941  10.173  69.585  1.00  0.00    -0.169 C  
BRANCH  33  34
HETATM   34  O   UNL     1      -8.358   9.658  70.779  1.00  0.00    -0.264 OA 
BRANCH  34  35
HETATM   35  C   UNL     1      -6.949   9.496  70.642  1.00  0.00    -0.118 C  
BRANCH  35  36
HETATM   36  C   UNL     1      -6.665   8.120  70.056  1.00  0.00    -0.040 C  
BRANCH  36  37
HETATM   37  O   UNL     1      -6.383   7.198  71.109  1.00  0.00    -0.036 OA 
BRANCH  37  38
HETATM   38  C   UNL     1      -5.288   6.341  70.758  1.00  0.00    -0.018 C  
BRANCH  38  39
HETATM   39  C   UNL     1      -5.849   5.117  70.042  1.00  0.00    -0.017 C  
HETATM   40  O   UNL     1      -5.701   3.962  70.866  1.00  0.00    -0.012 OA 
HETATM   41  H   UNL     1      -6.051   3.200  70.420  1.00  0.00     0.000 HD 
ENDBRANCH  38  39
ENDBRANCH  37  38
ENDBRANCH  36  37
ENDBRANCH  35  36
ENDBRANCH  34  35
ENDBRANCH  33  34
ENDBRANCH  32  33
ENDBRANCH  31  32
ENDBRANCH  30  31
ENDBRANCH  29  30
ENDBRANCH  28  29
ENDBRANCH  27  28
ENDBRANCH  26  27
ENDBRANCH  25  26
ENDBRANCH  24  25
ENDBRANCH  23  24
ENDBRANCH  22  23
ENDBRANCH  21  22
ENDBRANCH  20  21
ENDBRANCH  19  20
ENDBRANCH  18  19
ENDBRANCH  17  18
ENDBRANCH  16  17
ENDBRANCH  15  16
ENDBRANCH  14  15
ENDBRANCH  13  14
ENDBRANCH  12  13
ENDBRANCH  11  12
ENDBRANCH  10  11
ENDBRANCH   9  10
ENDBRANCH   8   9
ENDBRANCH   7   8
ENDBRANCH   6   7
ENDBRANCH   5   6
ENDBRANCH   4   5
ENDBRANCH   3   4
ENDBRANCH   2   3
TORSDOF 37
ENDMDL
MODEL      218
REMARK 921   NORMALIZED FREE ENERGY PREDICTED BY IDOCK:   -1.01 KCAL/MOL
REMARK 922        TOTAL FREE ENERGY PREDICTED BY IDOCK:   -6.81 KCAL/MOL
REMARK 923 INTER-LIGAND FREE ENERGY PREDICTED BY IDOCK:   -5.85 KCAL/MOL
REMARK 924 INTRA-LIGAND FREE ENERGY PREDICTED BY IDOCK:   -0.96 KCAL/MOL
REMARK 927      BINDING AFFINITY PREDICTED BY RF-SCORE:    0.00 PKD
ROOT
HETATM    1  C   UNL     1     -10.271   3.623  72.890  1.00  0.00    -0.236 C  
HETATM    2  C   UNL     1      -9.264   4.697  72.515  1.00  0.00    -0.147 C  
ENDROOT
BRANCH   2   3
HETATM    3  C   UNL     1      -9.193   4.876  71.001  1.00  0.00    -0.192 C  
BRANCH   3   4
HETATM    4  C   UNL     1      -8.555   6.214  70.632  1.00  0.00    -0.135 C  
BRANCH   4   5
HETATM    5  C   UNL     1      -7.100   6.023  70.213  1.00  0.00    -0.074 C  
BRANCH   5   6
HETATM    6  C   UNL     1      -6.316   5.282  71.290  1.00  0.00    -0.034 C  
BRANCH   6   7
HETATM    7  C   UNL     1      -5.546   4.112  70.687  1.00  0.00    -0.012 C  
BRANCH   7   8
HETATM    8  C   UNL     1      -5.754   4.052  69.179  1.00  0.00    -0.018 C  
BRANCH   8   9
HETATM    9  C   UNL     1      -6.793   2.998  68.813  1.00  0.00    -0.044 C  
BRANCH   9  10
HETATM   10  C   UNL     1      -6.342   2.218  67.585  1.00  0.00    -0.028 C  
BRANCH  10  11
HETATM   11  C   UNL     1      -5.550   3.100  66.632  1.00  0.00    -0.021 C  
BRANCH  11  12
HETATM   12  C   UNL     1      -6.467   4.107  65.958  1.00  0.00    -0.037 C  
BRANCH  12  13
HETATM   13  O   UNL     1      -6.387   3.906  64.553  1.00  0.00    -0.028 OA 
BRANCH  13  14
HETATM   14  C   UNL     1      -7.671   3.607  64.014  1.00  0.00    -0.080 C  
BRANCH  14  15
HETATM   15  C   UNL     1      -7.726   4.068  62.569  1.00  0.00    -0.061 C  
BRANCH  15  16
HETATM   16  O   UNL     1      -8.645   5.151  62.483  1.00  0.00    -0.111 OA 
BRANCH  16  17
HETATM   17  C   UNL     1      -8.206   6.265  63.252  1.00  0.00     0.012 C  
BRANCH  17  18
HETATM   18  C   UNL     1      -7.348   7.155  62.366  1.00  0.00    -0.081 C  
BRANCH  18  19
HETATM   19  O   UNL     1      -7.904   8.463  62.351  1.00  0.00    -0.126 OA 
BRANCH  19  20
HETATM   20  C   UNL     1      -7.008   9.421  62.918  1.00  0.00    -0.096 C  
BRANCH  20  21
HETATM   21  C   UNL     1      -7.644   9.997  64.177  1.00  0.00    -0.140 C  
BRANCH  21  22
HETATM   22  O   UNL     1      -9.045   9.708  64.155  1.00  0.00    -0.241 OA 
BRANCH  22  23
HETATM   23  C   UNL     1      -9.650   9.963  65.417  1.00  0.00    -0.285 C  
BRANCH  23  24
HETATM   24  C   UNL     1     -10.155  11.398  65.442  1.00  0.00    -0.261 C  
BRANCH  24  25
HETATM   25  O   UNL     1     -10.305  11.806  66.799  1.00  0.00    -0.211 OA 
BRANCH  25  26
HETATM   26  C   UNL     1     -10.355  13.223  66.909  1.00  0.00    -0.255 C  
BRANCH  26  27
HETATM   27  C   UNL     1     -10.229  13.606  68.377  1.00  0.00    -0.245 C  
BRANCH  27  28
HETATM   28  O   UNL     1      -9.134  14.502  68.532  1.00  0.00    -0.182 OA 
BRANCH  28  29
HETATM   29  C   UNL     1      -7.895  13.800  68.554  1.00  0.00    -0.132 C  
BRANCH  29  30
HETATM   30  C   UNL     1      -6.885  14.606  69.355  1.00  0.00    -0.159 C  
BRANCH  30  31
HETATM   31  O   UNL     1      -5.800  14.964  68.505  1.00  0.00    -0.087 OA 
BRANCH  31  32
HETATM   32  C   UNL     1      -5.420  16.325  68.697  1.00  0.00    -0.101 C  
BRANCH  32  33
HETATM   33  C   UNL     1      -6.547  17.058  69.409  1.00  0.00    -0.225 C  
BRANCH  33  34
HETATM   34  O   UNL     1      -7.179  17.949  68.494  1.00  0.00    -0.241 OA 
BRANCH  34  35
HETATM   35  C   UNL     1      -8.533  17.575  68.254  1.00  0.00    -0.266 C  
BRANCH  35  36
HETATM   36  C   UNL     1      -8.703  17.256  66.775  1.00  0.00    -0.251 C  
BRANCH  36  37
HETATM   37  O   UNL     1      -7.662  17.884  66.025  1.00  0.00    -0.437 OA 
BRANCH  37  38
HETATM   38  C   UNL     1      -7.850  19.304  65.979  1.00  0.00    -0.258 C  
BRANCH  38  39
HETATM   39  C   UNL     1      -6.864  19.885  64.972  1.00  0.00    -0.159 C  
HETATM   40  O   UNL     1      -5.592  19.254  65.117  1.00  0.00    -0.163 OA 
HETATM   41  H   UNL     1      -4.978  19.616  64.489  1.00  0.00     0.000 HD 
ENDBRANCH  38  39
ENDBRANCH  37  38
ENDBRANCH  36  37
ENDBRANCH  35  36
ENDBRANCH  34  35
ENDBRANCH  33  34
ENDBRANCH  32  33
ENDBRANCH  31  32
ENDBRANCH  30  31
ENDBRANCH  29  30
ENDBRANCH  28  29
ENDBRANCH  27  28
ENDBRANCH  26  27
ENDBRANCH  25  26
ENDBRANCH  24  25
ENDBRANCH  23  24
ENDBRANCH  22  23
ENDBRANCH  21  22
ENDBRANCH  20  21
ENDBRANCH  19  20
ENDBRANCH  18  19
ENDBRANCH  17  18
ENDBRANCH  16  17
ENDBRANCH  15  16
ENDBRANCH  14  15
ENDBRANCH  13  14
ENDBRANCH  12  13
ENDBRANCH  11  12
ENDBRANCH  10  11
ENDBRANCH   9  10
ENDBRANCH   8   9
ENDBRANCH   7   8
ENDBRANCH   6   7
ENDBRANCH   5   6
ENDBRANCH   4   5
ENDBRANCH   3   4
ENDBRANCH   2   3
TORSDOF 37
ENDMDL
MODEL      219
REMARK 921   NORMALIZED FREE ENERGY PREDICTED BY IDOCK:   -1.00 KCAL/MOL
REMARK 922        TOTAL FREE ENERGY PREDICTED BY IDOCK:   -6.79 KCAL/MOL
REMARK 923 INTER-LIGAND FREE ENERGY PREDICTED BY IDOCK:   -6.17 KCAL/MOL
REMARK 924 INTRA-LIGAND FREE ENERGY PREDICTED BY IDOCK:   -0.62 KCAL/MOL
REMARK 927      BINDING AFFINITY PREDICTED BY RF-SCORE:    0.00 PKD
ROOT
HETATM    1  C   UNL     1     -11.658  15.042  69.726  1.00  0.00    -0.336 C  
HETATM    2  C   UNL     1     -10.267  15.539  69.372  1.00  0.00    -0.262 C  
ENDROOT
BRANCH   2   3
HETATM    3  C   UNL     1     -10.190  15.955  67.906  1.00  0.00    -0.251 C  
BRANCH   3   4
HETATM    4  C   UNL     1     -11.476  15.604  67.162  1.00  0.00     0.009 C  
BRANCH   4   5
HETATM    5  C   UNL     1     -11.167  15.106  65.752  1.00  0.00    -0.287 C  
BRANCH   5   6
HETATM    6  C   UNL     1     -12.268  14.181  65.248  1.00  0.00    -0.440 C  
BRANCH   6   7
HETATM    7  C   UNL     1     -11.716  12.786  64.973  1.00  0.00    -0.391 C  
BRANCH   7   8
HETATM    8  C   UNL     1     -11.190  12.688  63.547  1.00  0.00    -0.489 C  
BRANCH   8   9
HETATM    9  C   UNL     1     -11.028  11.231  63.124  1.00  0.00    -0.037 C  
BRANCH   9  10
HETATM   10  C   UNL     1      -9.551  10.869  63.037  1.00  0.00    -0.382 C  
BRANCH  10  11
HETATM   11  C   UNL     1      -9.154   9.904  64.144  1.00  0.00    -0.294 C  
BRANCH  11  12
HETATM   12  C   UNL     1      -7.676  10.049  64.466  1.00  0.00    -0.145 C  
BRANCH  12  13
HETATM   13  O   UNL     1      -7.452   9.512  65.763  1.00  0.00    -0.097 OA 
BRANCH  13  14
HETATM   14  C   UNL     1      -6.383  10.193  66.412  1.00  0.00    -0.077 C  
BRANCH  14  15
HETATM   15  C   UNL     1      -6.345   9.788  67.874  1.00  0.00    -0.056 C  
BRANCH  15  16
HETATM   16  O   UNL     1      -5.493  10.694  68.565  1.00  0.00    -0.041 OA 
BRANCH  16  17
HETATM   17  C   UNL     1      -6.243  11.693  69.247  1.00  0.00    -0.086 C  
BRANCH  17  18
HETATM   18  C   UNL     1      -7.590  11.839  68.556  1.00  0.00    -0.131 C  
BRANCH  18  19
HETATM   19  O   UNL     1      -8.472  10.840  69.053  1.00  0.00    -0.153 OA 
BRANCH  19  20
HETATM   20  C   UNL     1      -9.833  11.137  68.733  1.00  0.00    -0.192 C  
BRANCH  20  21
HETATM   21  C   UNL     1     -10.234  10.321  67.510  1.00  0.00    -0.210 C  
BRANCH  21  22
HETATM   22  O   UNL     1     -10.762   9.066  67.948  1.00  0.00    -0.217 OA 
BRANCH  22  23
HETATM   23  C   UNL     1     -10.685   8.081  66.925  1.00  0.00    -0.131 C  
BRANCH  23  24
HETATM   24  C   UNL     1      -9.896   6.889  67.446  1.00  0.00    -0.144 C  
BRANCH  24  25
HETATM   25  O   UNL     1      -9.299   7.243  68.690  1.00  0.00    -0.140 OA 
BRANCH  25  26
HETATM   26  C   UNL     1     -10.245   7.187  69.751  1.00  0.00    -0.208 C  
BRANCH  26  27
HETATM   27  C   UNL     1      -9.565   6.607  70.983  1.00  0.00    -0.171 C  
BRANCH  27  28
HETATM   28  O   UNL     1     -10.344   5.522  71.477  1.00  0.00    -0.207 OA 
BRANCH  28  29
HETATM   29  C   UNL     1     -10.177   4.361  70.670  1.00  0.00    -0.026 C  
BRANCH  29  30
HETATM   30  C   UNL     1      -9.896   3.170  71.571  1.00  0.00    -0.130 C  
BRANCH  30  31
HETATM   31  O   UNL     1      -9.004   3.571  72.605  1.00  0.00    -0.088 OA 
BRANCH  31  32
HETATM   32  C   UNL     1      -7.681   3.101  72.358  1.00  0.00    -0.058 C  
BRANCH  32  33
HETATM   33  C   UNL     1      -6.728   4.288  72.347  1.00  0.00    -0.038 C  
BRANCH  33  34
HETATM   34  O   UNL     1      -6.592   4.768  71.012  1.00  0.00    -0.028 OA 
BRANCH  34  35
HETATM   35  C   UNL     1      -5.789   3.893  70.224  1.00  0.00    -0.017 C  
BRANCH  35  36
HETATM   36  C   UNL     1      -5.126   4.698  69.115  1.00  0.00     0.000 C  
BRANCH  36  37
HETATM   37  O   UNL     1      -5.826   4.493  67.887  1.00  0.00    -0.021 OA 
BRANCH  37  38
HETATM   38  C   UNL     1      -7.182   4.099  68.132  1.00  0.00    -0.060 C  
BRANCH  38  39
HETATM   39  C   UNL     1      -7.853   3.832  66.789  1.00  0.00    -0.088 C  
HETATM   40  O   UNL     1      -6.944   3.163  65.916  1.00  0.00    -0.054 OA 
HETATM   41  H   UNL     1      -7.362   2.997  65.080  1.00  0.00     0.000 HD 
ENDBRANCH  38  39
ENDBRANCH  37  38
ENDBRANCH  36  37
ENDBRANCH  35  36
ENDBRANCH  34  35
ENDBRANCH  33  34
ENDBRANCH  32  33
ENDBRANCH  31  32
ENDBRANCH  30  31
ENDBRANCH  29  30
ENDBRANCH  28  29
ENDBRANCH  27  28
ENDBRANCH  26  27
ENDBRANCH  25  26
ENDBRANCH  24  25
ENDBRANCH  23  24
ENDBRANCH  22  23
ENDBRANCH  21  22
ENDBRANCH  20  21
ENDBRANCH  19  20
ENDBRANCH  18  19
ENDBRANCH  17  18
ENDBRANCH  16  17
ENDBRANCH  15  16
ENDBRANCH  14  15
ENDBRANCH  13  14
ENDBRANCH  12  13
ENDBRANCH  11  12
ENDBRANCH  10  11
ENDBRANCH   9  10
ENDBRANCH   8   9
ENDBRANCH   7   8
ENDBRANCH   6   7
ENDBRANCH   5   6
ENDBRANCH   4   5
ENDBRANCH   3   4
ENDBRANCH   2   3
TORSDOF 37
ENDMDL
MODEL      220
REMARK 921   NORMALIZED FREE ENERGY PREDICTED BY IDOCK:   -0.87 KCAL/MOL
REMARK 922        TOTAL FREE ENERGY PREDICTED BY IDOCK:   -6.37 KCAL/MOL
REMARK 923 INTER-LIGAND FREE ENERGY PREDICTED BY IDOCK:   -7.10 KCAL/MOL
REMARK 924 INTRA-LIGAND FREE ENERGY PREDICTED BY IDOCK:    0.72 KCAL/MOL
REMARK 927      BINDING AFFINITY PREDICTED BY RF-SCORE:    0.00 PKD
ROOT
HETATM    1  C   UNL     1     -11.165   6.407  67.107  1.00  0.00    -0.298 C  
HETATM    2  C   UNL     1      -9.675   6.232  67.347  1.00  0.00    -0.137 C  
ENDROOT
BRANCH   2   3
HETATM    3  C   UNL     1      -9.337   4.776  67.656  1.00  0.00    -0.161 C  
BRANCH   3   4
HETATM    4  C   UNL     1      -8.403   4.668  68.859  1.00  0.00    -0.085 C  
BRANCH   4   5
HETATM    5  C   UNL     1      -8.746   5.724  69.907  1.00  0.00    -0.128 C  
BRANCH   5   6
HETATM    6  C   UNL     1      -7.512   6.532  70.291  1.00  0.00    -0.094 C  
BRANCH   6   7
HETATM    7  C   UNL     1      -7.443   7.826  69.488  1.00  0.00    -0.094 C  
BRANCH   7   8
HETATM    8  C   UNL     1      -7.605   9.034  70.401  1.00  0.00    -0.100 C  
BRANCH   8   9
HETATM    9  C   UNL     1      -8.618   8.751  71.506  1.00  0.00    -0.253 C  
BRANCH   9  10
HETATM   10  C   UNL     1     -10.011   9.183  71.066  1.00  0.00    -0.367 C  
BRANCH  10  11
HETATM   11  C   UNL     1      -9.946  10.097  69.852  1.00  0.00    -0.250 C  
BRANCH  11  12
HETATM   12  C   UNL     1     -11.330  10.278  69.252  1.00  0.00    -0.196 C  
BRANCH  12  13
HETATM   13  O   UNL     1     -11.511  11.659  68.965  1.00  0.00    -0.240 OA 
BRANCH  13  14
HETATM   14  C   UNL     1     -10.301  12.379  69.175  1.00  0.00     0.166 C  
BRANCH  14  15
HETATM   15  C   UNL     1     -10.595  13.868  69.153  1.00  0.00    -0.100 C  
BRANCH  15  16
HETATM   16  O   UNL     1      -9.896  14.443  68.055  1.00  0.00    -0.212 OA 
BRANCH  16  17
HETATM   17  C   UNL     1      -9.478  15.772  68.346  1.00  0.00    -0.196 C  
BRANCH  17  18
HETATM   18  C   UNL     1      -8.049  15.946  67.859  1.00  0.00    -0.141 C  
BRANCH  18  19
HETATM   19  O   UNL     1      -7.229  14.963  68.480  1.00  0.00    -0.104 OA 
BRANCH  19  20
HETATM   20  C   UNL     1      -5.885  15.424  68.636  1.00  0.00    -0.095 C  
BRANCH  20  21
HETATM   21  C   UNL     1      -5.674  16.624  67.721  1.00  0.00    -0.136 C  
BRANCH  21  22
HETATM   22  O   UNL     1      -5.582  17.803  68.526  1.00  0.00    -0.158 OA 
BRANCH  22  23
HETATM   23  C   UNL     1      -6.318  17.668  69.736  1.00  0.00    -0.126 C  
BRANCH  23  24
HETATM   24  C   UNL     1      -7.307  18.819  69.844  1.00  0.00     0.568 C  
BRANCH  24  25
HETATM   25  O   UNL     1      -8.205  18.755  68.740  1.00  0.00    -0.337 OA 
BRANCH  25  26
HETATM   26  C   UNL     1      -9.559  18.803  69.173  1.00  0.00    -0.161 C  
BRANCH  26  27
HETATM   27  C   UNL     1     -10.418  19.339  68.037  1.00  0.00    -0.386 C  
BRANCH  27  28
HETATM   28  O   UNL     1      -9.580  19.669  66.935  1.00  0.00    -0.320 OA 
BRANCH  28  29
HETATM   29  C   UNL     1      -9.512  18.594  66.003  1.00  0.00    -0.037 C  
BRANCH  29  30
HETATM   30  C   UNL     1     -10.886  17.955  65.885  1.00  0.00     0.041 C  
BRANCH  30  31
HETATM   31  O   UNL     1     -10.952  17.219  64.668  1.00  0.00    -1.013 OA 
BRANCH  31  32
HETATM   32  C   UNL     1     -10.567  15.861  64.862  1.00  0.00    -0.254 C  
BRANCH  32  33
HETATM   33  C   UNL     1     -11.568  15.192  65.794  1.00  0.00    -0.097 C  
BRANCH  33  34
HETATM   34  O   UNL     1     -12.621  14.624  65.020  1.00  0.00    -0.392 OA 
BRANCH  34  35
HETATM   35  C   UNL     1     -12.734  13.221  65.244  1.00  0.00    -0.412 C  
BRANCH  35  36
HETATM   36  C   UNL     1     -11.427  12.709  65.833  1.00  0.00    -0.363 C  
BRANCH  36  37
HETATM   37  O   UNL     1     -10.654  12.077  64.813  1.00  0.00    -0.272 OA 
BRANCH  37  38
HETATM   38  C   UNL     1     -11.048  12.537  63.514  1.00  0.00    -0.439 C  
BRANCH  38  39
HETATM   39  C   UNL     1     -11.530  11.337  62.706  1.00  0.00     0.977 C  
HETATM   40  O   UNL     1     -12.955  11.278  62.727  1.00  0.00    -0.694 OA 
HETATM   41  H   UNL     1     -13.255  10.531  62.224  1.00  0.00     0.000 HD 
ENDBRANCH  38  39
ENDBRANCH  37  38
ENDBRANCH  36  37
ENDBRANCH  35  36
ENDBRANCH  34  35
ENDBRANCH  33  34
ENDBRANCH  32  33
ENDBRANCH  31  32
ENDBRANCH  30  31
ENDBRANCH  29  30
ENDBRANCH  28  29
ENDBRANCH  27  28
ENDBRANCH  26  27
ENDBRANCH  25  26
ENDBRANCH  24  25
ENDBRANCH  23  24
ENDBRANCH  22  23
ENDBRANCH  21  22
ENDBRANCH  20  21
ENDBRANCH  19  20
ENDBRANCH  18  19
ENDBRANCH  17  18
ENDBRANCH  16  17
ENDBRANCH  15  16
ENDBRANCH  14  15
ENDBRANCH  13  14
ENDBRANCH  12  13
ENDBRANCH  11  12
ENDBRANCH  10  11
ENDBRANCH   9  10
ENDBRANCH   8   9
ENDBRANCH   7   8
ENDBRANCH   6   7
ENDBRANCH   5   6
ENDBRANCH   4   5
ENDBRANCH   3   4
ENDBRANCH   2   3
TORSDOF 37
ENDMDL
MODEL      221
REMARK 921   NORMALIZED FREE ENERGY PREDICTED BY IDOCK:   -0.73 KCAL/MOL
REMARK 922        TOTAL FREE ENERGY PREDICTED BY IDOCK:   -5.94 KCAL/MOL
REMARK 923 INTER-LIGAND FREE ENERGY PREDICTED BY IDOCK:   -6.82 KCAL/MOL
REMARK 924 INTRA-LIGAND FREE ENERGY PREDICTED BY IDOCK:    0.89 KCAL/MOL
REMARK 927      BINDING AFFINITY PREDICTED BY RF-SCORE:    0.00 PKD
ROOT
HETATM    1  C   UNL     1     -10.331  16.017  69.364  1.00  0.00    -0.272 C  
HETATM    2  C   UNL     1      -8.880  16.161  68.937  1.00  0.00    -0.248 C  
ENDROOT
BRANCH   2   3
HETATM    3  C   UNL     1      -8.778  16.537  67.461  1.00  0.00    -0.191 C  
BRANCH   3   4
HETATM    4  C   UNL     1     -10.104  16.310  66.739  1.00  0.00    -0.281 C  
BRANCH   4   5
HETATM    5  C   UNL     1      -9.919  15.369  65.551  1.00  0.00    -0.379 C  
BRANCH   5   6
HETATM    6  C   UNL     1     -11.215  14.635  65.230  1.00  0.00    -0.358 C  
BRANCH   6   7
HETATM    7  C   UNL     1     -11.010  13.125  65.294  1.00  0.00    -0.304 C  
BRANCH   7   8
HETATM    8  C   UNL     1     -10.362  12.617  64.012  1.00  0.00    -0.414 C  
BRANCH   8   9
HETATM    9  C   UNL     1     -10.419  11.094  63.939  1.00  0.00    -0.445 C  
BRANCH   9  10
HETATM   10  C   UNL     1      -9.073  10.498  64.329  1.00  0.00    -0.256 C  
BRANCH  10  11
HETATM   11  C   UNL     1      -9.166   9.744  65.646  1.00  0.00    -0.252 C  
BRANCH  11  12
HETATM   12  C   UNL     1      -9.515   8.286  65.397  1.00  0.00     0.415 C  
BRANCH  12  13
HETATM   13  O   UNL     1      -9.172   7.544  66.561  1.00  0.00    -0.160 OA 
BRANCH  13  14
HETATM   14  C   UNL     1      -9.185   6.147  66.288  1.00  0.00    -0.147 C  
BRANCH  14  15
HETATM   15  C   UNL     1      -8.802   5.388  67.546  1.00  0.00    -0.105 C  
BRANCH  15  16
HETATM   16  O   UNL     1      -8.743   4.002  67.228  1.00  0.00    -0.106 OA 
BRANCH  16  17
HETATM   17  C   UNL     1      -7.426   3.611  66.856  1.00  0.00    -0.079 C  
BRANCH  17  18
HETATM   18  C   UNL     1      -6.651   4.855  66.450  1.00  0.00    -0.049 C  
BRANCH  18  19
HETATM   19  O   UNL     1      -6.449   5.667  67.600  1.00  0.00    -0.044 OA 
BRANCH  19  20
HETATM   20  C   UNL     1      -5.250   6.437  67.494  1.00  0.00    -0.005 C  
BRANCH  20  21
HETATM   21  C   UNL     1      -5.622   7.864  67.111  1.00  0.00    -0.036 C  
BRANCH  21  22
HETATM   22  O   UNL     1      -5.723   8.647  68.304  1.00  0.00    -0.037 OA 
BRANCH  22  23
HETATM   23  C   UNL     1      -6.491   9.826  68.091  1.00  0.00    -0.056 C  
BRANCH  23  24
HETATM   24  C   UNL     1      -7.454  10.005  69.255  1.00  0.00    -0.103 C  
BRANCH  24  25
HETATM   25  O   UNL     1      -8.067   8.750  69.539  1.00  0.00    -0.100 OA 
BRANCH  25  26
HETATM   26  C   UNL     1      -7.122   7.819  70.052  1.00  0.00    -0.054 C  
BRANCH  26  27
HETATM   27  C   UNL     1      -7.757   7.066  71.212  1.00  0.00    -0.091 C  
BRANCH  27  28
HETATM   28  O   UNL     1      -7.286   7.617  72.438  1.00  0.00    -0.070 OA 
BRANCH  28  29
HETATM   29  C   UNL     1      -8.290   8.409  73.064  1.00  0.00    -0.130 C  
BRANCH  29  30
HETATM   30  C   UNL     1      -8.731   7.723  74.347  1.00  0.00    -0.115 C  
BRANCH  30  31
HETATM   31  O   UNL     1      -9.478   6.557  74.017  1.00  0.00    -0.163 OA 
BRANCH  31  32
HETATM   32  C   UNL     1     -10.875   6.835  73.965  1.00  0.00     0.221 C  
BRANCH  32  33
HETATM   33  C   UNL     1     -11.442   6.279  72.667  1.00  0.00    -0.218 C  
BRANCH  33  34
HETATM   34  O   UNL     1     -11.912   7.356  71.861  1.00  0.00    -0.285 OA 
BRANCH  34  35
HETATM   35  C   UNL     1     -12.497   8.384  72.657  1.00  0.00    -0.194 C  
BRANCH  35  36
HETATM   36  C   UNL     1     -12.634   9.643  71.812  1.00  0.00    -0.409 C  
BRANCH  36  37
HETATM   37  O   UNL     1     -12.215   9.373  70.474  1.00  0.00    -0.149 OA 
BRANCH  37  38
HETATM   38  C   UNL     1     -11.454  10.467  69.946  1.00  0.00    -0.310 C  
BRANCH  38  39
HETATM   39  C   UNL     1     -12.078  11.768  70.441  1.00  0.00    -0.352 C  
HETATM   40  O   UNL     1     -11.405  12.882  69.857  1.00  0.00    -0.491 OA 
HETATM   41  H   UNL     1     -11.795  13.692  70.165  1.00  0.00     0.000 HD 
ENDBRANCH  38  39
ENDBRANCH  37  38
ENDBRANCH  36  37
ENDBRANCH  35  36
ENDBRANCH  34  35
ENDBRANCH  33  34
ENDBRANCH  32  33
ENDBRANCH  31  32
ENDBRANCH  30  31
ENDBRANCH  29  30
ENDBRANCH  28  29
ENDBRANCH  27  28
ENDBRANCH  26  27
ENDBRANCH  25  26
ENDBRANCH  24  25
ENDBRANCH  23  24
ENDBRANCH  22  23
ENDBRANCH  21  22
ENDBRANCH  20  21
ENDBRANCH  19  20
ENDBRANCH  18  19
ENDBRANCH  17  18
ENDBRANCH  16  17
ENDBRANCH  15  16
ENDBRANCH  14  15
ENDBRANCH  13  14
ENDBRANCH  12  13
ENDBRANCH  11  12
ENDBRANCH  10  11
ENDBRANCH   9  10
ENDBRANCH   8   9
ENDBRANCH   7   8
ENDBRANCH   6   7
ENDBRANCH   5   6
ENDBRANCH   4   5
ENDBRANCH   3   4
ENDBRANCH   2   3
TORSDOF 37
ENDMDL
MODEL      222
REMARK 921   NORMALIZED FREE ENERGY PREDICTED BY IDOCK:   -0.72 KCAL/MOL
REMARK 922        TOTAL FREE ENERGY PREDICTED BY IDOCK:   -5.90 KCAL/MOL
REMARK 923 INTER-LIGAND FREE ENERGY PREDICTED BY IDOCK:   -5.76 KCAL/MOL
REMARK 924 INTRA-LIGAND FREE ENERGY PREDICTED BY IDOCK:   -0.14 KCAL/MOL
REMARK 927      BINDING AFFINITY PREDICTED BY RF-SCORE:    0.00 PKD
ROOT
HETATM    1  C   UNL     1     -10.550  14.704  68.484  1.00  0.00    -0.245 C  
HETATM    2  C   UNL     1      -9.130  14.279  68.814  1.00  0.00    -0.103 C  
ENDROOT
BRANCH   2   3
HETATM    3  C   UNL     1      -8.519  15.188  69.878  1.00  0.00     0.198 C  
BRANCH   3   4
HETATM    4  C   UNL     1      -7.638  16.263  69.246  1.00  0.00    -0.203 C  
BRANCH   4   5
HETATM    5  C   UNL     1      -6.160  15.952  69.470  1.00  0.00    -0.152 C  
BRANCH   5   6
HETATM    6  C   UNL     1      -5.541  15.325  68.226  1.00  0.00    -0.122 C  
BRANCH   6   7
HETATM    7  C   UNL     1      -5.161  16.400  67.212  1.00  0.00    -0.118 C  
BRANCH   7   8
HETATM    8  C   UNL     1      -6.399  17.141  66.726  1.00  0.00    -0.248 C  
BRANCH   8   9
HETATM    9  C   UNL     1      -6.015  18.333  65.855  1.00  0.00    -0.247 C  
BRANCH   9  10
HETATM   10  C   UNL     1      -7.097  19.403  65.919  1.00  0.00    -0.307 C  
BRANCH  10  11
HETATM   11  C   UNL     1      -8.482  18.781  66.012  1.00  0.00    -0.062 C  
BRANCH  11  12
HETATM   12  C   UNL     1      -9.405  19.666  66.832  1.00  0.00    -0.355 C  
BRANCH  12  13
HETATM   13  O   UNL     1     -10.673  19.027  66.914  1.00  0.00    -0.429 OA 
BRANCH  13  14
HETATM   14  C   UNL     1     -11.067  18.526  65.641  1.00  0.00     0.513 C  
BRANCH  14  15
HETATM   15  C   UNL     1     -10.995  17.009  65.657  1.00  0.00     0.051 C  
BRANCH  15  16
HETATM   16  O   UNL     1     -11.362  16.534  64.367  1.00  0.00    -0.921 OA 
BRANCH  16  17
HETATM   17  C   UNL     1     -11.942  15.236  64.440  1.00  0.00    -0.277 C  
BRANCH  17  18
HETATM   18  C   UNL     1     -10.822  14.214  64.561  1.00  0.00    -0.320 C  
BRANCH  18  19
HETATM   19  O   UNL     1     -11.142  13.303  65.605  1.00  0.00    -0.282 OA 
BRANCH  19  20
HETATM   20  C   UNL     1     -11.128  11.951  65.143  1.00  0.00    -0.305 C  
BRANCH  20  21
HETATM   21  C   UNL     1      -9.700  11.584  64.758  1.00  0.00    -0.219 C  
BRANCH  21  22
HETATM   22  O   UNL     1      -8.807  12.131  65.732  1.00  0.00     0.055 OA 
BRANCH  22  23
HETATM   23  C   UNL     1      -9.227  11.823  67.056  1.00  0.00    -0.187 C  
BRANCH  23  24
HETATM   24  C   UNL     1      -8.701  10.446  67.433  1.00  0.00    -0.125 C  
BRANCH  24  25
HETATM   25  O   UNL     1      -7.569  10.606  68.284  1.00  0.00    -0.091 OA 
BRANCH  25  26
HETATM   26  C   UNL     1      -7.570   9.645  69.331  1.00  0.00    -0.097 C  
BRANCH  26  27
HETATM   27  C   UNL     1      -6.612  10.105  70.421  1.00  0.00    -0.132 C  
BRANCH  27  28
HETATM   28  O   UNL     1      -5.352   9.470  70.231  1.00  0.00    -0.027 OA 
BRANCH  28  29
HETATM   29  C   UNL     1      -5.381   8.124  70.693  1.00  0.00    -0.025 C  
BRANCH  29  30
HETATM   30  C   UNL     1      -5.161   8.113  72.198  1.00  0.00    -0.035 C  
BRANCH  30  31
HETATM   31  O   UNL     1      -5.321   6.783  72.680  1.00  0.00    -0.036 OA 
BRANCH  31  32
HETATM   32  C   UNL     1      -6.475   6.668  73.509  1.00  0.00    -0.064 C  
BRANCH  32  33
HETATM   33  C   UNL     1      -7.540   5.873  72.767  1.00  0.00    -0.096 C  
BRANCH  33  34
HETATM   34  O   UNL     1      -6.920   5.106  71.739  1.00  0.00    -0.060 OA 
BRANCH  34  35
HETATM   35  C   UNL     1      -7.856   4.738  70.729  1.00  0.00    -0.074 C  
BRANCH  35  36
HETATM   36  C   UNL     1      -7.099   4.430  69.444  1.00  0.00    -0.050 C  
BRANCH  36  37
HETATM   37  O   UNL     1      -7.816   3.454  68.686  1.00  0.00    -0.055 OA 
BRANCH  37  38
HETATM   38  C   UNL     1      -9.203   3.802  68.586  1.00  0.00    -0.156 C  
BRANCH  38  39
HETATM   39  C   UNL     1      -9.578   3.858  67.109  1.00  0.00    -0.189 C  
HETATM   40  O   UNL     1      -9.931   5.193  66.748  1.00  0.00    -0.163 OA 
HETATM   41  H   UNL     1     -10.164   5.227  65.828  1.00  0.00     0.000 HD 
ENDBRANCH  38  39
ENDBRANCH  37  38
ENDBRANCH  36  37
ENDBRANCH  35  36
ENDBRANCH  34  35
ENDBRANCH  33  34
ENDBRANCH  32  33
ENDBRANCH  31  32
ENDBRANCH  30  31
ENDBRANCH  29  30
ENDBRANCH  28  29
ENDBRANCH  27  28
ENDBRANCH  26  27
ENDBRANCH  25  26
ENDBRANCH  24  25
ENDBRANCH  23  24
ENDBRANCH  22  23
ENDBRANCH  21  22
ENDBRANCH  20  21
ENDBRANCH  19  20
ENDBRANCH  18  19
ENDBRANCH  17  18
ENDBRANCH  16  17
ENDBRANCH  15  16
ENDBRANCH  14  15
ENDBRANCH  13  14
ENDBRANCH  12  13
ENDBRANCH  11  12
ENDBRANCH  10  11
ENDBRANCH   9  10
ENDBRANCH   8   9
ENDBRANCH   7   8
ENDBRANCH   6   7
ENDBRANCH   5   6
ENDBRANCH   4   5
ENDBRANCH   3   4
ENDBRANCH   2   3
TORSDOF 37
ENDMDL
MODEL      223
REMARK 921   NORMALIZED FREE ENERGY PREDICTED BY IDOCK:   -0.68 KCAL/MOL
REMARK 922        TOTAL FREE ENERGY PREDICTED BY IDOCK:   -5.77 KCAL/MOL
REMARK 923 INTER-LIGAND FREE ENERGY PREDICTED BY IDOCK:   -7.61 KCAL/MOL
REMARK 924 INTRA-LIGAND FREE ENERGY PREDICTED BY IDOCK:    1.84 KCAL/MOL
REMARK 927      BINDING AFFINITY PREDICTED BY RF-SCORE:    0.00 PKD
ROOT
HETATM    1  C   UNL     1     -11.228   5.404  71.133  1.00  0.00     0.085 C  
HETATM    2  C   UNL     1     -11.592   6.183  69.880  1.00  0.00    -0.239 C  
ENDROOT
BRANCH   2   3
HETATM    3  C   UNL     1     -12.154   7.557  70.233  1.00  0.00     0.183 C  
BRANCH   3   4
HETATM    4  C   UNL     1     -11.677   8.013  71.610  1.00  0.00    -0.325 C  
BRANCH   4   5
HETATM    5  C   UNL     1     -10.715   9.192  71.486  1.00  0.00    -0.437 C  
BRANCH   5   6
HETATM    6  C   UNL     1      -9.443   8.783  70.753  1.00  0.00    -0.253 C  
BRANCH   6   7
HETATM    7  C   UNL     1      -9.218   9.665  69.530  1.00  0.00    -0.214 C  
BRANCH   7   8
HETATM    8  C   UNL     1     -10.064   9.184  68.358  1.00  0.00    -0.220 C  
BRANCH   8   9
HETATM    9  C   UNL     1      -9.201   8.479  67.316  1.00  0.00    -0.168 C  
BRANCH   9  10
HETATM   10  C   UNL     1      -9.916   7.241  66.792  1.00  0.00    -0.287 C  
BRANCH  10  11
HETATM   11  C   UNL     1      -9.072   5.991  66.991  1.00  0.00    -0.117 C  
BRANCH  11  12
HETATM   12  C   UNL     1      -9.557   4.875  66.081  1.00  0.00    -0.175 C  
BRANCH  12  13
HETATM   13  O   UNL     1      -8.500   4.540  65.190  1.00  0.00    -0.118 OA 
BRANCH  13  14
HETATM   14  C   UNL     1      -7.254   5.018  65.686  1.00  0.00    -0.068 C  
BRANCH  14  15
HETATM   15  C   UNL     1      -6.429   5.557  64.530  1.00  0.00    -0.037 C  
BRANCH  15  16
HETATM   16  O   UNL     1      -7.293   5.735  63.413  1.00  0.00    -0.053 OA 
BRANCH  16  17
HETATM   17  C   UNL     1      -7.140   7.031  62.843  1.00  0.00    -0.060 C  
BRANCH  17  18
HETATM   18  C   UNL     1      -6.949   8.033  63.970  1.00  0.00    -0.067 C  
BRANCH  18  19
HETATM   19  O   UNL     1      -7.709   9.200  63.682  1.00  0.00    -0.110 OA 
BRANCH  19  20
HETATM   20  C   UNL     1      -8.540   9.014  62.534  1.00  0.00    -0.210 C  
BRANCH  20  21
HETATM   21  C   UNL     1      -9.442  10.233  62.385  1.00  0.00    -0.217 C  
BRANCH  21  22
HETATM   22  O   UNL     1     -10.092  10.478  63.635  1.00  0.00    -0.301 OA 
BRANCH  22  23
HETATM   23  C   UNL     1      -9.183  10.977  64.608  1.00  0.00    -0.168 C  
BRANCH  23  24
HETATM   24  C   UNL     1      -9.868  12.074  65.408  1.00  0.00    -0.220 C  
BRANCH  24  25
HETATM   25  O   UNL     1     -11.248  11.747  65.545  1.00  0.00    -0.309 OA 
BRANCH  25  26
HETATM   26  C   UNL     1     -11.763  12.194  66.793  1.00  0.00    -0.305 C  
BRANCH  26  27
HETATM   27  C   UNL     1     -11.089  13.509  67.158  1.00  0.00    -0.293 C  
BRANCH  27  28
HETATM   28  O   UNL     1     -11.963  14.585  66.834  1.00  0.00    -0.403 OA 
BRANCH  28  29
HETATM   29  C   UNL     1     -11.872  14.923  65.454  1.00  0.00    -0.188 C  
BRANCH  29  30
HETATM   30  C   UNL     1     -10.461  15.405  65.156  1.00  0.00    -0.411 C  
BRANCH  30  31
HETATM   31  O   UNL     1     -10.165  16.516  65.997  1.00  0.00    -0.326 OA 
BRANCH  31  32
HETATM   32  C   UNL     1     -10.437  17.750  65.339  1.00  0.00     0.138 C  
BRANCH  32  33
HETATM   33  C   UNL     1     -10.427  18.872  66.368  1.00  0.00    -0.439 C  
BRANCH  33  34
HETATM   34  O   UNL     1      -9.870  18.386  67.586  1.00  0.00    -0.295 OA 
BRANCH  34  35
HETATM   35  C   UNL     1      -9.173  17.158  67.386  1.00  0.00    -0.232 C  
BRANCH  35  36
HETATM   36  C   UNL     1      -9.293  16.312  68.646  1.00  0.00    -0.219 C  
BRANCH  36  37
HETATM   37  O   UNL     1      -7.993  16.049  69.175  1.00  0.00    -0.219 OA 
BRANCH  37  38
HETATM   38  C   UNL     1      -7.755  14.639  69.268  1.00  0.00    -0.091 C  
BRANCH  38  39
HETATM   39  C   UNL     1      -6.847  14.230  68.114  1.00  0.00    -0.124 C  
HETATM   40  O   UNL     1      -5.574  14.860  68.250  1.00  0.00    -0.099 OA 
HETATM   41  H   UNL     1      -5.009  14.604  67.530  1.00  0.00     0.000 HD 
ENDBRANCH  38  39
ENDBRANCH  37  38
ENDBRANCH  36  37
ENDBRANCH  35  36
ENDBRANCH  34  35
ENDBRANCH  33  34
ENDBRANCH  32  33
ENDBRANCH  31  32
ENDBRANCH  30  31
ENDBRANCH  29  30
ENDBRANCH  28  29
ENDBRANCH  27  28
ENDBRANCH  26  27
ENDBRANCH  25  26
ENDBRANCH  24  25
ENDBRANCH  23  24
ENDBRANCH  22  23
ENDBRANCH  21  22
ENDBRANCH  20  21
ENDBRANCH  19  20
ENDBRANCH  18  19
ENDBRANCH  17  18
ENDBRANCH  16  17
ENDBRANCH  15  16
ENDBRANCH  14  15
ENDBRANCH  13  14
ENDBRANCH  12  13
ENDBRANCH  11  12
ENDBRANCH  10  11
ENDBRANCH   9  10
ENDBRANCH   8   9
ENDBRANCH   7   8
ENDBRANCH   6   7
ENDBRANCH   5   6
ENDBRANCH   4   5
ENDBRANCH   3   4
ENDBRANCH   2   3
TORSDOF 37
ENDMDL
MODEL      224
REMARK 921   NORMALIZED FREE ENERGY PREDICTED BY IDOCK:   -0.64 KCAL/MOL
REMARK 922        TOTAL FREE ENERGY PREDICTED BY IDOCK:   -5.63 KCAL/MOL
REMARK 923 INTER-LIGAND FREE ENERGY PREDICTED BY IDOCK:   -6.43 KCAL/MOL
REMARK 924 INTRA-LIGAND FREE ENERGY PREDICTED BY IDOCK:    0.79 KCAL/MOL
REMARK 927      BINDING AFFINITY PREDICTED BY RF-SCORE:    0.00 PKD
ROOT
HETATM    1  C   UNL     1     -10.008   3.595  72.896  1.00  0.00    -0.210 C  
HETATM    2  C   UNL     1      -9.289   4.512  71.921  1.00  0.00    -0.189 C  
ENDROOT
BRANCH   2   3
HETATM    3  C   UNL     1      -9.618   4.144  70.477  1.00  0.00    -0.261 C  
BRANCH   3   4
HETATM    4  C   UNL     1      -9.695   5.387  69.593  1.00  0.00    -0.240 C  
BRANCH   4   5
HETATM    5  C   UNL     1      -8.298   5.849  69.186  1.00  0.00    -0.106 C  
BRANCH   5   6
HETATM    6  C   UNL     1      -7.401   6.013  70.408  1.00  0.00    -0.088 C  
BRANCH   6   7
HETATM    7  C   UNL     1      -6.063   5.312  70.193  1.00  0.00    -0.018 C  
BRANCH   7   8
HETATM    8  C   UNL     1      -6.107   4.443  68.943  1.00  0.00    -0.030 C  
BRANCH   8   9
HETATM    9  C   UNL     1      -6.512   3.013  69.287  1.00  0.00    -0.029 C  
BRANCH   9  10
HETATM   10  C   UNL     1      -5.752   2.026  68.411  1.00  0.00    -0.019 C  
BRANCH  10  11
HETATM   11  C   UNL     1      -5.201   2.705  67.166  1.00  0.00    -0.009 C  
BRANCH  11  12
HETATM   12  C   UNL     1      -6.194   3.726  66.638  1.00  0.00    -0.032 C  
BRANCH  12  13
HETATM   13  O   UNL     1      -6.605   3.314  65.341  1.00  0.00    -0.035 OA 
BRANCH  13  14
HETATM   14  C   UNL     1      -7.864   2.652  65.399  1.00  0.00    -0.078 C  
BRANCH  14  15
HETATM   15  C   UNL     1      -8.613   2.886  64.099  1.00  0.00    -0.090 C  
BRANCH  15  16
HETATM   16  O   UNL     1      -9.389   4.070  64.239  1.00  0.00    -0.144 OA 
BRANCH  16  17
HETATM   17  C   UNL     1      -8.567   5.196  64.528  1.00  0.00    -0.130 C  
BRANCH  17  18
HETATM   18  C   UNL     1      -7.740   5.519  63.294  1.00  0.00    -0.084 C  
BRANCH  18  19
HETATM   19  O   UNL     1      -8.156   6.777  62.777  1.00  0.00    -0.106 OA 
BRANCH  19  20
HETATM   20  C   UNL     1      -7.154   7.778  62.963  1.00  0.00    -0.083 C  
BRANCH  20  21
HETATM   21  C   UNL     1      -7.553   8.652  64.146  1.00  0.00    -0.121 C  
BRANCH  21  22
HETATM   22  O   UNL     1      -8.981   8.685  64.229  1.00  0.00     0.051 OA 
BRANCH  22  23
HETATM   23  C   UNL     1      -9.419   9.124  65.509  1.00  0.00    -0.206 C  
BRANCH  23  24
HETATM   24  C   UNL     1      -9.653  10.626  65.463  1.00  0.00    -0.221 C  
BRANCH  24  25
HETATM   25  O   UNL     1      -9.694  11.124  66.798  1.00  0.00    -0.188 OA 
BRANCH  25  26
HETATM   26  C   UNL     1      -9.684  12.546  66.819  1.00  0.00    -0.234 C  
BRANCH  26  27
HETATM   27  C   UNL     1     -11.017  13.054  66.290  1.00  0.00    -0.284 C  
BRANCH  27  28
HETATM   28  O   UNL     1     -11.524  14.045  67.178  1.00  0.00    -0.318 OA 
BRANCH  28  29
HETATM   29  C   UNL     1     -11.746  13.504  68.477  1.00  0.00    -0.357 C  
BRANCH  29  30
HETATM   30  C   UNL     1     -12.325  14.589  69.370  1.00  0.00    -0.177 C  
BRANCH  30  31
HETATM   31  O   UNL     1     -11.644  14.572  70.621  1.00  0.00    -0.276 OA 
BRANCH  31  32
HETATM   32  C   UNL     1     -11.172  15.870  70.972  1.00  0.00    -0.326 C  
BRANCH  32  33
HETATM   33  C   UNL     1     -11.154  16.744  69.726  1.00  0.00    -0.013 C  
BRANCH  33  34
HETATM   34  O   UNL     1      -9.826  17.205  69.496  1.00  0.00    -0.056 OA 
BRANCH  34  35
HETATM   35  C   UNL     1      -9.805  18.594  69.177  1.00  0.00    -0.195 C  
BRANCH  35  36
HETATM   36  C   UNL     1      -8.894  18.811  67.977  1.00  0.00    -0.300 C  
BRANCH  36  37
HETATM   37  O   UNL     1      -9.584  18.454  66.778  1.00  0.00    -0.284 OA 
BRANCH  37  38
HETATM   38  C   UNL     1      -8.801  17.550  65.988  1.00  0.00    -0.031 C  
BRANCH  38  39
HETATM   39  C   UNL     1      -9.505  16.198  65.969  1.00  0.00    -0.339 C  
HETATM   40  O   UNL     1     -10.338  16.099  64.815  1.00  0.00    -0.574 OA 
HETATM   41  H   UNL     1     -10.776  15.257  64.804  1.00  0.00     0.000 HD 
ENDBRANCH  38  39
ENDBRANCH  37  38
ENDBRANCH  36  37
ENDBRANCH  35  36
ENDBRANCH  34  35
ENDBRANCH  33  34
ENDBRANCH  32  33
ENDBRANCH  31  32
ENDBRANCH  30  31
ENDBRANCH  29  30
ENDBRANCH  28  29
ENDBRANCH  27  28
ENDBRANCH  26  27
ENDBRANCH  25  26
ENDBRANCH  24  25
ENDBRANCH  23  24
ENDBRANCH  22  23
ENDBRANCH  21  22
ENDBRANCH  20  21
ENDBRANCH  19  20
ENDBRANCH  18  19
ENDBRANCH  17  18
ENDBRANCH  16  17
ENDBRANCH  15  16
ENDBRANCH  14  15
ENDBRANCH  13  14
ENDBRANCH  12  13
ENDBRANCH  11  12
ENDBRANCH  10  11
ENDBRANCH   9  10
ENDBRANCH   8   9
ENDBRANCH   7   8
ENDBRANCH   6   7
ENDBRANCH   5   6
ENDBRANCH   4   5
ENDBRANCH   3   4
ENDBRANCH   2   3
TORSDOF 37
ENDMDL
MODEL      225
REMARK 921   NORMALIZED FREE ENERGY PREDICTED BY IDOCK:   -0.55 KCAL/MOL
REMARK 922        TOTAL FREE ENERGY PREDICTED BY IDOCK:   -5.35 KCAL/MOL
REMARK 923 INTER-LIGAND FREE ENERGY PREDICTED BY IDOCK:   -4.13 KCAL/MOL
REMARK 924 INTRA-LIGAND FREE ENERGY PREDICTED BY IDOCK:   -1.23 KCAL/MOL
REMARK 927      BINDING AFFINITY PREDICTED BY RF-SCORE:    0.00 PKD
ROOT
HETATM    1  C   UNL     1     -12.778  14.987  68.691  1.00  0.00     0.691 C  
HETATM    2  C   UNL     1     -11.492  14.930  67.884  1.00  0.00    -0.357 C  
ENDROOT
BRANCH   2   3
HETATM    3  C   UNL     1     -10.276  15.188  68.770  1.00  0.00    -0.235 C  
BRANCH   3   4
HETATM    4  C   UNL     1     -10.162  16.665  69.137  1.00  0.00    -0.309 C  
BRANCH   4   5
HETATM    5  C   UNL     1     -10.461  16.880  70.618  1.00  0.00     1.001 C  
BRANCH   5   6
HETATM    6  C   UNL     1     -11.861  16.391  70.968  1.00  0.00    -0.068 C  
BRANCH   6   7
HETATM    7  C   UNL     1     -11.853  15.628  72.288  1.00  0.00    -0.578 C  
BRANCH   7   8
HETATM    8  C   UNL     1     -11.931  14.127  72.042  1.00  0.00     0.161 C  
BRANCH   8   9
HETATM    9  C   UNL     1     -13.013  13.488  72.906  1.00  0.00     0.008 C  
BRANCH   9  10
HETATM   10  C   UNL     1     -13.948  12.648  72.044  1.00  0.00     0.032 C  
BRANCH  10  11
HETATM   11  C   UNL     1     -13.413  11.235  71.867  1.00  0.00    -0.278 C  
BRANCH  11  12
HETATM   12  C   UNL     1     -12.525  11.157  70.637  1.00  0.00    -0.356 C  
BRANCH  12  13
HETATM   13  O   UNL     1     -12.105   9.807  70.480  1.00  0.00    -0.248 OA 
BRANCH  13  14
HETATM   14  C   UNL     1     -11.389   9.367  71.630  1.00  0.00    -0.382 C  
BRANCH  14  15
HETATM   15  C   UNL     1     -11.832   7.960  71.987  1.00  0.00    -0.318 C  
BRANCH  15  16
HETATM   16  O   UNL     1     -11.782   7.164  70.809  1.00  0.00    -0.306 OA 
BRANCH  16  17
HETATM   17  C   UNL     1     -10.448   6.768  70.509  1.00  0.00    -0.209 C  
BRANCH  17  18
HETATM   18  C   UNL     1      -9.880   6.038  71.716  1.00  0.00    -0.165 C  
BRANCH  18  19
HETATM   19  O   UNL     1      -8.819   6.811  72.264  1.00  0.00    -0.132 OA 
BRANCH  19  20
HETATM   20  C   UNL     1      -7.782   5.980  72.790  1.00  0.00    -0.102 C  
BRANCH  20  21
HETATM   21  C   UNL     1      -6.515   6.813  72.928  1.00  0.00    -0.062 C  
BRANCH  21  22
HETATM   22  O   UNL     1      -6.852   8.193  72.752  1.00  0.00    -0.082 OA 
BRANCH  22  23
HETATM   23  C   UNL     1      -5.695   8.988  72.525  1.00  0.00    -0.068 C  
BRANCH  23  24
HETATM   24  C   UNL     1      -5.722   9.502  71.094  1.00  0.00    -0.068 C  
BRANCH  24  25
HETATM   25  O   UNL     1      -6.576  10.640  71.033  1.00  0.00    -0.289 OA 
BRANCH  25  26
HETATM   26  C   UNL     1      -6.981  10.911  69.696  1.00  0.00    -0.128 C  
BRANCH  26  27
HETATM   27  C   UNL     1      -8.409  10.421  69.508  1.00  0.00    -0.113 C  
BRANCH  27  28
HETATM   28  O   UNL     1      -8.917  10.927  68.278  1.00  0.00    -0.138 OA 
BRANCH  28  29
HETATM   29  C   UNL     1      -8.839   9.946  67.249  1.00  0.00    -0.132 C  
BRANCH  29  30
HETATM   30  C   UNL     1      -7.694  10.301  66.314  1.00  0.00    -0.116 C  
BRANCH  30  31
HETATM   31  O   UNL     1      -8.224  10.609  65.029  1.00  0.00    -0.154 OA 
BRANCH  31  32
HETATM   32  C   UNL     1      -8.308   9.444  64.211  1.00  0.00    -0.173 C  
BRANCH  32  33
HETATM   33  C   UNL     1      -6.935   8.791  64.139  1.00  0.00    -0.089 C  
BRANCH  33  34
HETATM   34  O   UNL     1      -6.720   8.297  62.819  1.00  0.00    -0.086 OA 
BRANCH  34  35
HETATM   35  C   UNL     1      -7.790   7.456  62.398  1.00  0.00    -0.127 C  
BRANCH  35  36
HETATM   36  C   UNL     1      -7.347   6.003  62.505  1.00  0.00    -0.055 C  
BRANCH  36  37
HETATM   37  O   UNL     1      -5.923   5.926  62.416  1.00  0.00    -0.024 OA 
BRANCH  37  38
HETATM   38  C   UNL     1      -5.410   4.916  63.294  1.00  0.00    -0.010 C  
BRANCH  38  39
HETATM   39  C   UNL     1      -6.589   4.142  63.874  1.00  0.00    -0.042 C  
HETATM   40  O   UNL     1      -6.201   3.506  65.091  1.00  0.00    -0.023 OA 
HETATM   41  H   UNL     1      -6.936   3.025  65.452  1.00  0.00     0.000 HD 
ENDBRANCH  38  39
ENDBRANCH  37  38
ENDBRANCH  36  37
ENDBRANCH  35  36
ENDBRANCH  34  35
ENDBRANCH  33  34
ENDBRANCH  32  33
ENDBRANCH  31  32
ENDBRANCH  30  31
ENDBRANCH  29  30
ENDBRANCH  28  29
ENDBRANCH  27  28
ENDBRANCH  26  27
ENDBRANCH  25  26
ENDBRANCH  24  25
ENDBRANCH  23  24
ENDBRANCH  22  23
ENDBRANCH  21  22
ENDBRANCH  20  21
ENDBRANCH  19  20
ENDBRANCH  18  19
ENDBRANCH  17  18
ENDBRANCH  16  17
ENDBRANCH  15  16
ENDBRANCH  14  15
ENDBRANCH  13  14
ENDBRANCH  12  13
ENDBRANCH  11  12
ENDBRANCH  10  11
ENDBRANCH   9  10
ENDBRANCH   8   9
ENDBRANCH   7   8
ENDBRANCH   6   7
ENDBRANCH   5   6
ENDBRANCH   4   5
ENDBRANCH   3   4
ENDBRANCH   2   3
TORSDOF 37
ENDMDL
MODEL      226
REMARK 921   NORMALIZED FREE ENERGY PREDICTED BY IDOCK:   -0.31 KCAL/MOL
REMARK 922        TOTAL FREE ENERGY PREDICTED BY IDOCK:   -4.61 KCAL/MOL
REMARK 923 INTER-LIGAND FREE ENERGY PREDICTED BY IDOCK:   -4.71 KCAL/MOL
REMARK 924 INTRA-LIGAND FREE ENERGY PREDICTED BY IDOCK:    0.10 KCAL/MOL
REMARK 927      BINDING AFFINITY PREDICTED BY RF-SCORE:    0.00 PKD
ROOT
HETATM    1  C   UNL     1     -12.058  14.702  66.288  1.00  0.00    -0.213 C  
HETATM    2  C   UNL     1     -11.237  13.429  66.178  1.00  0.00    -0.311 C  
ENDROOT
BRANCH   2   3
HETATM    3  C   UNL     1     -11.530  12.484  67.340  1.00  0.00    -0.404 C  
BRANCH   3   4
HETATM    4  C   UNL     1     -12.379  13.169  68.409  1.00  0.00     0.143 C  
BRANCH   4   5
HETATM    5  C   UNL     1     -11.546  13.460  69.656  1.00  0.00    -0.334 C  
BRANCH   5   6
HETATM    6  C   UNL     1     -10.667  14.687  69.449  1.00  0.00    -0.237 C  
BRANCH   6   7
HETATM    7  C   UNL     1     -10.887  15.703  70.566  1.00  0.00    -0.347 C  
BRANCH   7   8
HETATM    8  C   UNL     1     -11.619  16.930  70.039  1.00  0.00     0.883 C  
BRANCH   8   9
HETATM    9  C   UNL     1     -11.274  17.185  68.576  1.00  0.00     0.055 C  
BRANCH   9  10
HETATM   10  C   UNL     1      -9.767  17.329  68.407  1.00  0.00    -0.293 C  
BRANCH  10  11
HETATM   11  C   UNL     1      -9.363  17.216  66.945  1.00  0.00    -0.260 C  
BRANCH  11  12
HETATM   12  C   UNL     1      -8.133  16.336  66.803  1.00  0.00    -0.264 C  
BRANCH  12  13
HETATM   13  O   UNL     1      -8.464  15.035  67.273  1.00  0.00    -0.170 OA 
BRANCH  13  14
HETATM   14  C   UNL     1      -7.288  14.254  67.462  1.00  0.00    -0.179 C  
BRANCH  14  15
HETATM   15  C   UNL     1      -7.340  13.595  68.829  1.00  0.00    -0.093 C  
BRANCH  15  16
HETATM   16  O   UNL     1      -6.025  13.596  69.373  1.00  0.00    -0.088 OA 
BRANCH  16  17
HETATM   17  C   UNL     1      -5.516  12.273  69.499  1.00  0.00    -0.075 C  
BRANCH  17  18
HETATM   18  C   UNL     1      -6.166  11.403  68.435  1.00  0.00    -0.045 C  
BRANCH  18  19
HETATM   19  O   UNL     1      -6.214  10.061  68.903  1.00  0.00    -0.044 OA 
BRANCH  19  20
HETATM   20  C   UNL     1      -7.258   9.321  68.267  1.00  0.00    -0.077 C  
BRANCH  20  21
HETATM   21  C   UNL     1      -7.559   8.085  69.107  1.00  0.00    -0.097 C  
BRANCH  21  22
HETATM   22  O   UNL     1      -8.936   7.739  68.937  1.00  0.00    -0.141 OA 
BRANCH  22  23
HETATM   23  C   UNL     1      -9.674   7.929  70.138  1.00  0.00    -0.179 C  
BRANCH  23  24
HETATM   24  C   UNL     1      -8.979   8.986  70.983  1.00  0.00    -0.241 C  
BRANCH  24  25
HETATM   25  O   UNL     1      -8.289   8.339  72.049  1.00  0.00    -0.137 OA 
BRANCH  25  26
HETATM   26  C   UNL     1      -9.141   8.143  73.171  1.00  0.00    -0.265 C  
BRANCH  26  27
HETATM   27  C   UNL     1     -10.216   7.132  72.801  1.00  0.00    -0.209 C  
BRANCH  27  28
HETATM   28  O   UNL     1      -9.642   5.829  72.778  1.00  0.00    -0.149 OA 
BRANCH  28  29
HETATM   29  C   UNL     1     -10.373   4.931  73.607  1.00  0.00    -0.214 C  
BRANCH  29  30
HETATM   30  C   UNL     1     -10.242   3.524  73.047  1.00  0.00    -0.159 C  
BRANCH  30  31
HETATM   31  O   UNL     1      -9.256   2.819  73.793  1.00  0.00    -0.081 OA 
BRANCH  31  32
HETATM   32  C   UNL     1      -8.643   1.800  73.007  1.00  0.00    -0.062 C  
BRANCH  32  33
HETATM   33  C   UNL     1      -9.403   1.661  71.696  1.00  0.00    -0.099 C  
BRANCH  33  34
HETATM   34  O   UNL     1      -8.622   2.215  70.640  1.00  0.00    -0.049 OA 
BRANCH  34  35
HETATM   35  C   UNL     1      -9.214   1.965  69.368  1.00  0.00    -0.115 C  
BRANCH  35  36
HETATM   36  C   UNL     1      -8.332   2.571  68.286  1.00  0.00    -0.066 C  
BRANCH  36  37
HETATM   37  O   UNL     1      -6.961   2.284  68.565  1.00  0.00    -0.039 OA 
BRANCH  37  38
HETATM   38  C   UNL     1      -6.303   1.757  67.406  1.00  0.00    -0.024 C  
BRANCH  38  39
HETATM   39  C   UNL     1      -5.378   2.833  66.850  1.00  0.00    -0.013 C  
HETATM   40  O   UNL     1      -5.687   4.094  67.443  1.00  0.00    -0.020 OA 
HETATM   41  H   UNL     1      -5.110   4.764  67.096  1.00  0.00     0.000 HD 
ENDBRANCH  38  39
ENDBRANCH  37  38
ENDBRANCH  36  37
ENDBRANCH  35  36
ENDBRANCH  34  35
ENDBRANCH  33  34
ENDBRANCH  32  33
ENDBRANCH  31  32
ENDBRANCH  30  31
ENDBRANCH  29  30
ENDBRANCH  28  29
ENDBRANCH  27  28
ENDBRANCH  26  27
ENDBRANCH  25  26
ENDBRANCH  24  25
ENDBRANCH  23  24
ENDBRANCH  22  23
ENDBRANCH  21  22
ENDBRANCH  20  21
ENDBRANCH  19  20
ENDBRANCH  18  19
ENDBRANCH  17  18
ENDBRANCH  16  17
ENDBRANCH  15  16
ENDBRANCH  14  15
ENDBRANCH  13  14
ENDBRANCH  12  13
ENDBRANCH  11  12
ENDBRANCH  10  11
ENDBRANCH   9  10
ENDBRANCH   8   9
ENDBRANCH   7   8
ENDBRANCH   6   7
ENDBRANCH   5   6
ENDBRANCH   4   5
ENDBRANCH   3   4
ENDBRANCH   2   3
TORSDOF 37
ENDMDL
MODEL      227
REMARK 921   NORMALIZED FREE ENERGY PREDICTED BY IDOCK:   -0.28 KCAL/MOL
REMARK 922        TOTAL FREE ENERGY PREDICTED BY IDOCK:   -4.52 KCAL/MOL
REMARK 923 INTER-LIGAND FREE ENERGY PREDICTED BY IDOCK:   -4.97 KCAL/MOL
REMARK 924 INTRA-LIGAND FREE ENERGY PREDICTED BY IDOCK:    0.45 KCAL/MOL
REMARK 927      BINDING AFFINITY PREDICTED BY RF-SCORE:    0.00 PKD
ROOT
HETATM    1  C   UNL     1     -11.448  18.048  74.490  1.00  0.00     1.122 C  
HETATM    2  C   UNL     1     -12.084  17.385  73.280  1.00  0.00     0.984 C  
ENDROOT
BRANCH   2   3
HETATM    3  C   UNL     1     -13.176  16.406  73.702  1.00  0.00    -0.169 C  
BRANCH   3   4
HETATM    4  C   UNL     1     -12.656  14.971  73.718  1.00  0.00    -0.658 C  
BRANCH   4   5
HETATM    5  C   UNL     1     -12.235  14.531  72.318  1.00  0.00    -0.273 C  
BRANCH   5   6
HETATM    6  C   UNL     1     -12.367  15.680  71.324  1.00  0.00    -0.484 C  
BRANCH   6   7
HETATM    7  C   UNL     1     -11.899  15.250  69.938  1.00  0.00    -0.363 C  
BRANCH   7   8
HETATM    8  C   UNL     1     -11.998  13.738  69.782  1.00  0.00    -0.406 C  
BRANCH   8   9
HETATM    9  C   UNL     1     -12.203  13.352  68.321  1.00  0.00    -0.120 C  
BRANCH   9  10
HETATM   10  C   UNL     1     -11.354  14.237  67.419  1.00  0.00    -0.349 C  
BRANCH  10  11
HETATM   11  C   UNL     1      -9.878  14.128  67.771  1.00  0.00    -0.231 C  
BRANCH  11  12
HETATM   12  C   UNL     1      -9.192  13.120  66.864  1.00  0.00    -0.236 C  
BRANCH  12  13
HETATM   13  O   UNL     1     -10.001  12.943  65.708  1.00  0.00    -0.274 OA 
BRANCH  13  14
HETATM   14  C   UNL     1     -10.788  11.762  65.822  1.00  0.00    -0.291 C  
BRANCH  14  15
HETATM   15  C   UNL     1      -9.898  10.607  66.246  1.00  0.00    -0.214 C  
BRANCH  15  16
HETATM   16  O   UNL     1      -8.637  10.757  65.604  1.00  0.00    -0.178 OA 
BRANCH  16  17
HETATM   17  C   UNL     1      -8.555   9.952  64.432  1.00  0.00    -0.185 C  
BRANCH  17  18
HETATM   18  C   UNL     1      -7.236   9.197  64.458  1.00  0.00    -0.098 C  
BRANCH  18  19
HETATM   19  O   UNL     1      -7.435   7.945  65.104  1.00  0.00    -0.074 OA 
BRANCH  19  20
HETATM   20  C   UNL     1      -7.616   8.105  66.513  1.00  0.00    -0.092 C  
BRANCH  20  21
HETATM   21  C   UNL     1      -6.247   8.115  67.180  1.00  0.00    -0.055 C  
BRANCH  21  22
HETATM   22  O   UNL     1      -6.206   9.188  68.126  1.00  0.00    -0.053 OA 
BRANCH  22  23
HETATM   23  C   UNL     1      -7.252   9.079  69.084  1.00  0.00    -0.067 C  
BRANCH  23  24
HETATM   24  C   UNL     1      -6.654   9.166  70.480  1.00  0.00    -0.061 C  
BRANCH  24  25
HETATM   25  O   UNL     1      -5.526   8.297  70.550  1.00  0.00    -0.025 OA 
BRANCH  25  26
HETATM   26  C   UNL     1      -5.193   7.991  71.898  1.00  0.00    -0.035 C  
BRANCH  26  27
HETATM   27  C   UNL     1      -5.544   6.536  72.171  1.00  0.00    -0.037 C  
BRANCH  27  28
HETATM   28  O   UNL     1      -5.967   6.405  73.524  1.00  0.00    -0.056 OA 
BRANCH  28  29
HETATM   29  C   UNL     1      -7.365   6.148  73.603  1.00  0.00    -0.088 C  
BRANCH  29  30
HETATM   30  C   UNL     1      -7.729   5.083  72.581  1.00  0.00    -0.097 C  
BRANCH  30  31
HETATM   31  O   UNL     1      -9.106   5.216  72.243  1.00  0.00    -0.131 OA 
BRANCH  31  32
HETATM   32  C   UNL     1      -9.323   4.980  70.854  1.00  0.00    -0.151 C  
BRANCH  32  33
HETATM   33  C   UNL     1      -8.993   6.248  70.080  1.00  0.00    -0.149 C  
BRANCH  33  34
HETATM   34  O   UNL     1     -10.000   7.225  70.330  1.00  0.00    -0.190 OA 
BRANCH  34  35
HETATM   35  C   UNL     1     -10.717   7.550  69.142  1.00  0.00    -0.151 C  
BRANCH  35  36
HETATM   36  C   UNL     1     -11.317   8.941  69.292  1.00  0.00     0.351 C  
BRANCH  36  37
HETATM   37  O   UNL     1     -10.929   9.500  70.548  1.00  0.00    -0.243 OA 
BRANCH  37  38
HETATM   38  C   UNL     1     -11.889  10.465  70.996  1.00  0.00    -0.361 C  
BRANCH  38  39
HETATM   39  C   UNL     1     -13.008   9.726  71.722  1.00  0.00    -0.438 C  
HETATM   40  O   UNL     1     -14.151   9.621  70.873  1.00  0.00    -0.348 OA 
HETATM   41  H   UNL     1     -14.847   9.161  71.325  1.00  0.00     0.000 HD 
ENDBRANCH  38  39
ENDBRANCH  37  38
ENDBRANCH  36  37
ENDBRANCH  35  36
ENDBRANCH  34  35
ENDBRANCH  33  34
ENDBRANCH  32  33
ENDBRANCH  31  32
ENDBRANCH  30  31
ENDBRANCH  29  30
ENDBRANCH  28  29
ENDBRANCH  27  28
ENDBRANCH  26  27
ENDBRANCH  25  26
ENDBRANCH  24  25
ENDBRANCH  23  24
ENDBRANCH  22  23
ENDBRANCH  21  22
ENDBRANCH  20  21
ENDBRANCH  19  20
ENDBRANCH  18  19
ENDBRANCH  17  18
ENDBRANCH  16  17
ENDBRANCH  15  16
ENDBRANCH  14  15
ENDBRANCH  13  14
ENDBRANCH  12  13
ENDBRANCH  11  12
ENDBRANCH  10  11
ENDBRANCH   9  10
ENDBRANCH   8   9
ENDBRANCH   7   8
ENDBRANCH   6   7
ENDBRANCH   5   6
ENDBRANCH   4   5
ENDBRANCH   3   4
ENDBRANCH   2   3
TORSDOF 37
ENDMDL
MODEL      228
REMARK 921   NORMALIZED FREE ENERGY PREDICTED BY IDOCK:   -0.28 KCAL/MOL
REMARK 922        TOTAL FREE ENERGY PREDICTED BY IDOCK:   -4.50 KCAL/MOL
REMARK 923 INTER-LIGAND FREE ENERGY PREDICTED BY IDOCK:   -6.86 KCAL/MOL
REMARK 924 INTRA-LIGAND FREE ENERGY PREDICTED BY IDOCK:    2.36 KCAL/MOL
REMARK 927      BINDING AFFINITY PREDICTED BY RF-SCORE:    0.00 PKD
ROOT
HETATM    1  C   UNL     1     -12.260  15.924  69.974  1.00  0.00    -0.213 C  
HETATM    2  C   UNL     1     -11.672  15.842  68.576  1.00  0.00    -0.297 C  
ENDROOT
BRANCH   2   3
HETATM    3  C   UNL     1     -10.284  16.474  68.527  1.00  0.00    -0.266 C  
BRANCH   3   4
HETATM    4  C   UNL     1     -10.370  17.998  68.498  1.00  0.00    -0.359 C  
BRANCH   4   5
HETATM    5  C   UNL     1      -9.132  18.597  67.835  1.00  0.00    -0.314 C  
BRANCH   5   6
HETATM    6  C   UNL     1      -7.861  17.939  68.358  1.00  0.00    -0.288 C  
BRANCH   6   7
HETATM    7  C   UNL     1      -7.454  16.769  67.470  1.00  0.00    -0.181 C  
BRANCH   7   8
HETATM    8  C   UNL     1      -7.482  15.464  68.255  1.00  0.00    -0.112 C  
BRANCH   8   9
HETATM    9  C   UNL     1      -7.027  14.295  67.387  1.00  0.00    -0.077 C  
BRANCH   9  10
HETATM   10  C   UNL     1      -5.700  13.748  67.895  1.00  0.00    -0.116 C  
BRANCH  10  11
HETATM   11  C   UNL     1      -5.854  12.329  68.421  1.00  0.00    -0.054 C  
BRANCH  11  12
HETATM   12  C   UNL     1      -6.462  12.345  69.813  1.00  0.00    -0.025 C  
BRANCH  12  13
HETATM   13  O   UNL     1      -6.602  10.998  70.250  1.00  0.00    -0.221 OA 
BRANCH  13  14
HETATM   14  C   UNL     1      -7.010  10.161  69.173  1.00  0.00    -0.062 C  
BRANCH  14  15
HETATM   15  C   UNL     1      -5.895   9.182  68.851  1.00  0.00    -0.040 C  
BRANCH  15  16
HETATM   16  O   UNL     1      -5.217   8.865  70.061  1.00  0.00    -0.028 OA 
BRANCH  16  17
HETATM   17  C   UNL     1      -5.984   7.977  70.867  1.00  0.00    -0.033 C  
BRANCH  17  18
HETATM   18  C   UNL     1      -5.977   6.605  70.212  1.00  0.00    -0.023 C  
BRANCH  18  19
HETATM   19  O   UNL     1      -6.729   6.666  69.007  1.00  0.00    -0.049 OA 
BRANCH  19  20
HETATM   20  C   UNL     1      -6.584   5.471  68.237  1.00  0.00    -0.049 C  
BRANCH  20  21
HETATM   21  C   UNL     1      -7.861   5.251  67.436  1.00  0.00    -0.100 C  
BRANCH  21  22
HETATM   22  O   UNL     1      -8.366   6.524  67.021  1.00  0.00    -0.112 OA 
BRANCH  22  23
HETATM   23  C   UNL     1      -9.731   6.441  66.629  1.00  0.00    -0.153 C  
BRANCH  23  24
HETATM   24  C   UNL     1     -10.506   7.567  67.298  1.00  0.00    -0.321 C  
BRANCH  24  25
HETATM   25  O   UNL     1     -10.491   8.705  66.440  1.00  0.00    -0.205 OA 
BRANCH  25  26
HETATM   26  C   UNL     1     -10.965   9.864  67.113  1.00  0.00    -0.076 C  
BRANCH  26  27
HETATM   27  C   UNL     1      -9.777  10.753  67.454  1.00  0.00    -0.171 C  
BRANCH  27  28
HETATM   28  O   UNL     1     -10.181  11.719  68.419  1.00  0.00    -0.195 OA 
BRANCH  28  29
HETATM   29  C   UNL     1     -10.884  11.108  69.495  1.00  0.00    -0.188 C  
BRANCH  29  30
HETATM   30  C   UNL     1     -12.212  11.822  69.686  1.00  0.00    -0.185 C  
BRANCH  30  31
HETATM   31  O   UNL     1     -12.485  11.927  71.079  1.00  0.00    -0.369 OA 
BRANCH  31  32
HETATM   32  C   UNL     1     -12.302  10.677  71.739  1.00  0.00    -0.115 C  
BRANCH  32  33
HETATM   33  C   UNL     1     -11.670   9.692  70.766  1.00  0.00    -0.314 C  
BRANCH  33  34
HETATM   34  O   UNL     1     -12.161   8.383  71.039  1.00  0.00    -0.266 OA 
BRANCH  34  35
HETATM   35  C   UNL     1     -11.816   7.962  72.356  1.00  0.00    -0.348 C  
BRANCH  35  36
HETATM   36  C   UNL     1     -10.337   7.601  72.386  1.00  0.00    -0.238 C  
BRANCH  36  37
HETATM   37  O   UNL     1      -9.688   8.317  73.438  1.00  0.00    -0.187 OA 
BRANCH  37  38
HETATM   38  C   UNL     1      -8.843   7.448  74.203  1.00  0.00    -0.229 C  
BRANCH  38  39
HETATM   39  C   UNL     1      -8.853   6.072  73.547  1.00  0.00    -0.125 C  
HETATM   40  O   UNL     1      -9.887   5.270  74.117  1.00  0.00    -0.157 OA 
HETATM   41  H   UNL     1      -9.894   4.413  73.708  1.00  0.00     0.000 HD 
ENDBRANCH  38  39
ENDBRANCH  37  38
ENDBRANCH  36  37
ENDBRANCH  35  36
ENDBRANCH  34  35
ENDBRANCH  33  34
ENDBRANCH  32  33
ENDBRANCH  31  32
ENDBRANCH  30  31
ENDBRANCH  29  30
ENDBRANCH  28  29
ENDBRANCH  27  28
ENDBRANCH  26  27
ENDBRANCH  25  26
ENDBRANCH  24  25
ENDBRANCH  23  24
ENDBRANCH  22  23
ENDBRANCH  21  22
ENDBRANCH  20  21
ENDBRANCH  19  20
ENDBRANCH  18  19
ENDBRANCH  17  18
ENDBRANCH  16  17
ENDBRANCH  15  16
ENDBRANCH  14  15
ENDBRANCH  13  14
ENDBRANCH  12  13
ENDBRANCH  11  12
ENDBRANCH  10  11
ENDBRANCH   9  10
ENDBRANCH   8   9
ENDBRANCH   7   8
ENDBRANCH   6   7
ENDBRANCH   5   6
ENDBRANCH   4   5
ENDBRANCH   3   4
ENDBRANCH   2   3
TORSDOF 37
ENDMDL
MODEL      229
REMARK 921   NORMALIZED FREE ENERGY PREDICTED BY IDOCK:   -0.26 KCAL/MOL
REMARK 922        TOTAL FREE ENERGY PREDICTED BY IDOCK:   -4.43 KCAL/MOL
REMARK 923 INTER-LIGAND FREE ENERGY PREDICTED BY IDOCK:   -4.98 KCAL/MOL
REMARK 924 INTRA-LIGAND FREE ENERGY PREDICTED BY IDOCK:    0.55 KCAL/MOL
REMARK 927      BINDING AFFINITY PREDICTED BY RF-SCORE:    0.00 PKD
ROOT
HETATM    1  C   UNL     1     -11.443  17.990  74.485  1.00  0.00     1.122 C  
HETATM    2  C   UNL     1     -12.009  17.350  73.229  1.00  0.00     0.851 C  
ENDROOT
BRANCH   2   3
HETATM    3  C   UNL     1     -13.065  16.304  73.574  1.00  0.00    -0.472 C  
BRANCH   3   4
HETATM    4  C   UNL     1     -12.499  14.889  73.468  1.00  0.00    -0.579 C  
BRANCH   4   5
HETATM    5  C   UNL     1     -12.094  14.575  72.030  1.00  0.00    -0.283 C  
BRANCH   5   6
HETATM    6  C   UNL     1     -12.261  15.799  71.137  1.00  0.00    -0.473 C  
BRANCH   6   7
HETATM    7  C   UNL     1     -11.832  15.486  69.708  1.00  0.00    -0.376 C  
BRANCH   7   8
HETATM    8  C   UNL     1     -11.956  13.995  69.423  1.00  0.00    -0.390 C  
BRANCH   8   9
HETATM    9  C   UNL     1     -12.230  13.743  67.944  1.00  0.00    -0.194 C  
BRANCH   9  10
HETATM   10  C   UNL     1     -11.368  14.659  67.086  1.00  0.00    -0.365 C  
BRANCH  10  11
HETATM   11  C   UNL     1      -9.887  14.395  67.312  1.00  0.00    -0.247 C  
BRANCH  11  12
HETATM   12  C   UNL     1      -9.348  13.462  66.242  1.00  0.00    -0.121 C  
BRANCH  12  13
HETATM   13  O   UNL     1     -10.221  13.523  65.120  1.00  0.00    -0.330 OA 
BRANCH  13  14
HETATM   14  C   UNL     1     -11.118  12.418  65.121  1.00  0.00    -0.309 C  
BRANCH  14  15
HETATM   15  C   UNL     1     -10.330  11.134  65.314  1.00  0.00    -0.277 C  
BRANCH  15  16
HETATM   16  O   UNL     1      -9.110  11.248  64.591  1.00  0.00    -0.133 OA 
BRANCH  16  17
HETATM   17  C   UNL     1      -9.202  10.615  63.319  1.00  0.00    -0.278 C  
BRANCH  17  18
HETATM   18  C   UNL     1      -7.983   9.726  63.133  1.00  0.00    -0.145 C  
BRANCH  18  19
HETATM   19  O   UNL     1      -8.298   8.415  63.584  1.00  0.00    -0.139 OA 
BRANCH  19  20
HETATM   20  C   UNL     1      -8.397   8.359  65.008  1.00  0.00    -0.158 C  
BRANCH  20  21
HETATM   21  C   UNL     1      -7.006   8.127  65.584  1.00  0.00    -0.066 C  
BRANCH  21  22
HETATM   22  O   UNL     1      -6.808   9.024  66.681  1.00  0.00    -0.077 OA 
BRANCH  22  23
HETATM   23  C   UNL     1      -7.814   8.865  67.673  1.00  0.00    -0.101 C  
BRANCH  23  24
HETATM   24  C   UNL     1      -7.148   8.697  69.030  1.00  0.00    -0.065 C  
BRANCH  24  25
HETATM   25  O   UNL     1      -6.104   7.735  68.912  1.00  0.00    -0.033 OA 
BRANCH  25  26
HETATM   26  C   UNL     1      -5.718   7.233  70.185  1.00  0.00    -0.024 C  
BRANCH  26  27
HETATM   27  C   UNL     1      -6.166   5.782  70.296  1.00  0.00    -0.027 C  
BRANCH  27  28
HETATM   28  O   UNL     1      -6.534   5.511  71.645  1.00  0.00    -0.041 OA 
BRANCH  28  29
HETATM   29  C   UNL     1      -7.936   5.293  71.760  1.00  0.00    -0.112 C  
BRANCH  29  30
HETATM   30  C   UNL     1      -8.370   4.298  70.695  1.00  0.00    -0.070 C  
BRANCH  30  31
HETATM   31  O   UNL     1      -9.751   4.497  70.411  1.00  0.00    -0.181 OA 
BRANCH  31  32
HETATM   32  C   UNL     1     -10.031   4.281  69.030  1.00  0.00     0.026 C  
BRANCH  32  33
HETATM   33  C   UNL     1      -9.650   5.529  68.247  1.00  0.00    -0.120 C  
BRANCH  33  34
HETATM   34  O   UNL     1      -9.112   5.145  66.985  1.00  0.00    -0.112 OA 
BRANCH  34  35
HETATM   35  C   UNL     1     -10.129   5.060  65.990  1.00  0.00    -0.209 C  
BRANCH  35  36
HETATM   36  C   UNL     1      -9.701   4.053  64.931  1.00  0.00    -0.193 C  
BRANCH  36  37
HETATM   37  O   UNL     1      -8.451   3.469  65.300  1.00  0.00    -0.104 OA 
BRANCH  37  38
HETATM   38  C   UNL     1      -7.757   2.975  64.147  1.00  0.00    -0.077 C  
BRANCH  38  39
HETATM   39  C   UNL     1      -6.990   4.131  63.517  1.00  0.00    -0.045 C  
HETATM   40  O   UNL     1      -7.677   4.595  62.355  1.00  0.00    -0.053 OA 
HETATM   41  H   UNL     1      -7.199   5.315  61.963  1.00  0.00     0.000 HD 
ENDBRANCH  38  39
ENDBRANCH  37  38
ENDBRANCH  36  37
ENDBRANCH  35  36
ENDBRANCH  34  35
ENDBRANCH  33  34
ENDBRANCH  32  33
ENDBRANCH  31  32
ENDBRANCH  30  31
ENDBRANCH  29  30
ENDBRANCH  28  29
ENDBRANCH  27  28
ENDBRANCH  26  27
ENDBRANCH  25  26
ENDBRANCH  24  25
ENDBRANCH  23  24
ENDBRANCH  22  23
ENDBRANCH  21  22
ENDBRANCH  20  21
ENDBRANCH  19  20
ENDBRANCH  18  19
ENDBRANCH  17  18
ENDBRANCH  16  17
ENDBRANCH  15  16
ENDBRANCH  14  15
ENDBRANCH  13  14
ENDBRANCH  12  13
ENDBRANCH  11  12
ENDBRANCH  10  11
ENDBRANCH   9  10
ENDBRANCH   8   9
ENDBRANCH   7   8
ENDBRANCH   6   7
ENDBRANCH   5   6
ENDBRANCH   4   5
ENDBRANCH   3   4
ENDBRANCH   2   3
TORSDOF 37
ENDMDL
MODEL      230
REMARK 921   NORMALIZED FREE ENERGY PREDICTED BY IDOCK:   -0.25 KCAL/MOL
REMARK 922        TOTAL FREE ENERGY PREDICTED BY IDOCK:   -4.40 KCAL/MOL
REMARK 923 INTER-LIGAND FREE ENERGY PREDICTED BY IDOCK:   -4.19 KCAL/MOL
REMARK 924 INTRA-LIGAND FREE ENERGY PREDICTED BY IDOCK:   -0.22 KCAL/MOL
REMARK 927      BINDING AFFINITY PREDICTED BY RF-SCORE:    0.00 PKD
ROOT
HETATM    1  C   UNL     1      -8.285  11.173  64.637  1.00  0.00     0.435 C  
HETATM    2  C   UNL     1      -9.737  11.144  65.083  1.00  0.00    -0.296 C  
ENDROOT
BRANCH   2   3
HETATM    3  C   UNL     1     -10.623  10.492  64.025  1.00  0.00     0.214 C  
BRANCH   3   4
HETATM    4  C   UNL     1     -11.668  11.472  63.497  1.00  0.00    -0.248 C  
BRANCH   4   5
HETATM    5  C   UNL     1     -11.513  12.838  64.162  1.00  0.00    -0.450 C  
BRANCH   5   6
HETATM    6  C   UNL     1     -12.268  13.910  63.385  1.00  0.00     0.005 C  
BRANCH   6   7
HETATM    7  C   UNL     1     -12.634  15.079  64.295  1.00  0.00     0.051 C  
BRANCH   7   8
HETATM    8  C   UNL     1     -11.922  14.958  65.636  1.00  0.00    -0.068 C  
BRANCH   8   9
HETATM    9  C   UNL     1     -11.881  16.303  66.354  1.00  0.00     1.321 C  
BRANCH   9  10
HETATM   10  C   UNL     1     -10.609  17.057  65.988  1.00  0.00    -0.208 C  
BRANCH  10  11
HETATM   11  C   UNL     1      -9.588  16.995  67.114  1.00  0.00    -0.253 C  
BRANCH  11  12
HETATM   12  C   UNL     1      -8.200  16.729  66.556  1.00  0.00    -0.290 C  
BRANCH  12  13
HETATM   13  O   UNL     1      -8.014  15.320  66.488  1.00  0.00    -0.077 OA 
BRANCH  13  14
HETATM   14  C   UNL     1      -9.064  14.641  67.168  1.00  0.00    -0.223 C  
BRANCH  14  15
HETATM   15  C   UNL     1      -8.552  14.146  68.509  1.00  0.00    -0.163 C  
BRANCH  15  16
HETATM   16  O   UNL     1      -8.126  12.797  68.353  1.00  0.00    -0.149 OA 
BRANCH  16  17
HETATM   17  C   UNL     1      -6.711  12.686  68.459  1.00  0.00    -0.089 C  
BRANCH  17  18
HETATM   18  C   UNL     1      -6.322  11.236  68.220  1.00  0.00    -0.049 C  
BRANCH  18  19
HETATM   19  O   UNL     1      -5.477  10.806  69.280  1.00  0.00    -0.041 OA 
BRANCH  19  20
HETATM   20  C   UNL     1      -5.276  11.842  70.244  1.00  0.00    -0.098 C  
BRANCH  20  21
HETATM   21  C   UNL     1      -5.395  11.238  71.638  1.00  0.00     0.159 C  
BRANCH  21  22
HETATM   22  O   UNL     1      -5.171   9.828  71.548  1.00  0.00    -0.064 OA 
BRANCH  22  23
HETATM   23  C   UNL     1      -6.324   9.145  71.071  1.00  0.00    -0.071 C  
BRANCH  23  24
HETATM   24  C   UNL     1      -5.941   7.717  70.715  1.00  0.00    -0.034 C  
BRANCH  24  25
HETATM   25  O   UNL     1      -7.113   6.908  70.746  1.00  0.00    -0.065 OA 
BRANCH  25  26
HETATM   26  C   UNL     1      -8.224   7.585  70.171  1.00  0.00    -0.132 C  
BRANCH  26  27
HETATM   27  C   UNL     1      -8.080   7.566  68.657  1.00  0.00    -0.124 C  
BRANCH  27  28
HETATM   28  O   UNL     1      -9.368   7.697  68.065  1.00  0.00    -0.140 OA 
BRANCH  28  29
HETATM   29  C   UNL     1      -9.609   9.038  67.651  1.00  0.00    -0.150 C  
BRANCH  29  30
HETATM   30  C   UNL     1     -10.993   9.458  68.118  1.00  0.00    -0.045 C  
BRANCH  30  31
HETATM   31  O   UNL     1     -11.367  10.654  67.442  1.00  0.00    -0.401 OA 
BRANCH  31  32
HETATM   32  C   UNL     1     -12.284  11.422  68.218  1.00  0.00     0.235 C  
BRANCH  32  33
HETATM   33  C   UNL     1     -11.596  12.700  68.675  1.00  0.00    -0.316 C  
BRANCH  33  34
HETATM   34  O   UNL     1     -12.577  13.614  69.157  1.00  0.00    -0.041 OA 
BRANCH  34  35
HETATM   35  C   UNL     1     -12.405  13.876  70.548  1.00  0.00    -0.369 C  
BRANCH  35  36
HETATM   36  C   UNL     1     -13.581  14.707  71.042  1.00  0.00    -0.276 C  
BRANCH  36  37
HETATM   37  O   UNL     1     -13.100  15.899  71.665  1.00  0.00    -0.465 OA 
BRANCH  37  38
HETATM   38  C   UNL     1     -11.766  15.715  72.157  1.00  0.00    -0.483 C  
BRANCH  38  39
HETATM   39  C   UNL     1     -11.811  15.729  73.681  1.00  0.00    -0.229 C  
HETATM   40  O   UNL     1     -12.845  14.862  74.144  1.00  0.00    -0.501 OA 
HETATM   41  H   UNL     1     -12.873  14.870  75.093  1.00  0.00     0.000 HD 
ENDBRANCH  38  39
ENDBRANCH  37  38
ENDBRANCH  36  37
ENDBRANCH  35  36
ENDBRANCH  34  35
ENDBRANCH  33  34
ENDBRANCH  32  33
ENDBRANCH  31  32
ENDBRANCH  30  31
ENDBRANCH  29  30
ENDBRANCH  28  29
ENDBRANCH  27  28
ENDBRANCH  26  27
ENDBRANCH  25  26
ENDBRANCH  24  25
ENDBRANCH  23  24
ENDBRANCH  22  23
ENDBRANCH  21  22
ENDBRANCH  20  21
ENDBRANCH  19  20
ENDBRANCH  18  19
ENDBRANCH  17  18
ENDBRANCH  16  17
ENDBRANCH  15  16
ENDBRANCH  14  15
ENDBRANCH  13  14
ENDBRANCH  12  13
ENDBRANCH  11  12
ENDBRANCH  10  11
ENDBRANCH   9  10
ENDBRANCH   8   9
ENDBRANCH   7   8
ENDBRANCH   6   7
ENDBRANCH   5   6
ENDBRANCH   4   5
ENDBRANCH   3   4
ENDBRANCH   2   3
TORSDOF 37
ENDMDL
MODEL      231
REMARK 921   NORMALIZED FREE ENERGY PREDICTED BY IDOCK:   -0.12 KCAL/MOL
REMARK 922        TOTAL FREE ENERGY PREDICTED BY IDOCK:   -4.00 KCAL/MOL
REMARK 923 INTER-LIGAND FREE ENERGY PREDICTED BY IDOCK:   -5.72 KCAL/MOL
REMARK 924 INTRA-LIGAND FREE ENERGY PREDICTED BY IDOCK:    1.72 KCAL/MOL
REMARK 927      BINDING AFFINITY PREDICTED BY RF-SCORE:    0.00 PKD
ROOT
HETATM    1  C   UNL     1     -11.944  15.493  70.225  1.00  0.00    -0.401 C  
HETATM    2  C   UNL     1     -11.080  15.316  68.988  1.00  0.00    -0.263 C  
ENDROOT
BRANCH   2   3
HETATM    3  C   UNL     1     -11.937  15.243  67.727  1.00  0.00     0.020 C  
BRANCH   3   4
HETATM    4  C   UNL     1     -11.277  14.374  66.659  1.00  0.00    -0.340 C  
BRANCH   4   5
HETATM    5  C   UNL     1     -11.975  13.021  66.553  1.00  0.00    -0.457 C  
BRANCH   5   6
HETATM    6  C   UNL     1     -10.963  11.882  66.570  1.00  0.00    -0.337 C  
BRANCH   6   7
HETATM    7  C   UNL     1      -9.747  12.228  65.717  1.00  0.00    -0.228 C  
BRANCH   7   8
HETATM    8  C   UNL     1      -8.579  11.309  66.049  1.00  0.00    -0.130 C  
BRANCH   8   9
HETATM    9  C   UNL     1      -8.875   9.875  65.623  1.00  0.00    -0.184 C  
BRANCH   9  10
HETATM   10  C   UNL     1      -8.289   9.603  64.244  1.00  0.00    -0.169 C  
BRANCH  10  11
HETATM   11  C   UNL     1      -7.151   8.596  64.318  1.00  0.00    -0.089 C  
BRANCH  11  12
HETATM   12  C   UNL     1      -6.170   8.987  65.410  1.00  0.00    -0.063 C  
BRANCH  12  13
HETATM   13  O   UNL     1      -5.371   7.849  65.715  1.00  0.00    -0.028 OA 
BRANCH  13  14
HETATM   14  C   UNL     1      -5.968   7.080  66.754  1.00  0.00    -0.033 C  
BRANCH  14  15
HETATM   15  C   UNL     1      -5.661   5.611  66.527  1.00  0.00    -0.017 C  
BRANCH  15  16
HETATM   16  O   UNL     1      -5.298   5.437  65.162  1.00  0.00    -0.012 OA 
BRANCH  16  17
HETATM   17  C   UNL     1      -6.325   4.771  64.435  1.00  0.00    -0.034 C  
BRANCH  17  18
HETATM   18  C   UNL     1      -7.618   4.870  65.227  1.00  0.00    -0.078 C  
BRANCH  18  19
HETATM   19  O   UNL     1      -7.725   3.735  66.077  1.00  0.00    -0.087 OA 
BRANCH  19  20
HETATM   20  C   UNL     1      -8.646   2.774  65.557  1.00  0.00    -0.110 C  
BRANCH  20  21
HETATM   21  C   UNL     1      -8.630   1.547  66.460  1.00  0.00    -0.107 C  
BRANCH  21  22
HETATM   22  O   UNL     1      -9.269   1.879  67.696  1.00  0.00    -0.153 OA 
BRANCH  22  23
HETATM   23  C   UNL     1      -8.549   2.881  68.403  1.00  0.00    -0.087 C  
BRANCH  23  24
HETATM   24  C   UNL     1      -9.539   3.824  69.070  1.00  0.00    -0.120 C  
BRANCH  24  25
HETATM   25  O   UNL     1      -9.226   5.161  68.690  1.00  0.00    -0.111 OA 
BRANCH  25  26
HETATM   26  C   UNL     1      -9.706   6.096  69.648  1.00  0.00    -0.152 C  
BRANCH  26  27
HETATM   27  C   UNL     1     -11.188   5.842  69.881  1.00  0.00    -0.268 C  
BRANCH  27  28
HETATM   28  O   UNL     1     -11.636   6.655  70.961  1.00  0.00    -0.309 OA 
BRANCH  28  29
HETATM   29  C   UNL     1     -11.481   8.038  70.660  1.00  0.00    -0.232 C  
BRANCH  29  30
HETATM   30  C   UNL     1     -10.490   8.186  69.516  1.00  0.00    -0.227 C  
BRANCH  30  31
HETATM   31  O   UNL     1     -10.440   9.553  69.121  1.00  0.00    -0.199 OA 
BRANCH  31  32
HETATM   32  C   UNL     1      -9.612  10.316  69.996  1.00  0.00     0.060 C  
BRANCH  32  33
HETATM   33  C   UNL     1      -8.156   9.957  69.737  1.00  0.00    -0.176 C  
BRANCH  33  34
HETATM   34  O   UNL     1      -7.512  11.051  69.091  1.00  0.00    -0.117 OA 
BRANCH  34  35
HETATM   35  C   UNL     1      -6.127  11.109  69.423  1.00  0.00    -0.071 C  
BRANCH  35  36
HETATM   36  C   UNL     1      -5.713   9.782  70.044  1.00  0.00    -0.042 C  
BRANCH  36  37
HETATM   37  O   UNL     1      -6.243   9.682  71.366  1.00  0.00    -0.213 OA 
BRANCH  37  38
HETATM   38  C   UNL     1      -5.294   9.079  72.254  1.00  0.00    -0.061 C  
BRANCH  38  39
HETATM   39  C   UNL     1      -5.503   7.569  72.225  1.00  0.00    -0.036 C  
HETATM   40  O   UNL     1      -6.113   7.140  73.442  1.00  0.00    -0.057 OA 
HETATM   41  H   UNL     1      -6.244   6.199  73.423  1.00  0.00     0.000 HD 
ENDBRANCH  38  39
ENDBRANCH  37  38
ENDBRANCH  36  37
ENDBRANCH  35  36
ENDBRANCH  34  35
ENDBRANCH  33  34
ENDBRANCH  32  33
ENDBRANCH  31  32
ENDBRANCH  30  31
ENDBRANCH  29  30
ENDBRANCH  28  29
ENDBRANCH  27  28
ENDBRANCH  26  27
ENDBRANCH  25  26
ENDBRANCH  24  25
ENDBRANCH  23  24
ENDBRANCH  22  23
ENDBRANCH  21  22
ENDBRANCH  20  21
ENDBRANCH  19  20
ENDBRANCH  18  19
ENDBRANCH  17  18
ENDBRANCH  16  17
ENDBRANCH  15  16
ENDBRANCH  14  15
ENDBRANCH  13  14
ENDBRANCH  12  13
ENDBRANCH  11  12
ENDBRANCH  10  11
ENDBRANCH   9  10
ENDBRANCH   8   9
ENDBRANCH   7   8
ENDBRANCH   6   7
ENDBRANCH   5   6
ENDBRANCH   4   5
ENDBRANCH   3   4
ENDBRANCH   2   3
TORSDOF 37
ENDMDL
MODEL      232
REMARK 921   NORMALIZED FREE ENERGY PREDICTED BY IDOCK:    0.28 KCAL/MOL
REMARK 922        TOTAL FREE ENERGY PREDICTED BY IDOCK:   -2.74 KCAL/MOL
REMARK 923 INTER-LIGAND FREE ENERGY PREDICTED BY IDOCK:   -5.34 KCAL/MOL
REMARK 924 INTRA-LIGAND FREE ENERGY PREDICTED BY IDOCK:    2.61 KCAL/MOL
REMARK 927      BINDING AFFINITY PREDICTED BY RF-SCORE:    0.00 PKD
ROOT
HETATM    1  C   UNL     1     -12.740  14.345  67.219  1.00  0.00     0.717 C  
HETATM    2  C   UNL     1     -11.934  13.261  66.524  1.00  0.00    -0.448 C  
ENDROOT
BRANCH   2   3
HETATM    3  C   UNL     1     -10.742  13.856  65.780  1.00  0.00    -0.289 C  
BRANCH   3   4
HETATM    4  C   UNL     1      -9.936  12.771  65.069  1.00  0.00    -0.171 C  
BRANCH   4   5
HETATM    5  C   UNL     1     -10.734  12.173  63.914  1.00  0.00    -0.456 C  
BRANCH   5   6
HETATM    6  C   UNL     1     -10.229  10.777  63.569  1.00  0.00    -0.315 C  
BRANCH   6   7
HETATM    7  C   UNL     1      -9.064  10.851  62.587  1.00  0.00    -0.364 C  
BRANCH   7   8
HETATM    8  C   UNL     1      -7.808  10.245  63.198  1.00  0.00    -0.144 C  
BRANCH   8   9
HETATM    9  C   UNL     1      -7.406   8.969  62.466  1.00  0.00    -0.098 C  
BRANCH   9  10
HETATM   10  C   UNL     1      -7.455   7.779  63.416  1.00  0.00    -0.115 C  
BRANCH  10  11
HETATM   11  C   UNL     1      -7.946   8.195  64.794  1.00  0.00    -0.147 C  
BRANCH  11  12
HETATM   12  C   UNL     1      -6.905   9.059  65.487  1.00  0.00    -0.073 C  
BRANCH  12  13
HETATM   13  O   UNL     1      -7.542   9.742  66.560  1.00  0.00    -0.097 OA 
BRANCH  13  14
HETATM   14  C   UNL     1      -6.616  10.000  67.611  1.00  0.00    -0.067 C  
BRANCH  14  15
HETATM   15  C   UNL     1      -5.319   9.263  67.327  1.00  0.00    -0.037 C  
BRANCH  15  16
HETATM   16  O   UNL     1      -5.207   8.188  68.252  1.00  0.00    -0.031 OA 
BRANCH  16  17
HETATM   17  C   UNL     1      -6.011   8.411  69.406  1.00  0.00    -0.037 C  
BRANCH  17  18
HETATM   18  C   UNL     1      -5.628   9.753  70.008  1.00  0.00    -0.041 C  
BRANCH  18  19
HETATM   19  O   UNL     1      -6.260   9.886  71.275  1.00  0.00    -0.253 OA 
BRANCH  19  20
HETATM   20  C   UNL     1      -7.398   9.030  71.386  1.00  0.00    -0.036 C  
BRANCH  20  21
HETATM   21  C   UNL     1      -7.345   8.323  72.735  1.00  0.00    -0.104 C  
BRANCH  21  22
HETATM   22  O   UNL     1      -5.975   8.156  73.111  1.00  0.00    -0.057 OA 
BRANCH  22  23
HETATM   23  C   UNL     1      -5.808   7.062  74.004  1.00  0.00    -0.058 C  
BRANCH  23  24
HETATM   24  C   UNL     1      -7.131   6.323  74.132  1.00  0.00    -0.086 C  
BRANCH  24  25
HETATM   25  O   UNL     1      -6.994   5.034  73.539  1.00  0.00    -0.072 OA 
BRANCH  25  26
HETATM   26  C   UNL     1      -7.529   4.020  74.380  1.00  0.00    -0.074 C  
BRANCH  26  27
HETATM   27  C   UNL     1      -6.524   2.881  74.474  1.00  0.00    -0.025 C  
BRANCH  27  28
HETATM   28  O   UNL     1      -6.822   1.914  73.472  1.00  0.00    -0.021 OA 
BRANCH  28  29
HETATM   29  C   UNL     1      -8.185   1.508  73.539  1.00  0.00    -0.045 C  
BRANCH  29  30
HETATM   30  C   UNL     1      -8.950   2.491  74.411  1.00  0.00    -0.074 C  
BRANCH  30  31
HETATM   31  O   UNL     1     -10.293   2.575  73.946  1.00  0.00    -0.110 OA 
BRANCH  31  32
HETATM   32  C   UNL     1     -10.362   3.213  72.674  1.00  0.00    -0.133 C  
BRANCH  32  33
HETATM   33  C   UNL     1     -11.153   4.506  72.810  1.00  0.00    -0.081 C  
BRANCH  33  34
HETATM   34  O   UNL     1     -10.749   5.413  71.789  1.00  0.00    -0.232 OA 
BRANCH  34  35
HETATM   35  C   UNL     1     -11.765   6.375  71.516  1.00  0.00    -0.313 C  
BRANCH  35  36
HETATM   36  C   UNL     1     -11.716   7.460  72.583  1.00  0.00    -0.195 C  
BRANCH  36  37
HETATM   37  O   UNL     1     -12.068   8.718  72.007  1.00  0.00    -0.331 OA 
BRANCH  37  38
HETATM   38  C   UNL     1     -10.996   9.231  71.205  1.00  0.00    -0.351 C  
BRANCH  38  39
HETATM   39  C   UNL     1     -11.532   9.495  69.802  1.00  0.00    -0.010 C  
HETATM   40  O   UNL     1     -12.337  10.673  69.803  1.00  0.00    -0.469 OA 
HETATM   41  H   UNL     1     -12.670  10.837  68.929  1.00  0.00     0.000 HD 
ENDBRANCH  38  39
ENDBRANCH  37  38
ENDBRANCH  36  37
ENDBRANCH  35  36
ENDBRANCH  34  35
ENDBRANCH  33  34
ENDBRANCH  32  33
ENDBRANCH  31  32
ENDBRANCH  30  31
ENDBRANCH  29  30
ENDBRANCH  28  29
ENDBRANCH  27  28
ENDBRANCH  26  27
ENDBRANCH  25  26
ENDBRANCH  24  25
ENDBRANCH  23  24
ENDBRANCH  22  23
ENDBRANCH  21  22
ENDBRANCH  20  21
ENDBRANCH  19  20
ENDBRANCH  18  19
ENDBRANCH  17  18
ENDBRANCH  16  17
ENDBRANCH  15  16
ENDBRANCH  14  15
ENDBRANCH  13  14
ENDBRANCH  12  13
ENDBRANCH  11  12
ENDBRANCH  10  11
ENDBRANCH   9  10
ENDBRANCH   8   9
ENDBRANCH   7   8
ENDBRANCH   6   7
ENDBRANCH   5   6
ENDBRANCH   4   5
ENDBRANCH   3   4
ENDBRANCH   2   3
TORSDOF 37
ENDMDL
MODEL      233
REMARK 921   NORMALIZED FREE ENERGY PREDICTED BY IDOCK:    0.75 KCAL/MOL
REMARK 922        TOTAL FREE ENERGY PREDICTED BY IDOCK:   -1.24 KCAL/MOL
REMARK 923 INTER-LIGAND FREE ENERGY PREDICTED BY IDOCK:    0.04 KCAL/MOL
REMARK 924 INTRA-LIGAND FREE ENERGY PREDICTED BY IDOCK:   -1.28 KCAL/MOL
REMARK 927      BINDING AFFINITY PREDICTED BY RF-SCORE:    0.00 PKD
ROOT
HETATM    1  C   UNL     1     -12.543  19.966  67.347  1.00  0.00     4.123 C  
HETATM    2  C   UNL     1     -11.035  19.799  67.282  1.00  0.00    -0.345 C  
ENDROOT
BRANCH   2   3
HETATM    3  C   UNL     1     -10.615  18.414  67.767  1.00  0.00    -0.419 C  
BRANCH   3   4
HETATM    4  C   UNL     1      -9.736  17.710  66.735  1.00  0.00    -0.300 C  
BRANCH   4   5
HETATM    5  C   UNL     1     -10.552  16.707  65.923  1.00  0.00    -0.257 C  
BRANCH   5   6
HETATM    6  C   UNL     1     -10.334  15.287  66.432  1.00  0.00    -0.296 C  
BRANCH   6   7
HETATM    7  C   UNL     1     -10.043  15.289  67.929  1.00  0.00    -0.233 C  
BRANCH   7   8
HETATM    8  C   UNL     1      -8.542  15.227  68.185  1.00  0.00    -0.160 C  
BRANCH   8   9
HETATM    9  C   UNL     1      -7.788  14.846  66.915  1.00  0.00    -0.005 C  
BRANCH   9  10
HETATM   10  C   UNL     1      -6.313  14.625  67.225  1.00  0.00     0.318 C  
BRANCH  10  11
HETATM   11  C   UNL     1      -6.082  13.258  67.852  1.00  0.00    -0.143 C  
BRANCH  11  12
HETATM   12  C   UNL     1      -5.513  13.409  69.252  1.00  0.00    -0.076 C  
BRANCH  12  13
HETATM   13  O   UNL     1      -6.258  12.569  70.125  1.00  0.00    -0.129 OA 
BRANCH  13  14
HETATM   14  C   UNL     1      -7.051  11.649  69.381  1.00  0.00    -0.007 C  
BRANCH  14  15
HETATM   15  C   UNL     1      -7.118  10.329  70.128  1.00  0.00    -0.148 C  
BRANCH  15  16
HETATM   16  O   UNL     1      -5.889  10.148  70.824  1.00  0.00    -0.079 OA 
BRANCH  16  17
HETATM   17  C   UNL     1      -5.166   9.032  70.317  1.00  0.00    -0.027 C  
BRANCH  17  18
HETATM   18  C   UNL     1      -5.783   7.762  70.880  1.00  0.00    -0.034 C  
BRANCH  18  19
HETATM   19  O   UNL     1      -5.412   7.638  72.247  1.00  0.00    -0.036 OA 
BRANCH  19  20
HETATM   20  C   UNL     1      -6.407   8.191  73.112  1.00  0.00    -0.083 C  
BRANCH  20  21
HETATM   21  C   UNL     1      -7.756   7.582  72.753  1.00  0.00    -0.092 C  
BRANCH  21  22
HETATM   22  O   UNL     1      -8.626   7.695  73.883  1.00  0.00    -0.190 OA 
BRANCH  22  23
HETATM   23  C   UNL     1      -9.989   7.787  73.486  1.00  0.00    -0.222 C  
BRANCH  23  24
HETATM   24  C   UNL     1     -10.226   6.849  72.313  1.00  0.00    -0.186 C  
BRANCH  24  25
HETATM   25  O   UNL     1     -10.647   5.584  72.817  1.00  0.00    -0.199 OA 
BRANCH  25  26
HETATM   26  C   UNL     1      -9.664   4.583  72.585  1.00  0.00    -0.144 C  
BRANCH  26  27
HETATM   27  C   UNL     1     -10.247   3.529  71.656  1.00  0.00     0.065 C  
BRANCH  27  28
HETATM   28  O   UNL     1      -9.183   2.837  71.010  1.00  0.00    -0.104 OA 
BRANCH  28  29
HETATM   29  C   UNL     1      -8.554   3.661  70.033  1.00  0.00    -0.061 C  
BRANCH  29  30
HETATM   30  C   UNL     1      -7.107   3.221  69.875  1.00  0.00    -0.041 C  
BRANCH  30  31
HETATM   31  O   UNL     1      -6.623   3.665  68.612  1.00  0.00    -0.039 OA 
BRANCH  31  32
HETATM   32  C   UNL     1      -7.534   3.338  67.565  1.00  0.00    -0.062 C  
BRANCH  32  33
HETATM   33  C   UNL     1      -7.361   4.336  66.429  1.00  0.00    -0.080 C  
BRANCH  33  34
HETATM   34  O   UNL     1      -8.630   4.595  65.835  1.00  0.00    -0.114 OA 
BRANCH  34  35
HETATM   35  C   UNL     1      -9.597   4.967  66.815  1.00  0.00    -0.161 C  
BRANCH  35  36
HETATM   36  C   UNL     1      -9.568   6.479  66.987  1.00  0.00    -0.144 C  
BRANCH  36  37
HETATM   37  O   UNL     1      -9.817   7.112  65.732  1.00  0.00     0.349 OA 
BRANCH  37  38
HETATM   38  C   UNL     1      -8.819   8.102  65.450  1.00  0.00    -0.044 C  
BRANCH  38  39
HETATM   39  C   UNL     1      -7.499   7.634  66.052  1.00  0.00    -0.082 C  
HETATM   40  O   UNL     1      -6.678   8.761  66.357  1.00  0.00    -0.068 OA 
HETATM   41  H   UNL     1      -5.856   8.470  66.732  1.00  0.00     0.000 HD 
ENDBRANCH  38  39
ENDBRANCH  37  38
ENDBRANCH  36  37
ENDBRANCH  35  36
ENDBRANCH  34  35
ENDBRANCH  33  34
ENDBRANCH  32  33
ENDBRANCH  31  32
ENDBRANCH  30  31
ENDBRANCH  29  30
ENDBRANCH  28  29
ENDBRANCH  27  28
ENDBRANCH  26  27
ENDBRANCH  25  26
ENDBRANCH  24  25
ENDBRANCH  23  24
ENDBRANCH  22  23
ENDBRANCH  21  22
ENDBRANCH  20  21
ENDBRANCH  19  20
ENDBRANCH  18  19
ENDBRANCH  17  18
ENDBRANCH  16  17
ENDBRANCH  15  16
ENDBRANCH  14  15
ENDBRANCH  13  14
ENDBRANCH  12  13
ENDBRANCH  11  12
ENDBRANCH  10  11
ENDBRANCH   9  10
ENDBRANCH   8   9
ENDBRANCH   7   8
ENDBRANCH   6   7
ENDBRANCH   5   6
ENDBRANCH   4   5
ENDBRANCH   3   4
ENDBRANCH   2   3
TORSDOF 37
ENDMDL
MODEL      234
REMARK 921   NORMALIZED FREE ENERGY PREDICTED BY IDOCK:    0.77 KCAL/MOL
REMARK 922        TOTAL FREE ENERGY PREDICTED BY IDOCK:   -1.17 KCAL/MOL
REMARK 923 INTER-LIGAND FREE ENERGY PREDICTED BY IDOCK:   -2.67 KCAL/MOL
REMARK 924 INTRA-LIGAND FREE ENERGY PREDICTED BY IDOCK:    1.50 KCAL/MOL
REMARK 927      BINDING AFFINITY PREDICTED BY RF-SCORE:    0.00 PKD
ROOT
HETATM    1  C   UNL     1     -11.310  13.900  66.374  1.00  0.00    -0.335 C  
HETATM    2  C   UNL     1     -10.968  12.421  66.434  1.00  0.00    -0.315 C  
ENDROOT
BRANCH   2   3
HETATM    3  C   UNL     1     -11.802  11.708  67.495  1.00  0.00    -0.196 C  
BRANCH   3   4
HETATM    4  C   UNL     1     -12.741  12.680  68.205  1.00  0.00     1.503 C  
BRANCH   4   5
HETATM    5  C   UNL     1     -12.241  12.983  69.615  1.00  0.00    -0.219 C  
BRANCH   5   6
HETATM    6  C   UNL     1     -11.220  14.114  69.600  1.00  0.00    -0.241 C  
BRANCH   6   7
HETATM    7  C   UNL     1     -11.491  15.102  70.730  1.00  0.00    -0.350 C  
BRANCH   7   8
HETATM    8  C   UNL     1     -12.090  16.391  70.183  1.00  0.00     0.483 C  
BRANCH   8   9
HETATM    9  C   UNL     1     -11.641  16.634  68.746  1.00  0.00     0.086 C  
BRANCH   9  10
HETATM   10  C   UNL     1     -10.123  16.563  68.649  1.00  0.00    -0.255 C  
BRANCH  10  11
HETATM   11  C   UNL     1      -9.672  16.360  67.210  1.00  0.00    -0.239 C  
BRANCH  11  12
HETATM   12  C   UNL     1      -8.298  15.712  67.174  1.00  0.00    -0.208 C  
BRANCH  12  13
HETATM   13  O   UNL     1      -8.402  14.422  67.764  1.00  0.00    -0.147 OA 
BRANCH  13  14
HETATM   14  C   UNL     1      -7.115  13.927  68.119  1.00  0.00    -0.118 C  
BRANCH  14  15
HETATM   15  C   UNL     1      -7.167  13.364  69.528  1.00  0.00     0.309 C  
BRANCH  15  16
HETATM   16  O   UNL     1      -5.929  13.652  70.168  1.00  0.00    -0.132 OA 
BRANCH  16  17
HETATM   17  C   UNL     1      -5.139  12.477  70.319  1.00  0.00    -0.098 C  
BRANCH  17  18
HETATM   18  C   UNL     1      -5.372  11.582  69.113  1.00  0.00    -0.047 C  
BRANCH  18  19
HETATM   19  O   UNL     1      -5.346  10.224  69.536  1.00  0.00    -0.038 OA 
BRANCH  19  20
HETATM   20  C   UNL     1      -6.067   9.380  68.636  1.00  0.00    -0.044 C  
BRANCH  20  21
HETATM   21  C   UNL     1      -6.476   8.114  69.379  1.00  0.00    -0.035 C  
BRANCH  21  22
HETATM   22  O   UNL     1      -7.723   7.655  68.849  1.00  0.00    -0.112 OA 
BRANCH  22  23
HETATM   23  C   UNL     1      -8.494   6.981  69.837  1.00  0.00    -0.140 C  
BRANCH  23  24
HETATM   24  C   UNL     1      -7.988   7.381  71.215  1.00  0.00    -0.096 C  
BRANCH  24  25
HETATM   25  O   UNL     1      -7.183   6.324  71.731  1.00  0.00    -0.083 OA 
BRANCH  25  26
HETATM   26  C   UNL     1      -7.985   5.251  72.208  1.00  0.00    -0.106 C  
BRANCH  26  27
HETATM   27  C   UNL     1      -9.008   4.891  71.141  1.00  0.00    -0.136 C  
BRANCH  27  28
HETATM   28  O   UNL     1      -8.331   4.359  70.007  1.00  0.00    -0.062 OA 
BRANCH  28  29
HETATM   29  C   UNL     1      -8.890   3.109  69.615  1.00  0.00    -0.086 C  
BRANCH  29  30
HETATM   30  C   UNL     1      -8.803   2.981  68.103  1.00  0.00    -0.125 C  
BRANCH  30  31
HETATM   31  O   UNL     1      -7.704   2.138  67.772  1.00  0.00    -0.058 OA 
BRANCH  31  32
HETATM   32  C   UNL     1      -7.217   2.412  66.461  1.00  0.00    -0.057 C  
BRANCH  32  33
HETATM   33  C   UNL     1      -8.181   3.362  65.764  1.00  0.00    -0.094 C  
BRANCH  33  34
HETATM   34  O   UNL     1      -7.660   4.687  65.825  1.00  0.00    -0.081 OA 
BRANCH  34  35
HETATM   35  C   UNL     1      -8.437   5.588  65.041  1.00  0.00    -0.147 C  
BRANCH  35  36
HETATM   36  C   UNL     1      -7.809   6.973  65.115  1.00  0.00    -0.124 C  
BRANCH  36  37
HETATM   37  O   UNL     1      -8.609   7.904  64.383  1.00  0.00     0.037 OA 
BRANCH  37  38
HETATM   38  C   UNL     1      -8.869   9.078  65.163  1.00  0.00    -0.182 C  
BRANCH  38  39
HETATM   39  C   UNL     1      -9.703   8.674  66.374  1.00  0.00    -0.263 C  
HETATM   40  O   UNL     1      -9.301   9.430  67.515  1.00  0.00    -0.126 OA 
HETATM   41  H   UNL     1      -9.821   9.178  68.269  1.00  0.00     0.000 HD 
ENDBRANCH  38  39
ENDBRANCH  37  38
ENDBRANCH  36  37
ENDBRANCH  35  36
ENDBRANCH  34  35
ENDBRANCH  33  34
ENDBRANCH  32  33
ENDBRANCH  31  32
ENDBRANCH  30  31
ENDBRANCH  29  30
ENDBRANCH  28  29
ENDBRANCH  27  28
ENDBRANCH  26  27
ENDBRANCH  25  26
ENDBRANCH  24  25
ENDBRANCH  23  24
ENDBRANCH  22  23
ENDBRANCH  21  22
ENDBRANCH  20  21
ENDBRANCH  19  20
ENDBRANCH  18  19
ENDBRANCH  17  18
ENDBRANCH  16  17
ENDBRANCH  15  16
ENDBRANCH  14  15
ENDBRANCH  13  14
ENDBRANCH  12  13
ENDBRANCH  11  12
ENDBRANCH  10  11
ENDBRANCH   9  10
ENDBRANCH   8   9
ENDBRANCH   7   8
ENDBRANCH   6   7
ENDBRANCH   5   6
ENDBRANCH   4   5
ENDBRANCH   3   4
ENDBRANCH   2   3
TORSDOF 37
ENDMDL
MODEL      235
REMARK 921   NORMALIZED FREE ENERGY PREDICTED BY IDOCK:    1.19 KCAL/MOL
REMARK 922        TOTAL FREE ENERGY PREDICTED BY IDOCK:    0.14 KCAL/MOL
REMARK 923 INTER-LIGAND FREE ENERGY PREDICTED BY IDOCK:   -0.84 KCAL/MOL
REMARK 924 INTRA-LIGAND FREE ENERGY PREDICTED BY IDOCK:    0.98 KCAL/MOL
REMARK 927      BINDING AFFINITY PREDICTED BY RF-SCORE:    0.00 PKD
ROOT
HETATM    1  C   UNL     1      -6.344   6.858  64.721  1.00  0.00    -0.036 C  
HETATM    2  C   UNL     1      -7.091   6.651  66.027  1.00  0.00    -0.062 C  
ENDROOT
BRANCH   2   3
HETATM    3  C   UNL     1      -6.901   7.841  66.963  1.00  0.00    -0.069 C  
BRANCH   3   4
HETATM    4  C   UNL     1      -6.052   8.929  66.309  1.00  0.00    -0.063 C  
BRANCH   4   5
HETATM    5  C   UNL     1      -6.283   8.962  64.801  1.00  0.00    -0.065 C  
BRANCH   5   6
HETATM    6  C   UNL     1      -7.018  10.233  64.390  1.00  0.00    -0.060 C  
BRANCH   6   7
HETATM    7  C   UNL     1      -6.962  10.424  62.878  1.00  0.00    -0.099 C  
BRANCH   7   8
HETATM    8  C   UNL     1      -8.006  11.437  62.426  1.00  0.00     0.105 C  
BRANCH   8   9
HETATM    9  C   UNL     1      -8.870  11.890  63.598  1.00  0.00     0.702 C  
BRANCH   9  10
HETATM   10  C   UNL     1     -10.203  11.154  63.584  1.00  0.00    -0.444 C  
BRANCH  10  11
HETATM   11  C   UNL     1     -10.219  10.023  64.601  1.00  0.00     0.114 C  
BRANCH  11  12
HETATM   12  C   UNL     1     -10.235  10.582  66.013  1.00  0.00    -0.245 C  
BRANCH  12  13
HETATM   13  O   UNL     1     -10.300   9.488  66.921  1.00  0.00    -0.240 OA 
BRANCH  13  14
HETATM   14  C   UNL     1     -11.378   9.658  67.835  1.00  0.00     0.317 C  
BRANCH  14  15
HETATM   15  C   UNL     1     -11.619  11.140  68.055  1.00  0.00    -0.263 C  
BRANCH  15  16
HETATM   16  O   UNL     1     -10.740  11.587  69.081  1.00  0.00    -0.214 OA 
BRANCH  16  17
HETATM   17  C   UNL     1     -11.156  12.841  69.610  1.00  0.00     0.102 C  
BRANCH  17  18
HETATM   18  C   UNL     1     -11.675  12.620  71.022  1.00  0.00     0.912 C  
BRANCH  18  19
HETATM   19  O   UNL     1     -11.825  13.882  71.660  1.00  0.00     0.038 OA 
BRANCH  19  20
HETATM   20  C   UNL     1     -13.130  14.034  72.222  1.00  0.00    -0.423 C  
BRANCH  20  21
HETATM   21  C   UNL     1     -13.996  14.808  71.236  1.00  0.00    -0.371 C  
BRANCH  21  22
HETATM   22  O   UNL     1     -13.269  15.957  70.791  1.00  0.00    -0.491 OA 
BRANCH  22  23
HETATM   23  C   UNL     1     -13.290  16.071  69.373  1.00  0.00     2.444 C  
BRANCH  23  24
HETATM   24  C   UNL     1     -12.178  15.211  68.793  1.00  0.00    -0.069 C  
BRANCH  24  25
HETATM   25  O   UNL     1     -11.049  16.039  68.530  1.00  0.00    -0.310 OA 
BRANCH  25  26
HETATM   26  C   UNL     1     -10.502  15.775  67.244  1.00  0.00    -0.308 C  
BRANCH  26  27
HETATM   27  C   UNL     1      -9.231  16.594  67.074  1.00  0.00    -0.220 C  
BRANCH  27  28
HETATM   28  O   UNL     1      -9.139  17.537  68.137  1.00  0.00    -0.261 OA 
BRANCH  28  29
HETATM   29  C   UNL     1      -7.785  17.731  68.535  1.00  0.00    -0.289 C  
BRANCH  29  30
HETATM   30  C   UNL     1      -7.025  16.428  68.348  1.00  0.00    -0.144 C  
BRANCH  30  31
HETATM   31  O   UNL     1      -6.709  15.888  69.627  1.00  0.00    -0.189 OA 
BRANCH  31  32
HETATM   32  C   UNL     1      -5.959  14.682  69.509  1.00  0.00    -0.106 C  
BRANCH  32  33
HETATM   33  C   UNL     1      -6.644  13.592  70.321  1.00  0.00     0.191 C  
BRANCH  33  34
HETATM   34  O   UNL     1      -6.373  12.325  69.728  1.00  0.00    -0.131 OA 
BRANCH  34  35
HETATM   35  C   UNL     1      -5.674  11.469  70.627  1.00  0.00    -0.118 C  
BRANCH  35  36
HETATM   36  C   UNL     1      -6.297  10.080  70.571  1.00  0.00    -0.116 C  
BRANCH  36  37
HETATM   37  O   UNL     1      -7.049   9.842  71.762  1.00  0.00    -0.018 OA 
BRANCH  37  38
HETATM   38  C   UNL     1      -8.138   8.945  71.507  1.00  0.00    -0.071 C  
BRANCH  38  39
HETATM   39  C   UNL     1      -8.296   8.799  69.998  1.00  0.00    -0.127 C  
HETATM   40  O   UNL     1      -8.981   7.585  69.696  1.00  0.00    -0.141 OA 
HETATM   41  H   UNL     1      -9.080   7.494  68.756  1.00  0.00     0.000 HD 
ENDBRANCH  38  39
ENDBRANCH  37  38
ENDBRANCH  36  37
ENDBRANCH  35  36
ENDBRANCH  34  35
ENDBRANCH  33  34
ENDBRANCH  32  33
ENDBRANCH  31  32
ENDBRANCH  30  31
ENDBRANCH  29  30
ENDBRANCH  28  29
ENDBRANCH  27  28
ENDBRANCH  26  27
ENDBRANCH  25  26
ENDBRANCH  24  25
ENDBRANCH  23  24
ENDBRANCH  22  23
ENDBRANCH  21  22
ENDBRANCH  20  21
ENDBRANCH  19  20
ENDBRANCH  18  19
ENDBRANCH  17  18
ENDBRANCH  16  17
ENDBRANCH  15  16
ENDBRANCH  14  15
ENDBRANCH  13  14
ENDBRANCH  12  13
ENDBRANCH  11  12
ENDBRANCH  10  11
ENDBRANCH   9  10
ENDBRANCH   8   9
ENDBRANCH   7   8
ENDBRANCH   6   7
ENDBRANCH   5   6
ENDBRANCH   4   5
ENDBRANCH   3   4
ENDBRANCH   2   3
TORSDOF 37
ENDMDL
MODEL      236
REMARK 921   NORMALIZED FREE ENERGY PREDICTED BY IDOCK:    1.50 KCAL/MOL
REMARK 922        TOTAL FREE ENERGY PREDICTED BY IDOCK:    1.11 KCAL/MOL
REMARK 923 INTER-LIGAND FREE ENERGY PREDICTED BY IDOCK:   -0.33 KCAL/MOL
REMARK 924 INTRA-LIGAND FREE ENERGY PREDICTED BY IDOCK:    1.44 KCAL/MOL
REMARK 927      BINDING AFFINITY PREDICTED BY RF-SCORE:    0.00 PKD
ROOT
HETATM    1  C   UNL     1      -8.356  11.298  64.693  1.00  0.00     0.506 C  
HETATM    2  C   UNL     1      -9.752  11.197  65.284  1.00  0.00    -0.285 C  
ENDROOT
BRANCH   2   3
HETATM    3  C   UNL     1     -10.761  10.740  64.234  1.00  0.00    -0.096 C  
BRANCH   3   4
HETATM    4  C   UNL     1     -11.875  11.768  64.052  1.00  0.00    -0.402 C  
BRANCH   4   5
HETATM    5  C   UNL     1     -11.625  12.996  64.924  1.00  0.00    -0.362 C  
BRANCH   5   6
HETATM    6  C   UNL     1     -12.509  14.160  64.492  1.00  0.00    -0.350 C  
BRANCH   6   7
HETATM    7  C   UNL     1     -12.752  15.114  65.657  1.00  0.00     0.705 C  
BRANCH   7   8
HETATM    8  C   UNL     1     -11.688  14.933  66.731  1.00  0.00    -0.243 C  
BRANCH   8   9
HETATM    9  C   UNL     1     -11.619  16.154  67.643  1.00  0.00     0.149 C  
BRANCH   9  10
HETATM   10  C   UNL     1     -10.600  17.152  67.110  1.00  0.00    -0.244 C  
BRANCH  10  11
HETATM   11  C   UNL     1      -9.370  17.214  68.003  1.00  0.00    -0.254 C  
BRANCH  11  12
HETATM   12  C   UNL     1      -8.120  16.882  67.205  1.00  0.00    -0.188 C  
BRANCH  12  13
HETATM   13  O   UNL     1      -7.905  15.478  67.283  1.00  0.00    -0.167 OA 
BRANCH  13  14
HETATM   14  C   UNL     1      -9.015  14.833  67.898  1.00  0.00    -0.172 C  
BRANCH  14  15
HETATM   15  C   UNL     1      -8.769  14.730  69.393  1.00  0.00     0.038 C  
BRANCH  15  16
HETATM   16  O   UNL     1      -8.006  13.554  69.638  1.00  0.00     0.666 OA 
BRANCH  16  17
HETATM   17  C   UNL     1      -6.610  13.815  69.554  1.00  0.00    -0.081 C  
BRANCH  17  18
HETATM   18  C   UNL     1      -5.859  12.525  69.845  1.00  0.00    -0.134 C  
BRANCH  18  19
HETATM   19  O   UNL     1      -5.165  12.665  71.078  1.00  0.00    -0.140 OA 
BRANCH  19  20
HETATM   20  C   UNL     1      -5.574  13.841  71.780  1.00  0.00    -0.180 C  
BRANCH  20  21
HETATM   21  C   UNL     1      -5.882  13.462  73.224  1.00  0.00     0.857 C  
BRANCH  21  22
HETATM   22  O   UNL     1      -5.284  12.192  73.502  1.00  0.00    -0.238 OA 
BRANCH  22  23
HETATM   23  C   UNL     1      -6.122  11.119  73.089  1.00  0.00     2.918 C  
BRANCH  23  24
HETATM   24  C   UNL     1      -5.263   9.889  72.841  1.00  0.00     0.045 C  
BRANCH  24  25
HETATM   25  O   UNL     1      -5.958   8.741  73.320  1.00  0.00    -0.104 OA 
BRANCH  25  26
HETATM   26  C   UNL     1      -7.314   8.742  72.891  1.00  0.00     0.208 C  
BRANCH  26  27
HETATM   27  C   UNL     1      -7.370   8.283  71.441  1.00  0.00    -0.083 C  
BRANCH  27  28
HETATM   28  O   UNL     1      -8.680   7.804  71.154  1.00  0.00    -0.131 OA 
BRANCH  28  29
HETATM   29  C   UNL     1      -9.359   8.677  70.257  1.00  0.00    -0.167 C  
BRANCH  29  30
HETATM   30  C   UNL     1     -10.769   8.914  70.773  1.00  0.00    -0.233 C  
BRANCH  30  31
HETATM   31  O   UNL     1     -11.554   9.484  69.730  1.00  0.00    -0.092 OA 
BRANCH  31  32
HETATM   32  C   UNL     1     -12.510  10.407  70.247  1.00  0.00    -0.223 C  
BRANCH  32  33
HETATM   33  C   UNL     1     -12.007  11.824  70.011  1.00  0.00    -0.344 C  
BRANCH  33  34
HETATM   34  O   UNL     1     -13.004  12.751  70.431  1.00  0.00     0.136 OA 
BRANCH  34  35
HETATM   35  C   UNL     1     -12.543  13.555  71.513  1.00  0.00    -0.266 C  
BRANCH  35  36
HETATM   36  C   UNL     1     -13.357  13.223  72.756  1.00  0.00    -0.115 C  
BRANCH  36  37
HETATM   37  O   UNL     1     -13.878  14.424  73.326  1.00  0.00    -0.316 OA 
BRANCH  37  38
HETATM   38  C   UNL     1     -13.392  15.576  72.625  1.00  0.00    -0.522 C  
BRANCH  38  39
HETATM   39  C   UNL     1     -12.087  16.017  73.278  1.00  0.00    -0.500 C  
HETATM   40  O   UNL     1     -11.788  17.362  72.906  1.00  0.00     0.077 OA 
HETATM   41  H   UNL     1     -10.976  17.637  73.313  1.00  0.00     0.000 HD 
ENDBRANCH  38  39
ENDBRANCH  37  38
ENDBRANCH  36  37
ENDBRANCH  35  36
ENDBRANCH  34  35
ENDBRANCH  33  34
ENDBRANCH  32  33
ENDBRANCH  31  32
ENDBRANCH  30  31
ENDBRANCH  29  30
ENDBRANCH  28  29
ENDBRANCH  27  28
ENDBRANCH  26  27
ENDBRANCH  25  26
ENDBRANCH  24  25
ENDBRANCH  23  24
ENDBRANCH  22  23
ENDBRANCH  21  22
ENDBRANCH  20  21
ENDBRANCH  19  20
ENDBRANCH  18  19
ENDBRANCH  17  18
ENDBRANCH  16  17
ENDBRANCH  15  16
ENDBRANCH  14  15
ENDBRANCH  13  14
ENDBRANCH  12  13
ENDBRANCH  11  12
ENDBRANCH  10  11
ENDBRANCH   9  10
ENDBRANCH   8   9
ENDBRANCH   7   8
ENDBRANCH   6   7
ENDBRANCH   5   6
ENDBRANCH   4   5
ENDBRANCH   3   4
ENDBRANCH   2   3
TORSDOF 37
ENDMDL
MODEL      237
REMARK 921   NORMALIZED FREE ENERGY PREDICTED BY IDOCK:    1.70 KCAL/MOL
REMARK 922        TOTAL FREE ENERGY PREDICTED BY IDOCK:    1.77 KCAL/MOL
REMARK 923 INTER-LIGAND FREE ENERGY PREDICTED BY IDOCK:   -1.85 KCAL/MOL
REMARK 924 INTRA-LIGAND FREE ENERGY PREDICTED BY IDOCK:    3.62 KCAL/MOL
REMARK 927      BINDING AFFINITY PREDICTED BY RF-SCORE:    0.00 PKD
ROOT
HETATM    1  C   UNL     1     -11.206  18.255  74.480  1.00  0.00     1.870 C  
HETATM    2  C   UNL     1     -11.785  17.453  73.327  1.00  0.00     0.815 C  
ENDROOT
BRANCH   2   3
HETATM    3  C   UNL     1     -12.669  16.319  73.837  1.00  0.00    -0.586 C  
BRANCH   3   4
HETATM    4  C   UNL     1     -11.914  14.992  73.853  1.00  0.00    -0.460 C  
BRANCH   4   5
HETATM    5  C   UNL     1     -11.566  14.550  72.434  1.00  0.00     0.343 C  
BRANCH   5   6
HETATM    6  C   UNL     1     -11.904  15.641  71.425  1.00  0.00    -0.482 C  
BRANCH   6   7
HETATM    7  C   UNL     1     -11.751  15.123  69.999  1.00  0.00    -0.341 C  
BRANCH   7   8
HETATM    8  C   UNL     1     -11.995  13.621  69.944  1.00  0.00    -0.415 C  
BRANCH   8   9
HETATM    9  C   UNL     1     -12.650  13.222  68.625  1.00  0.00     0.643 C  
BRANCH   9  10
HETATM   10  C   UNL     1     -12.229  14.180  67.518  1.00  0.00    -0.258 C  
BRANCH  10  11
HETATM   11  C   UNL     1     -10.715  14.312  67.451  1.00  0.00    -0.282 C  
BRANCH  11  12
HETATM   12  C   UNL     1     -10.155  13.426  66.351  1.00  0.00    -0.292 C  
BRANCH  12  13
HETATM   13  O   UNL     1     -11.221  13.082  65.475  1.00  0.00    -0.284 OA 
BRANCH  13  14
HETATM   14  C   UNL     1     -11.774  11.818  65.828  1.00  0.00    -0.018 C  
BRANCH  14  15
HETATM   15  C   UNL     1     -10.647  10.833  66.085  1.00  0.00    -0.175 C  
BRANCH  15  16
HETATM   16  O   UNL     1      -9.490  11.291  65.393  1.00  0.00    -0.218 OA 
BRANCH  16  17
HETATM   17  C   UNL     1      -9.441  10.773  64.068  1.00  0.00    -0.272 C  
BRANCH  17  18
HETATM   18  C   UNL     1      -8.118  10.047  63.883  1.00  0.00    -0.152 C  
BRANCH  18  19
HETATM   19  O   UNL     1      -8.248   8.721  64.380  1.00  0.00    -0.155 OA 
BRANCH  19  20
HETATM   20  C   UNL     1      -8.339   8.702  65.806  1.00  0.00    -0.144 C  
BRANCH  20  21
HETATM   21  C   UNL     1      -6.939   8.527  66.380  1.00  0.00    -0.078 C  
BRANCH  21  22
HETATM   22  O   UNL     1      -6.775   9.435  67.473  1.00  0.00    -0.067 OA 
BRANCH  22  23
HETATM   23  C   UNL     1      -7.815   9.288  68.433  1.00  0.00    -0.094 C  
BRANCH  23  24
HETATM   24  C   UNL     1      -7.213   8.804  69.743  1.00  0.00    -0.051 C  
BRANCH  24  25
HETATM   25  O   UNL     1      -6.339   7.711  69.469  1.00  0.00    -0.031 OA 
BRANCH  25  26
HETATM   26  C   UNL     1      -6.280   6.810  70.568  1.00  0.00    -0.031 C  
BRANCH  26  27
HETATM   27  C   UNL     1      -5.668   5.500  70.094  1.00  0.00    -0.020 C  
BRANCH  27  28
HETATM   28  O   UNL     1      -6.333   4.417  70.736  1.00  0.00    -0.024 OA 
BRANCH  28  29
HETATM   29  C   UNL     1      -7.306   3.830  69.878  1.00  0.00    -0.042 C  
BRANCH  29  30
HETATM   30  C   UNL     1      -6.723   3.714  68.479  1.00  0.00    -0.046 C  
BRANCH  30  31
HETATM   31  O   UNL     1      -7.773   3.852  67.527  1.00  0.00    -0.074 OA 
BRANCH  31  32
HETATM   32  C   UNL     1      -7.761   2.783  66.584  1.00  0.00    -0.076 C  
BRANCH  32  33
HETATM   33  C   UNL     1      -6.672   3.044  65.554  1.00  0.00    -0.040 C  
BRANCH  33  34
HETATM   34  O   UNL     1      -7.002   4.213  64.809  1.00  0.00    -0.048 OA 
BRANCH  34  35
HETATM   35  C   UNL     1      -7.285   3.900  63.448  1.00  0.00    -0.050 C  
BRANCH  35  36
HETATM   36  C   UNL     1      -6.932   5.102  62.582  1.00  0.00    -0.030 C  
BRANCH  36  37
HETATM   37  O   UNL     1      -6.238   6.073  63.366  1.00  0.00    -0.024 OA 
BRANCH  37  38
HETATM   38  C   UNL     1      -6.426   7.390  62.832  1.00  0.00    -0.054 C  
BRANCH  38  39
HETATM   39  C   UNL     1      -5.142   8.183  63.051  1.00  0.00    -0.050 C  
HETATM   40  O   UNL     1      -5.308   9.084  64.145  1.00  0.00    -0.058 OA 
HETATM   41  H   UNL     1      -4.509   9.578  64.281  1.00  0.00     0.000 HD 
ENDBRANCH  38  39
ENDBRANCH  37  38
ENDBRANCH  36  37
ENDBRANCH  35  36
ENDBRANCH  34  35
ENDBRANCH  33  34
ENDBRANCH  32  33
ENDBRANCH  31  32
ENDBRANCH  30  31
ENDBRANCH  29  30
ENDBRANCH  28  29
ENDBRANCH  27  28
ENDBRANCH  26  27
ENDBRANCH  25  26
ENDBRANCH  24  25
ENDBRANCH  23  24
ENDBRANCH  22  23
ENDBRANCH  21  22
ENDBRANCH  20  21
ENDBRANCH  19  20
ENDBRANCH  18  19
ENDBRANCH  17  18
ENDBRANCH  16  17
ENDBRANCH  15  16
ENDBRANCH  14  15
ENDBRANCH  13  14
ENDBRANCH  12  13
ENDBRANCH  11  12
ENDBRANCH  10  11
ENDBRANCH   9  10
ENDBRANCH   8   9
ENDBRANCH   7   8
ENDBRANCH   6   7
ENDBRANCH   5   6
ENDBRANCH   4   5
ENDBRANCH   3   4
ENDBRANCH   2   3
TORSDOF 37
ENDMDL
MODEL      238
REMARK 921   NORMALIZED FREE ENERGY PREDICTED BY IDOCK:    2.44 KCAL/MOL
REMARK 922        TOTAL FREE ENERGY PREDICTED BY IDOCK:    4.11 KCAL/MOL
REMARK 923 INTER-LIGAND FREE ENERGY PREDICTED BY IDOCK:   -1.33 KCAL/MOL
REMARK 924 INTRA-LIGAND FREE ENERGY PREDICTED BY IDOCK:    5.44 KCAL/MOL
REMARK 927      BINDING AFFINITY PREDICTED BY RF-SCORE:    0.00 PKD
ROOT
HETATM    1  C   UNL     1      -8.461  11.405  64.296  1.00  0.00     0.634 C  
HETATM    2  C   UNL     1      -9.768  11.146  65.025  1.00  0.00    -0.298 C  
ENDROOT
BRANCH   2   3
HETATM    3  C   UNL     1     -10.835  10.622  64.068  1.00  0.00     0.370 C  
BRANCH   3   4
HETATM    4  C   UNL     1     -12.061  11.533  64.054  1.00  0.00    -0.079 C  
BRANCH   4   5
HETATM    5  C   UNL     1     -11.823  12.773  64.913  1.00  0.00    -0.424 C  
BRANCH   5   6
HETATM    6  C   UNL     1     -12.904  13.820  64.669  1.00  0.00    -0.059 C  
BRANCH   6   7
HETATM    7  C   UNL     1     -13.006  14.777  65.852  1.00  0.00     0.530 C  
BRANCH   7   8
HETATM    8  C   UNL     1     -11.766  14.677  66.732  1.00  0.00    -0.355 C  
BRANCH   8   9
HETATM    9  C   UNL     1     -11.546  15.968  67.512  1.00  0.00     0.162 C  
BRANCH   9  10
HETATM   10  C   UNL     1     -10.645  16.911  66.725  1.00  0.00    -0.201 C  
BRANCH  10  11
HETATM   11  C   UNL     1      -9.230  16.916  67.284  1.00  0.00    -0.231 C  
BRANCH  11  12
HETATM   12  C   UNL     1      -8.247  16.417  66.239  1.00  0.00    -0.308 C  
BRANCH  12  13
HETATM   13  O   UNL     1      -8.277  14.995  66.247  1.00  0.00     0.132 OA 
BRANCH  13  14
HETATM   14  C   UNL     1      -9.403  14.520  66.977  1.00  0.00    -0.238 C  
BRANCH  14  15
HETATM   15  C   UNL     1      -9.026  14.380  68.441  1.00  0.00    -0.188 C  
BRANCH  15  16
HETATM   16  O   UNL     1      -8.381  13.124  68.617  1.00  0.00    -0.099 OA 
BRANCH  16  17
HETATM   17  C   UNL     1      -6.995  13.206  68.305  1.00  0.00    -0.105 C  
BRANCH  17  18
HETATM   18  C   UNL     1      -6.354  11.859  68.600  1.00  0.00    -0.058 C  
BRANCH  18  19
HETATM   19  O   UNL     1      -5.462  12.005  69.698  1.00  0.00    -0.068 OA 
BRANCH  19  20
HETATM   20  C   UNL     1      -5.621  13.273  70.338  1.00  0.00    -0.158 C  
BRANCH  20  21
HETATM   21  C   UNL     1      -5.894  13.040  71.818  1.00  0.00     0.677 C  
BRANCH  21  22
HETATM   22  O   UNL     1      -5.314  11.789  72.200  1.00  0.00    -0.331 OA 
BRANCH  22  23
HETATM   23  C   UNL     1      -6.098  10.691  71.750  1.00  0.00     0.915 C  
BRANCH  23  24
HETATM   24  C   UNL     1      -5.204   9.468  71.617  1.00  0.00    -0.068 C  
BRANCH  24  25
HETATM   25  O   UNL     1      -6.016   8.298  71.682  1.00  0.00    -0.035 OA 
BRANCH  25  26
HETATM   26  C   UNL     1      -7.082   8.356  70.743  1.00  0.00    -0.050 C  
BRANCH  26  27
HETATM   27  C   UNL     1      -6.519   8.126  69.348  1.00  0.00    -0.035 C  
BRANCH  27  28
HETATM   28  O   UNL     1      -7.436   7.332  68.602  1.00  0.00    -0.097 OA 
BRANCH  28  29
HETATM   29  C   UNL     1      -8.158   8.125  67.665  1.00  0.00    -0.127 C  
BRANCH  29  30
HETATM   30  C   UNL     1      -9.640   7.812  67.793  1.00  0.00    -0.146 C  
BRANCH  30  31
HETATM   31  O   UNL     1     -10.348   8.493  66.762  1.00  0.00    -0.295 OA 
BRANCH  31  32
HETATM   32  C   UNL     1     -11.529   9.111  67.266  1.00  0.00     1.581 C  
BRANCH  32  33
HETATM   33  C   UNL     1     -11.242  10.581  67.534  1.00  0.00    -0.224 C  
BRANCH  33  34
HETATM   34  O   UNL     1     -12.318  11.139  68.284  1.00  0.00    -0.532 OA 
BRANCH  34  35
HETATM   35  C   UNL     1     -11.894  11.534  69.586  1.00  0.00    -0.354 C  
BRANCH  35  36
HETATM   36  C   UNL     1     -10.473  11.036  69.815  1.00  0.00     0.075 C  
BRANCH  36  37
HETATM   37  O   UNL     1     -10.506   9.693  70.302  1.00  0.00    -0.242 OA 
BRANCH  37  38
HETATM   38  C   UNL     1     -11.814   9.356  70.783  1.00  0.00    -0.256 C  
BRANCH  38  39
HETATM   39  C   UNL     1     -11.707   9.028  72.269  1.00  0.00    -0.213 C  
HETATM   40  O   UNL     1     -13.010   8.846  72.820  1.00  0.00    -0.528 OA 
HETATM   41  H   UNL     1     -12.944   8.641  73.745  1.00  0.00     0.000 HD 
ENDBRANCH  38  39
ENDBRANCH  37  38
ENDBRANCH  36  37
ENDBRANCH  35  36
ENDBRANCH  34  35
ENDBRANCH  33  34
ENDBRANCH  32  33
ENDBRANCH  31  32
ENDBRANCH  30  31
ENDBRANCH  29  30
ENDBRANCH  28  29
ENDBRANCH  27  28
ENDBRANCH  26  27
ENDBRANCH  25  26
ENDBRANCH  24  25
ENDBRANCH  23  24
ENDBRANCH  22  23
ENDBRANCH  21  22
ENDBRANCH  20  21
ENDBRANCH  19  20
ENDBRANCH  18  19
ENDBRANCH  17  18
ENDBRANCH  16  17
ENDBRANCH  15  16
ENDBRANCH  14  15
ENDBRANCH  13  14
ENDBRANCH  12  13
ENDBRANCH  11  12
ENDBRANCH  10  11
ENDBRANCH   9  10
ENDBRANCH   8   9
ENDBRANCH   7   8
ENDBRANCH   6   7
ENDBRANCH   5   6
ENDBRANCH   4   5
ENDBRANCH   3   4
ENDBRANCH   2   3
TORSDOF 37
ENDMDL
MODEL      239
REMARK 921   NORMALIZED FREE ENERGY PREDICTED BY IDOCK:    2.48 KCAL/MOL
REMARK 922        TOTAL FREE ENERGY PREDICTED BY IDOCK:    4.23 KCAL/MOL
REMARK 923 INTER-LIGAND FREE ENERGY PREDICTED BY IDOCK:   -5.19 KCAL/MOL
REMARK 924 INTRA-LIGAND FREE ENERGY PREDICTED BY IDOCK:    9.43 KCAL/MOL
REMARK 927      BINDING AFFINITY PREDICTED BY RF-SCORE:    0.00 PKD
ROOT
HETATM    1  C   UNL     1     -12.926  14.432  67.302  1.00  0.00     1.645 C  
HETATM    2  C   UNL     1     -12.070  13.406  66.580  1.00  0.00    -0.444 C  
ENDROOT
BRANCH   2   3
HETATM    3  C   UNL     1     -10.944  14.082  65.802  1.00  0.00    -0.294 C  
BRANCH   3   4
HETATM    4  C   UNL     1     -10.078  13.053  65.078  1.00  0.00    -0.234 C  
BRANCH   4   5
HETATM    5  C   UNL     1     -10.899  12.285  64.046  1.00  0.00    -0.439 C  
BRANCH   5   6
HETATM    6  C   UNL     1     -10.304  10.905  63.794  1.00  0.00    -0.384 C  
BRANCH   6   7
HETATM    7  C   UNL     1      -9.398  10.923  62.567  1.00  0.00    -0.308 C  
BRANCH   7   8
HETATM    8  C   UNL     1      -8.061  10.262  62.877  1.00  0.00    -0.156 C  
BRANCH   8   9
HETATM    9  C   UNL     1      -8.029   8.828  62.359  1.00  0.00    -0.145 C  
BRANCH   9  10
HETATM   10  C   UNL     1      -7.975   7.848  63.524  1.00  0.00    -0.126 C  
BRANCH  10  11
HETATM   11  C   UNL     1      -8.212   8.556  64.850  1.00  0.00    -0.166 C  
BRANCH  11  12
HETATM   12  C   UNL     1      -7.252   9.723  65.005  1.00  0.00    -0.127 C  
BRANCH  12  13
HETATM   13  O   UNL     1      -7.840  10.663  65.896  1.00  0.00    -0.151 OA 
BRANCH  13  14
HETATM   14  C   UNL     1      -6.845  11.271  66.713  1.00  0.00    -0.140 C  
BRANCH  14  15
HETATM   15  C   UNL     1      -5.533  10.528  66.539  1.00  0.00    -0.061 C  
BRANCH  15  16
HETATM   16  O   UNL     1      -5.424   9.568  67.584  1.00  0.00    -0.037 OA 
BRANCH  16  17
HETATM   17  C   UNL     1      -6.481   9.707  68.527  1.00  0.00    -0.051 C  
BRANCH  17  18
HETATM   18  C   UNL     1      -6.717  11.189  68.771  1.00  0.00    -0.067 C  
BRANCH  18  19
HETATM   19  O   UNL     1      -7.638  11.337  69.844  1.00  0.00     0.234 OA 
BRANCH  19  20
HETATM   20  C   UNL     1      -8.656  10.335  69.804  1.00  0.00    -0.056 C  
BRANCH  20  21
HETATM   21  C   UNL     1      -8.509   9.443  71.031  1.00  0.00     0.029 C  
BRANCH  21  22
HETATM   22  O   UNL     1      -7.121   9.153  71.222  1.00  0.00    -0.173 OA 
BRANCH  22  23
HETATM   23  C   UNL     1      -6.936   8.027  72.072  1.00  0.00    -0.075 C  
BRANCH  23  24
HETATM   24  C   UNL     1      -8.277   7.639  72.676  1.00  0.00    -0.119 C  
BRANCH  24  25
HETATM   25  O   UNL     1      -8.709   6.417  72.084  1.00  0.00    -0.132 OA 
BRANCH  25  26
HETATM   26  C   UNL     1      -8.781   5.373  73.047  1.00  0.00    -0.121 C  
BRANCH  26  27
HETATM   27  C   UNL     1      -8.217   4.100  72.434  1.00  0.00    -0.099 C  
BRANCH  27  28
HETATM   28  O   UNL     1      -9.292   3.298  71.956  1.00  0.00    -0.107 OA 
BRANCH  28  29
HETATM   29  C   UNL     1     -10.515   3.642  72.599  1.00  0.00    -0.109 C  
BRANCH  29  30
HETATM   30  C   UNL     1     -10.367   5.014  73.237  1.00  0.00    -0.191 C  
BRANCH  30  31
HETATM   31  O   UNL     1     -11.646   5.638  73.294  1.00  0.00    -0.126 OA 
BRANCH  31  32
HETATM   32  C   UNL     1     -12.078   6.052  72.001  1.00  0.00    -0.109 C  
BRANCH  32  33
HETATM   33  C   UNL     1     -12.328   7.553  72.019  1.00  0.00    -0.271 C  
BRANCH  33  34
HETATM   34  O   UNL     1     -11.995   8.099  70.746  1.00  0.00    -0.238 OA 
BRANCH  34  35
HETATM   35  C   UNL     1     -12.626   9.360  70.539  1.00  0.00     0.179 C  
BRANCH  35  36
HETATM   36  C   UNL     1     -13.097   9.902  71.881  1.00  0.00    -0.459 C  
BRANCH  36  37
HETATM   37  O   UNL     1     -12.957  11.323  71.903  1.00  0.00    -0.456 OA 
BRANCH  37  38
HETATM   38  C   UNL     1     -12.266  11.786  70.736  1.00  0.00    -0.326 C  
BRANCH  38  39
HETATM   39  C   UNL     1     -12.275  13.311  70.747  1.00  0.00    -0.308 C  
HETATM   40  O   UNL     1     -11.149  13.809  70.027  1.00  0.00    -0.472 OA 
HETATM   41  H   UNL     1     -11.155  14.759  70.034  1.00  0.00     0.000 HD 
ENDBRANCH  38  39
ENDBRANCH  37  38
ENDBRANCH  36  37
ENDBRANCH  35  36
ENDBRANCH  34  35
ENDBRANCH  33  34
ENDBRANCH  32  33
ENDBRANCH  31  32
ENDBRANCH  30  31
ENDBRANCH  29  30
ENDBRANCH  28  29
ENDBRANCH  27  28
ENDBRANCH  26  27
ENDBRANCH  25  26
ENDBRANCH  24  25
ENDBRANCH  23  24
ENDBRANCH  22  23
ENDBRANCH  21  22
ENDBRANCH  20  21
ENDBRANCH  19  20
ENDBRANCH  18  19
ENDBRANCH  17  18
ENDBRANCH  16  17
ENDBRANCH  15  16
ENDBRANCH  14  15
ENDBRANCH  13  14
ENDBRANCH  12  13
ENDBRANCH  11  12
ENDBRANCH  10  11
ENDBRANCH   9  10
ENDBRANCH   8   9
ENDBRANCH   7   8
ENDBRANCH   6   7
ENDBRANCH   5   6
ENDBRANCH   4   5
ENDBRANCH   3   4
ENDBRANCH   2   3
TORSDOF 37
ENDMDL
MODEL      240
REMARK 921   NORMALIZED FREE ENERGY PREDICTED BY IDOCK:    3.03 KCAL/MOL
REMARK 922        TOTAL FREE ENERGY PREDICTED BY IDOCK:    5.98 KCAL/MOL
REMARK 923 INTER-LIGAND FREE ENERGY PREDICTED BY IDOCK:    0.65 KCAL/MOL
REMARK 924 INTRA-LIGAND FREE ENERGY PREDICTED BY IDOCK:    5.33 KCAL/MOL
REMARK 927      BINDING AFFINITY PREDICTED BY RF-SCORE:    0.00 PKD
ROOT
HETATM    1  C   UNL     1     -11.077  18.583  74.412  1.00  0.00     2.420 C  
HETATM    2  C   UNL     1     -11.490  18.143  73.018  1.00  0.00     2.330 C  
ENDROOT
BRANCH   2   3
HETATM    3  C   UNL     1     -12.512  17.011  73.081  1.00  0.00     0.690 C  
BRANCH   3   4
HETATM    4  C   UNL     1     -11.830  15.646  73.019  1.00  0.00    -0.558 C  
BRANCH   4   5
HETATM    5  C   UNL     1     -11.121  15.455  71.681  1.00  0.00    -0.273 C  
BRANCH   5   6
HETATM    6  C   UNL     1     -11.033  16.772  70.918  1.00  0.00     0.450 C  
BRANCH   6   7
HETATM    7  C   UNL     1     -10.788  16.520  69.434  1.00  0.00    -0.311 C  
BRANCH   7   8
HETATM    8  C   UNL     1     -11.398  15.192  69.007  1.00  0.00    -0.307 C  
BRANCH   8   9
HETATM    9  C   UNL     1     -12.062  15.311  67.639  1.00  0.00     0.235 C  
BRANCH   9  10
HETATM   10  C   UNL     1     -11.289  16.287  66.762  1.00  0.00     0.371 C  
BRANCH  10  11
HETATM   11  C   UNL     1      -9.833  15.871  66.625  1.00  0.00    -0.267 C  
BRANCH  11  12
HETATM   12  C   UNL     1      -9.693  14.773  65.584  1.00  0.00    -0.278 C  
BRANCH  12  13
HETATM   13  O   UNL     1     -10.944  14.629  64.922  1.00  0.00    -0.374 OA 
BRANCH  13  14
HETATM   14  C   UNL     1     -11.864  13.910  65.736  1.00  0.00    -0.378 C  
BRANCH  14  15
HETATM   15  C   UNL     1     -11.183  12.669  66.284  1.00  0.00    -0.311 C  
BRANCH  15  16
HETATM   16  O   UNL     1     -10.217  12.235  65.333  1.00  0.00    -0.261 OA 
BRANCH  16  17
HETATM   17  C   UNL     1     -10.780  11.312  64.408  1.00  0.00    -0.339 C  
BRANCH  17  18
HETATM   18  C   UNL     1      -9.888  10.084  64.348  1.00  0.00    -0.133 C  
BRANCH  18  19
HETATM   19  O   UNL     1     -10.070   9.324  65.537  1.00  0.00    -0.150 OA 
BRANCH  19  20
HETATM   20  C   UNL     1      -9.469   9.964  66.665  1.00  0.00    -0.173 C  
BRANCH  20  21
HETATM   21  C   UNL     1      -8.036   9.465  66.800  1.00  0.00    -0.109 C  
BRANCH  21  22
HETATM   22  O   UNL     1      -7.180  10.587  67.028  1.00  0.00    -0.092 OA 
BRANCH  22  23
HETATM   23  C   UNL     1      -7.620  11.363  68.137  1.00  0.00    -0.114 C  
BRANCH  23  24
HETATM   24  C   UNL     1      -6.511  11.414  69.176  1.00  0.00    -0.085 C  
BRANCH  24  25
HETATM   25  O   UNL     1      -6.026  10.092  69.393  1.00  0.00    -0.037 OA 
BRANCH  25  26
HETATM   26  C   UNL     1      -5.490   9.947  70.702  1.00  0.00    -0.056 C  
BRANCH  26  27
HETATM   27  C   UNL     1      -5.292   8.466  70.990  1.00  0.00    -0.028 C  
BRANCH  27  28
HETATM   28  O   UNL     1      -5.593   8.213  72.358  1.00  0.00    -0.036 OA 
BRANCH  28  29
HETATM   29  C   UNL     1      -6.867   7.591  72.498  1.00  0.00    -0.064 C  
BRANCH  29  30
HETATM   30  C   UNL     1      -7.004   6.506  71.442  1.00  0.00    -0.075 C  
BRANCH  30  31
HETATM   31  O   UNL     1      -8.376   6.380  71.083  1.00  0.00    -0.121 OA 
BRANCH  31  32
HETATM   32  C   UNL     1      -8.794   5.017  71.103  1.00  0.00    -0.129 C  
BRANCH  32  33
HETATM   33  C   UNL     1      -8.226   4.308  69.882  1.00  0.00    -0.062 C  
BRANCH  33  34
HETATM   34  O   UNL     1      -8.736   4.924  68.703  1.00  0.00    -0.093 OA 
BRANCH  34  35
HETATM   35  C   UNL     1      -9.485   4.001  67.916  1.00  0.00    -0.173 C  
BRANCH  35  36
HETATM   36  C   UNL     1      -9.434   4.440  66.459  1.00  0.00    -0.177 C  
BRANCH  36  37
HETATM   37  O   UNL     1      -8.371   5.376  66.276  1.00  0.00    -0.112 OA 
BRANCH  37  38
HETATM   38  C   UNL     1      -8.656   6.265  65.188  1.00  0.00    -0.023 C  
BRANCH  38  39
HETATM   39  C   UNL     1      -7.334   6.690  64.558  1.00  0.00    -0.086 C  
HETATM   40  O   UNL     1      -6.984   8.000  65.001  1.00  0.00    -0.061 OA 
HETATM   41  H   UNL     1      -6.160   8.264  64.609  1.00  0.00     0.000 HD 
ENDBRANCH  38  39
ENDBRANCH  37  38
ENDBRANCH  36  37
ENDBRANCH  35  36
ENDBRANCH  34  35
ENDBRANCH  33  34
ENDBRANCH  32  33
ENDBRANCH  31  32
ENDBRANCH  30  31
ENDBRANCH  29  30
ENDBRANCH  28  29
ENDBRANCH  27  28
ENDBRANCH  26  27
ENDBRANCH  25  26
ENDBRANCH  24  25
ENDBRANCH  23  24
ENDBRANCH  22  23
ENDBRANCH  21  22
ENDBRANCH  20  21
ENDBRANCH  19  20
ENDBRANCH  18  19
ENDBRANCH  17  18
ENDBRANCH  16  17
ENDBRANCH  15  16
ENDBRANCH  14  15
ENDBRANCH  13  14
ENDBRANCH  12  13
ENDBRANCH  11  12
ENDBRANCH  10  11
ENDBRANCH   9  10
ENDBRANCH   8   9
ENDBRANCH   7   8
ENDBRANCH   6   7
ENDBRANCH   5   6
ENDBRANCH   4   5
ENDBRANCH   3   4
ENDBRANCH   2   3
TORSDOF 37
ENDMDL
MODEL      241
REMARK 921   NORMALIZED FREE ENERGY PREDICTED BY IDOCK:    3.05 KCAL/MOL
REMARK 922        TOTAL FREE ENERGY PREDICTED BY IDOCK:    6.03 KCAL/MOL
REMARK 923 INTER-LIGAND FREE ENERGY PREDICTED BY IDOCK:   -6.23 KCAL/MOL
REMARK 924 INTRA-LIGAND FREE ENERGY PREDICTED BY IDOCK:   12.26 KCAL/MOL
REMARK 927      BINDING AFFINITY PREDICTED BY RF-SCORE:    0.00 PKD
ROOT
HETATM    1  C   UNL     1     -13.129  14.202  66.158  1.00  0.00     0.393 C  
HETATM    2  C   UNL     1     -12.168  13.139  65.656  1.00  0.00    -0.521 C  
ENDROOT
BRANCH   2   3
HETATM    3  C   UNL     1     -10.922  13.771  65.042  1.00  0.00    -0.359 C  
BRANCH   3   4
HETATM    4  C   UNL     1      -9.903  12.708  64.639  1.00  0.00    -0.063 C  
BRANCH   4   5
HETATM    5  C   UNL     1     -10.486  11.771  63.585  1.00  0.00    -0.490 C  
BRANCH   5   6
HETATM    6  C   UNL     1      -9.715  10.457  63.538  1.00  0.00    -0.333 C  
BRANCH   6   7
HETATM    7  C   UNL     1      -8.702  10.466  62.398  1.00  0.00    -0.262 C  
BRANCH   7   8
HETATM    8  C   UNL     1      -7.408   9.784  62.824  1.00  0.00    -0.120 C  
BRANCH   8   9
HETATM    9  C   UNL     1      -7.396   8.321  62.396  1.00  0.00    -0.097 C  
BRANCH   9  10
HETATM   10  C   UNL     1      -7.476   7.414  63.617  1.00  0.00    -0.104 C  
BRANCH  10  11
HETATM   11  C   UNL     1      -7.855   8.201  64.863  1.00  0.00    -0.128 C  
BRANCH  11  12
HETATM   12  C   UNL     1      -6.829   9.288  65.134  1.00  0.00    -0.082 C  
BRANCH  12  13
HETATM   13  O   UNL     1      -7.413  10.236  66.019  1.00  0.00    -0.115 OA 
BRANCH  13  14
HETATM   14  C   UNL     1      -6.427  10.784  66.889  1.00  0.00    -0.090 C  
BRANCH  14  15
HETATM   15  C   UNL     1      -5.125  10.024  66.712  1.00  0.00    -0.040 C  
BRANCH  15  16
HETATM   16  O   UNL     1      -5.135   8.913  67.602  1.00  0.00    -0.033 OA 
BRANCH  16  17
HETATM   17  C   UNL     1      -6.242   8.974  68.494  1.00  0.00    -0.049 C  
BRANCH  17  18
HETATM   18  C   UNL     1      -6.343  10.389  69.041  1.00  0.00    -0.044 C  
BRANCH  18  19
HETATM   19  O   UNL     1      -7.208  10.386  70.169  1.00  0.00    -0.160 OA 
BRANCH  19  20
HETATM   20  C   UNL     1      -8.411   9.660  69.906  1.00  0.00    -0.183 C  
BRANCH  20  21
HETATM   21  C   UNL     1      -8.158   8.183  70.186  1.00  0.00    -0.113 C  
BRANCH  21  22
HETATM   22  O   UNL     1      -7.322   7.658  69.150  1.00  0.00    -0.084 OA 
BRANCH  22  23
HETATM   23  C   UNL     1      -7.461   6.247  69.034  1.00  0.00    -0.091 C  
BRANCH  23  24
HETATM   24  C   UNL     1      -8.142   5.712  70.285  1.00  0.00    -0.104 C  
BRANCH  24  25
HETATM   25  O   UNL     1      -9.019   4.653  69.911  1.00  0.00    -0.090 OA 
BRANCH  25  26
HETATM   26  C   UNL     1      -8.422   3.383  70.143  1.00  0.00    -0.056 C  
BRANCH  26  27
HETATM   27  C   UNL     1      -9.177   2.333  69.342  1.00  0.00    -0.120 C  
BRANCH  27  28
HETATM   28  O   UNL     1     -10.108   1.676  70.197  1.00  0.00     0.193 OA 
BRANCH  28  29
HETATM   29  C   UNL     1      -9.756   1.846  71.566  1.00  0.00    -0.147 C  
BRANCH  29  30
HETATM   30  C   UNL     1      -8.459   2.636  71.647  1.00  0.00    -0.064 C  
BRANCH  30  31
HETATM   31  O   UNL     1      -8.282   3.098  72.982  1.00  0.00    -0.076 OA 
BRANCH  31  32
HETATM   32  C   UNL     1      -9.535   3.321  73.624  1.00  0.00    -0.102 C  
BRANCH  32  33
HETATM   33  C   UNL     1      -9.826   4.814  73.636  1.00  0.00    -0.143 C  
BRANCH  33  34
HETATM   34  O   UNL     1     -11.236   5.016  73.701  1.00  0.00    -0.315 OA 
BRANCH  34  35
HETATM   35  C   UNL     1     -11.702   5.786  72.596  1.00  0.00    -0.203 C  
BRANCH  35  36
HETATM   36  C   UNL     1     -11.424   7.258  72.867  1.00  0.00    -0.183 C  
BRANCH  36  37
HETATM   37  O   UNL     1     -12.086   8.061  71.889  1.00  0.00    -0.288 OA 
BRANCH  37  38
HETATM   38  C   UNL     1     -11.431   9.327  71.739  1.00  0.00    -0.378 C  
BRANCH  38  39
HETATM   39  C   UNL     1     -12.411  10.300  71.093  1.00  0.00    -0.391 C  
HETATM   40  O   UNL     1     -13.606   9.613  70.724  1.00  0.00    -0.596 OA 
HETATM   41  H   UNL     1     -14.216  10.219  70.322  1.00  0.00     0.000 HD 
ENDBRANCH  38  39
ENDBRANCH  37  38
ENDBRANCH  36  37
ENDBRANCH  35  36
ENDBRANCH  34  35
ENDBRANCH  33  34
ENDBRANCH  32  33
ENDBRANCH  31  32
ENDBRANCH  30  31
ENDBRANCH  29  30
ENDBRANCH  28  29
ENDBRANCH  27  28
ENDBRANCH  26  27
ENDBRANCH  25  26
ENDBRANCH  24  25
ENDBRANCH  23  24
ENDBRANCH  22  23
ENDBRANCH  21  22
ENDBRANCH  20  21
ENDBRANCH  19  20
ENDBRANCH  18  19
ENDBRANCH  17  18
ENDBRANCH  16  17
ENDBRANCH  15  16
ENDBRANCH  14  15
ENDBRANCH  13  14
ENDBRANCH  12  13
ENDBRANCH  11  12
ENDBRANCH  10  11
ENDBRANCH   9  10
ENDBRANCH   8   9
ENDBRANCH   7   8
ENDBRANCH   6   7
ENDBRANCH   5   6
ENDBRANCH   4   5
ENDBRANCH   3   4
ENDBRANCH   2   3
TORSDOF 37
ENDMDL
MODEL      242
REMARK 921   NORMALIZED FREE ENERGY PREDICTED BY IDOCK:    3.19 KCAL/MOL
REMARK 922        TOTAL FREE ENERGY PREDICTED BY IDOCK:    6.46 KCAL/MOL
REMARK 923 INTER-LIGAND FREE ENERGY PREDICTED BY IDOCK:    0.31 KCAL/MOL
REMARK 924 INTRA-LIGAND FREE ENERGY PREDICTED BY IDOCK:    6.15 KCAL/MOL
REMARK 927      BINDING AFFINITY PREDICTED BY RF-SCORE:    0.00 PKD
ROOT
HETATM    1  C   UNL     1     -10.549  14.253  67.179  1.00  0.00    -0.279 C  
HETATM    2  C   UNL     1     -10.546  12.777  66.818  1.00  0.00    -0.266 C  
ENDROOT
BRANCH   2   3
HETATM    3  C   UNL     1     -11.722  12.052  67.466  1.00  0.00    -0.351 C  
BRANCH   3   4
HETATM    4  C   UNL     1     -12.567  13.007  68.306  1.00  0.00     0.796 C  
BRANCH   4   5
HETATM    5  C   UNL     1     -12.289  12.811  69.794  1.00  0.00    -0.096 C  
BRANCH   5   6
HETATM    6  C   UNL     1     -10.996  13.506  70.203  1.00  0.00     0.534 C  
BRANCH   6   7
HETATM    7  C   UNL     1     -11.169  14.225  71.537  1.00  0.00     1.000 C  
BRANCH   7   8
HETATM    8  C   UNL     1     -11.317  15.726  71.322  1.00  0.00    -0.437 C  
BRANCH   8   9
HETATM    9  C   UNL     1     -10.712  16.149  69.988  1.00  0.00    -0.318 C  
BRANCH   9  10
HETATM   10  C   UNL     1      -9.282  15.638  69.873  1.00  0.00     0.076 C  
BRANCH  10  11
HETATM   11  C   UNL     1      -8.866  15.488  68.417  1.00  0.00    -0.183 C  
BRANCH  11  12
HETATM   12  C   UNL     1      -7.665  14.565  68.304  1.00  0.00    -0.126 C  
BRANCH  12  13
HETATM   13  O   UNL     1      -8.036  13.292  68.818  1.00  0.00    -0.084 OA 
BRANCH  13  14
HETATM   14  C   UNL     1      -6.881  12.515  69.118  1.00  0.00    -0.062 C  
BRANCH  14  15
HETATM   15  C   UNL     1      -7.047  11.877  70.485  1.00  0.00     2.072 C  
BRANCH  15  16
HETATM   16  O   UNL     1      -5.790  11.918  71.151  1.00  0.00    -0.379 OA 
BRANCH  16  17
HETATM   17  C   UNL     1      -5.133  10.657  71.093  1.00  0.00    -0.095 C  
BRANCH  17  18
HETATM   18  C   UNL     1      -5.392  10.041  69.727  1.00  0.00    -0.037 C  
BRANCH  18  19
HETATM   19  O   UNL     1      -5.461   8.628  69.865  1.00  0.00    -0.029 OA 
BRANCH  19  20
HETATM   20  C   UNL     1      -6.170   8.029  68.779  1.00  0.00    -0.040 C  
BRANCH  20  21
HETATM   21  C   UNL     1      -6.663   6.655  69.219  1.00  0.00    -0.056 C  
BRANCH  21  22
HETATM   22  O   UNL     1      -7.888   6.368  68.538  1.00  0.00    -0.102 OA 
BRANCH  22  23
HETATM   23  C   UNL     1      -7.992   4.988  68.210  1.00  0.00    -0.086 C  
BRANCH  23  24
HETATM   24  C   UNL     1      -7.032   4.199  69.086  1.00  0.00    -0.047 C  
BRANCH  24  25
HETATM   25  O   UNL     1      -5.882   3.859  68.316  1.00  0.00    -0.024 OA 
BRANCH  25  26
HETATM   26  C   UNL     1      -6.199   2.908  67.307  1.00  0.00    -0.028 C  
BRANCH  26  27
HETATM   27  C   UNL     1      -7.530   3.289  66.675  1.00  0.00    -0.076 C  
BRANCH  27  28
HETATM   28  O   UNL     1      -7.399   4.559  66.045  1.00  0.00    -0.075 OA 
BRANCH  28  29
HETATM   29  C   UNL     1      -7.899   4.524  64.712  1.00  0.00    -0.086 C  
BRANCH  29  30
HETATM   30  C   UNL     1      -8.438   5.899  64.351  1.00  0.00     0.020 C  
BRANCH  30  31
HETATM   31  O   UNL     1      -7.519   6.541  63.472  1.00  0.00    -0.062 OA 
BRANCH  31  32
HETATM   32  C   UNL     1      -7.676   7.957  63.504  1.00  0.00    -0.136 C  
BRANCH  32  33
HETATM   33  C   UNL     1      -8.902   8.301  64.337  1.00  0.00     0.352 C  
BRANCH  33  34
HETATM   34  O   UNL     1      -8.484   8.765  65.617  1.00  0.00    -0.141 OA 
BRANCH  34  35
HETATM   35  C   UNL     1      -9.582   9.272  66.371  1.00  0.00    -0.238 C  
BRANCH  35  36
HETATM   36  C   UNL     1      -9.864   8.325  67.530  1.00  0.00    -0.177 C  
BRANCH  36  37
HETATM   37  O   UNL     1     -11.000   8.785  68.262  1.00  0.00    -0.027 OA 
BRANCH  37  38
HETATM   38  C   UNL     1     -10.643   9.866  69.134  1.00  0.00    -0.220 C  
BRANCH  38  39
HETATM   39  C   UNL     1      -9.640   9.345  70.156  1.00  0.00    -0.238 C  
HETATM   40  O   UNL     1      -9.784  10.056  71.385  1.00  0.00     0.059 OA 
HETATM   41  H   UNL     1      -9.159   9.731  72.021  1.00  0.00     0.000 HD 
ENDBRANCH  38  39
ENDBRANCH  37  38
ENDBRANCH  36  37
ENDBRANCH  35  36
ENDBRANCH  34  35
ENDBRANCH  33  34
ENDBRANCH  32  33
ENDBRANCH  31  32
ENDBRANCH  30  31
ENDBRANCH  29  30
ENDBRANCH  28  29
ENDBRANCH  27  28
ENDBRANCH  26  27
ENDBRANCH  25  26
ENDBRANCH  24  25
ENDBRANCH  23  24
ENDBRANCH  22  23
ENDBRANCH  21  22
ENDBRANCH  20  21
ENDBRANCH  19  20
ENDBRANCH  18  19
ENDBRANCH  17  18
ENDBRANCH  16  17
ENDBRANCH  15  16
ENDBRANCH  14  15
ENDBRANCH  13  14
ENDBRANCH  12  13
ENDBRANCH  11  12
ENDBRANCH  10  11
ENDBRANCH   9  10
ENDBRANCH   8   9
ENDBRANCH   7   8
ENDBRANCH   6   7
ENDBRANCH   5   6
ENDBRANCH   4   5
ENDBRANCH   3   4
ENDBRANCH   2   3
TORSDOF 37
ENDMDL
MODEL      243
REMARK 921   NORMALIZED FREE ENERGY PREDICTED BY IDOCK:    4.15 KCAL/MOL
REMARK 922        TOTAL FREE ENERGY PREDICTED BY IDOCK:    9.51 KCAL/MOL
REMARK 923 INTER-LIGAND FREE ENERGY PREDICTED BY IDOCK:   -1.24 KCAL/MOL
REMARK 924 INTRA-LIGAND FREE ENERGY PREDICTED BY IDOCK:   10.75 KCAL/MOL
REMARK 927      BINDING AFFINITY PREDICTED BY RF-SCORE:    0.00 PKD
ROOT
HETATM    1  C   UNL     1     -10.553  14.250  67.199  1.00  0.00    -0.279 C  
HETATM    2  C   UNL     1     -10.481  12.781  66.819  1.00  0.00    -0.253 C  
ENDROOT
BRANCH   2   3
HETATM    3  C   UNL     1     -11.631  11.996  67.443  1.00  0.00    -0.388 C  
BRANCH   3   4
HETATM    4  C   UNL     1     -12.541  12.906  68.264  1.00  0.00     0.866 C  
BRANCH   4   5
HETATM    5  C   UNL     1     -12.267  12.740  69.757  1.00  0.00    -0.213 C  
BRANCH   5   6
HETATM    6  C   UNL     1     -11.044  13.546  70.179  1.00  0.00     0.351 C  
BRANCH   6   7
HETATM    7  C   UNL     1     -11.287  14.235  71.518  1.00  0.00     0.734 C  
BRANCH   7   8
HETATM    8  C   UNL     1     -11.639  15.702  71.310  1.00  0.00    -0.485 C  
BRANCH   8   9
HETATM    9  C   UNL     1     -11.198  16.179  69.930  1.00  0.00    -0.349 C  
BRANCH   9  10
HETATM   10  C   UNL     1      -9.741  15.809  69.686  1.00  0.00    -0.248 C  
BRANCH  10  11
HETATM   11  C   UNL     1      -9.448  15.672  68.199  1.00  0.00    -0.195 C  
BRANCH  11  12
HETATM   12  C   UNL     1      -8.182  14.862  67.982  1.00  0.00    -0.139 C  
BRANCH  12  13
HETATM   13  O   UNL     1      -8.389  13.564  68.524  1.00  0.00    -0.155 OA 
BRANCH  13  14
HETATM   14  C   UNL     1      -7.146  12.947  68.842  1.00  0.00    -0.063 C  
BRANCH  14  15
HETATM   15  C   UNL     1      -7.247  12.294  70.209  1.00  0.00     1.813 C  
BRANCH  15  16
HETATM   16  O   UNL     1      -6.026  12.524  70.903  1.00  0.00    -0.293 OA 
BRANCH  16  17
HETATM   17  C   UNL     1      -5.163  11.395  70.820  1.00  0.00    -0.123 C  
BRANCH  17  18
HETATM   18  C   UNL     1      -5.251  10.823  69.415  1.00  0.00    -0.037 C  
BRANCH  18  19
HETATM   19  O   UNL     1      -5.128   9.408  69.485  1.00  0.00    -0.035 OA 
BRANCH  19  20
HETATM   20  C   UNL     1      -5.660   8.776  68.319  1.00  0.00    -0.038 C  
BRANCH  20  21
HETATM   21  C   UNL     1      -6.217   7.414  68.715  1.00  0.00    -0.031 C  
BRANCH  21  22
HETATM   22  O   UNL     1      -7.403   7.166  67.956  1.00  0.00    -0.091 OA 
BRANCH  22  23
HETATM   23  C   UNL     1      -8.400   6.523  68.741  1.00  0.00    -0.122 C  
BRANCH  23  24
HETATM   24  C   UNL     1      -8.080   6.731  70.213  1.00  0.00    -0.120 C  
BRANCH  24  25
HETATM   25  O   UNL     1      -7.503   5.535  70.730  1.00  0.00    -0.082 OA 
BRANCH  25  26
HETATM   26  C   UNL     1      -8.443   4.468  70.732  1.00  0.00    -0.091 C  
BRANCH  26  27
HETATM   27  C   UNL     1      -9.253   4.525  69.445  1.00  0.00    -0.129 C  
BRANCH  27  28
HETATM   28  O   UNL     1      -8.371   4.397  68.334  1.00  0.00    -0.088 OA 
BRANCH  28  29
HETATM   29  C   UNL     1      -8.829   3.399  67.428  1.00  0.00    -0.130 C  
BRANCH  29  30
HETATM   30  C   UNL     1      -8.372   3.760  66.024  1.00  0.00    -0.109 C  
BRANCH  30  31
HETATM   31  O   UNL     1      -7.313   2.888  65.643  1.00  0.00    -0.068 OA 
BRANCH  31  32
HETATM   32  C   UNL     1      -6.493   3.477  64.637  1.00  0.00    -0.035 C  
BRANCH  32  33
HETATM   33  C   UNL     1      -7.111   4.800  64.208  1.00  0.00    -0.050 C  
BRANCH  33  34
HETATM   34  O   UNL     1      -6.378   5.872  64.794  1.00  0.00    -0.035 OA 
BRANCH  34  35
HETATM   35  C   UNL     1      -6.799   7.133  64.281  1.00  0.00    -0.047 C  
BRANCH  35  36
HETATM   36  C   UNL     1      -6.463   8.216  65.296  1.00  0.00    -0.052 C  
BRANCH  36  37
HETATM   37  O   UNL     1      -6.692   9.503  64.721  1.00  0.00    -0.087 OA 
BRANCH  37  38
HETATM   38  C   UNL     1      -5.481  10.270  64.686  1.00  0.00    -0.126 C  
BRANCH  38  39
HETATM   39  C   UNL     1      -5.287  10.792  63.266  1.00  0.00    -0.131 C  
HETATM   40  O   UNL     1      -5.351   9.710  62.338  1.00  0.00    -0.083 OA 
HETATM   41  H   UNL     1      -5.229  10.035  61.454  1.00  0.00     0.000 HD 
ENDBRANCH  38  39
ENDBRANCH  37  38
ENDBRANCH  36  37
ENDBRANCH  35  36
ENDBRANCH  34  35
ENDBRANCH  33  34
ENDBRANCH  32  33
ENDBRANCH  31  32
ENDBRANCH  30  31
ENDBRANCH  29  30
ENDBRANCH  28  29
ENDBRANCH  27  28
ENDBRANCH  26  27
ENDBRANCH  25  26
ENDBRANCH  24  25
ENDBRANCH  23  24
ENDBRANCH  22  23
ENDBRANCH  21  22
ENDBRANCH  20  21
ENDBRANCH  19  20
ENDBRANCH  18  19
ENDBRANCH  17  18
ENDBRANCH  16  17
ENDBRANCH  15  16
ENDBRANCH  14  15
ENDBRANCH  13  14
ENDBRANCH  12  13
ENDBRANCH  11  12
ENDBRANCH  10  11
ENDBRANCH   9  10
ENDBRANCH   8   9
ENDBRANCH   7   8
ENDBRANCH   6   7
ENDBRANCH   5   6
ENDBRANCH   4   5
ENDBRANCH   3   4
ENDBRANCH   2   3
TORSDOF 37
ENDMDL
MODEL      244
REMARK 921   NORMALIZED FREE ENERGY PREDICTED BY IDOCK:    4.30 KCAL/MOL
REMARK 922        TOTAL FREE ENERGY PREDICTED BY IDOCK:    9.97 KCAL/MOL
REMARK 923 INTER-LIGAND FREE ENERGY PREDICTED BY IDOCK:    3.04 KCAL/MOL
REMARK 924 INTRA-LIGAND FREE ENERGY PREDICTED BY IDOCK:    6.93 KCAL/MOL
REMARK 927      BINDING AFFINITY PREDICTED BY RF-SCORE:    0.00 PKD
ROOT
HETATM    1  C   UNL     1     -11.054  18.653  74.402  1.00  0.00     2.677 C  
HETATM    2  C   UNL     1     -11.420  18.298  72.971  1.00  0.00     2.595 C  
ENDROOT
BRANCH   2   3
HETATM    3  C   UNL     1     -12.429  17.153  72.931  1.00  0.00     1.440 C  
BRANCH   3   4
HETATM    4  C   UNL     1     -11.727  15.801  72.823  1.00  0.00    -0.515 C  
BRANCH   4   5
HETATM    5  C   UNL     1     -10.960  15.694  71.507  1.00  0.00    -0.100 C  
BRANCH   5   6
HETATM    6  C   UNL     1     -10.859  17.052  70.823  1.00  0.00     0.800 C  
BRANCH   6   7
HETATM    7  C   UNL     1     -10.581  16.886  69.333  1.00  0.00    -0.292 C  
BRANCH   7   8
HETATM    8  C   UNL     1     -11.174  15.581  68.818  1.00  0.00    -0.316 C  
BRANCH   8   9
HETATM    9  C   UNL     1     -11.818  15.776  67.450  1.00  0.00     0.374 C  
BRANCH   9  10
HETATM   10  C   UNL     1     -11.038  16.806  66.643  1.00  0.00     0.287 C  
BRANCH  10  11
HETATM   11  C   UNL     1      -9.572  16.417  66.524  1.00  0.00    -0.291 C  
BRANCH  11  12
HETATM   12  C   UNL     1      -9.402  15.301  65.508  1.00  0.00     0.036 C  
BRANCH  12  13
HETATM   13  O   UNL     1     -10.651  15.099  64.859  1.00  0.00    -0.411 OA 
BRANCH  13  14
HETATM   14  C   UNL     1     -11.572  14.453  65.731  1.00  0.00    -0.353 C  
BRANCH  14  15
HETATM   15  C   UNL     1     -10.880  13.289  66.416  1.00  0.00    -0.288 C  
BRANCH  15  16
HETATM   16  O   UNL     1      -9.889  12.778  65.532  1.00  0.00    -0.242 OA 
BRANCH  16  17
HETATM   17  C   UNL     1     -10.416  11.748  64.704  1.00  0.00    -0.299 C  
BRANCH  17  18
HETATM   18  C   UNL     1      -9.495  10.542  64.788  1.00  0.00    -0.259 C  
BRANCH  18  19
HETATM   19  O   UNL     1      -9.664   9.921  66.056  1.00  0.00    -0.209 OA 
BRANCH  19  20
HETATM   20  C   UNL     1      -9.108  10.714  67.107  1.00  0.00    -0.143 C  
BRANCH  20  21
HETATM   21  C   UNL     1      -7.657  10.299  67.314  1.00  0.00    -0.095 C  
BRANCH  21  22
HETATM   22  O   UNL     1      -6.855  11.478  67.434  1.00  0.00    -0.086 OA 
BRANCH  22  23
HETATM   23  C   UNL     1      -7.355  12.348  68.442  1.00  0.00    -0.113 C  
BRANCH  23  24
HETATM   24  C   UNL     1      -6.290  12.527  69.513  1.00  0.00    -0.112 C  
BRANCH  24  25
HETATM   25  O   UNL     1      -5.791  11.243  69.880  1.00  0.00    -0.076 OA 
BRANCH  25  26
HETATM   26  C   UNL     1      -5.306  11.242  71.217  1.00  0.00    -0.014 C  
BRANCH  26  27
HETATM   27  C   UNL     1      -5.132   9.801  71.674  1.00  0.00    -0.074 C  
BRANCH  27  28
HETATM   28  O   UNL     1      -5.448   9.710  73.059  1.00  0.00    -0.268 OA 
BRANCH  28  29
HETATM   29  C   UNL     1      -6.775   9.231  73.252  1.00  0.00     0.640 C  
BRANCH  29  30
HETATM   30  C   UNL     1      -7.096   8.216  72.166  1.00  0.00    -0.085 C  
BRANCH  30  31
HETATM   31  O   UNL     1      -8.497   8.235  71.913  1.00  0.00    -0.132 OA 
BRANCH  31  32
HETATM   32  C   UNL     1      -9.236   8.455  73.112  1.00  0.00    -0.151 C  
BRANCH  32  33
HETATM   33  C   UNL     1      -9.286   7.159  73.908  1.00  0.00    -0.231 C  
BRANCH  33  34
HETATM   34  O   UNL     1      -9.947   6.160  73.136  1.00  0.00    -0.170 OA 
BRANCH  34  35
HETATM   35  C   UNL     1     -11.072   5.627  73.829  1.00  0.00     0.080 C  
BRANCH  35  36
HETATM   36  C   UNL     1     -11.382   4.243  73.276  1.00  0.00    -0.203 C  
BRANCH  36  37
HETATM   37  O   UNL     1     -10.294   3.793  72.467  1.00  0.00    -0.168 OA 
BRANCH  37  38
HETATM   38  C   UNL     1      -9.325   3.092  73.258  1.00  0.00    -0.089 C  
BRANCH  38  39
HETATM   39  C   UNL     1      -7.957   3.274  72.611  1.00  0.00    -0.068 C  
HETATM   40  O   UNL     1      -7.612   2.106  71.868  1.00  0.00    -0.039 OA 
HETATM   41  H   UNL     1      -6.760   2.220  71.465  1.00  0.00     0.000 HD 
ENDBRANCH  38  39
ENDBRANCH  37  38
ENDBRANCH  36  37
ENDBRANCH  35  36
ENDBRANCH  34  35
ENDBRANCH  33  34
ENDBRANCH  32  33
ENDBRANCH  31  32
ENDBRANCH  30  31
ENDBRANCH  29  30
ENDBRANCH  28  29
ENDBRANCH  27  28
ENDBRANCH  26  27
ENDBRANCH  25  26
ENDBRANCH  24  25
ENDBRANCH  23  24
ENDBRANCH  22  23
ENDBRANCH  21  22
ENDBRANCH  20  21
ENDBRANCH  19  20
ENDBRANCH  18  19
ENDBRANCH  17  18
ENDBRANCH  16  17
ENDBRANCH  15  16
ENDBRANCH  14  15
ENDBRANCH  13  14
ENDBRANCH  12  13
ENDBRANCH  11  12
ENDBRANCH  10  11
ENDBRANCH   9  10
ENDBRANCH   8   9
ENDBRANCH   7   8
ENDBRANCH   6   7
ENDBRANCH   5   6
ENDBRANCH   4   5
ENDBRANCH   3   4
ENDBRANCH   2   3
TORSDOF 37
ENDMDL
MODEL      245
REMARK 921   NORMALIZED FREE ENERGY PREDICTED BY IDOCK:    6.56 KCAL/MOL
REMARK 922        TOTAL FREE ENERGY PREDICTED BY IDOCK:   17.14 KCAL/MOL
REMARK 923 INTER-LIGAND FREE ENERGY PREDICTED BY IDOCK:    0.42 KCAL/MOL
REMARK 924 INTRA-LIGAND FREE ENERGY PREDICTED BY IDOCK:   16.72 KCAL/MOL
REMARK 927      BINDING AFFINITY PREDICTED BY RF-SCORE:    0.00 PKD
ROOT
HETATM    1  C   UNL     1      -8.681   8.374  69.723  1.00  0.00    -0.133 C  
HETATM    2  C   UNL     1      -7.626   8.915  68.773  1.00  0.00    -0.091 C  
ENDROOT
BRANCH   2   3
HETATM    3  C   UNL     1      -8.029   8.688  67.318  1.00  0.00    -0.101 C  
BRANCH   3   4
HETATM    4  C   UNL     1      -7.596   9.856  66.435  1.00  0.00    -0.101 C  
BRANCH   4   5
HETATM    5  C   UNL     1      -6.266   9.550  65.749  1.00  0.00    -0.064 C  
BRANCH   5   6
HETATM    6  C   UNL     1      -5.204  10.572  66.140  1.00  0.00    -0.069 C  
BRANCH   6   7
HETATM    7  C   UNL     1      -5.496  11.153  67.519  1.00  0.00    -0.043 C  
BRANCH   7   8
HETATM    8  C   UNL     1      -6.666  12.127  67.455  1.00  0.00    -0.129 C  
BRANCH   8   9
HETATM    9  C   UNL     1      -6.215  13.544  67.796  1.00  0.00    -0.159 C  
BRANCH   9  10
HETATM   10  C   UNL     1      -7.342  14.533  67.533  1.00  0.00    -0.212 C  
BRANCH  10  11
HETATM   11  C   UNL     1      -8.703  13.864  67.661  1.00  0.00    -0.187 C  
BRANCH  11  12
HETATM   12  C   UNL     1      -9.257  14.058  69.062  1.00  0.00     0.153 C  
BRANCH  12  13
HETATM   13  O   UNL     1     -10.150  12.986  69.337  1.00  0.00     0.371 OA 
BRANCH  13  14
HETATM   14  C   UNL     1      -9.850  11.860  68.518  1.00  0.00    -0.183 C  
BRANCH  14  15
HETATM   15  C   UNL     1      -9.376  10.716  69.395  1.00  0.00    -0.059 C  
BRANCH  15  16
HETATM   16  O   UNL     1      -9.920  10.898  70.697  1.00  0.00     1.292 OA 
BRANCH  16  17
HETATM   17  C   UNL     1     -10.059   9.655  71.378  1.00  0.00     0.174 C  
BRANCH  17  18
HETATM   18  C   UNL     1      -8.742   9.334  72.067  1.00  0.00     0.717 C  
BRANCH  18  19
HETATM   19  O   UNL     1      -9.010   8.920  73.401  1.00  0.00    -0.079 OA 
BRANCH  19  20
HETATM   20  C   UNL     1     -10.189   8.116  73.475  1.00  0.00     0.436 C  
BRANCH  20  21
HETATM   21  C   UNL     1      -9.938   6.973  74.450  1.00  0.00    -0.108 C  
BRANCH  21  22
HETATM   22  O   UNL     1      -9.157   5.972  73.791  1.00  0.00    -0.127 OA 
BRANCH  22  23
HETATM   23  C   UNL     1      -9.944   5.207  72.886  1.00  0.00    -0.159 C  
BRANCH  23  24
HETATM   24  C   UNL     1     -11.399   5.633  73.015  1.00  0.00    -0.236 C  
BRANCH  24  25
HETATM   25  O   UNL     1     -11.627   6.748  72.157  1.00  0.00    -0.269 OA 
BRANCH  25  26
HETATM   26  C   UNL     1     -12.395   6.374  71.019  1.00  0.00     0.054 C  
BRANCH  26  27
HETATM   27  C   UNL     1     -11.447   6.007  69.887  1.00  0.00    -0.155 C  
BRANCH  27  28
HETATM   28  O   UNL     1     -10.780   4.792  70.214  1.00  0.00     0.015 OA 
BRANCH  28  29
HETATM   29  C   UNL     1     -10.294   4.143  69.043  1.00  0.00     0.735 C  
BRANCH  29  30
HETATM   30  C   UNL     1      -8.829   3.789  69.247  1.00  0.00    -0.099 C  
BRANCH  30  31
HETATM   31  O   UNL     1      -8.511   2.656  68.446  1.00  0.00    -0.067 OA 
BRANCH  31  32
HETATM   32  C   UNL     1      -7.725   3.024  67.316  1.00  0.00    -0.074 C  
BRANCH  32  33
HETATM   33  C   UNL     1      -8.578   3.857  66.371  1.00  0.00    -0.111 C  
BRANCH  33  34
HETATM   34  O   UNL     1      -8.571   5.215  66.805  1.00  0.00    -0.110 OA 
BRANCH  34  35
HETATM   35  C   UNL     1      -9.717   5.918  66.334  1.00  0.00    -0.134 C  
BRANCH  35  36
HETATM   36  C   UNL     1      -9.963   7.121  67.235  1.00  0.00    -0.186 C  
BRANCH  36  37
HETATM   37  O   UNL     1     -10.879   8.016  66.604  1.00  0.00    -0.115 OA 
BRANCH  37  38
HETATM   38  C   UNL     1     -10.183   8.964  65.784  1.00  0.00     0.493 C  
BRANCH  38  39
HETATM   39  C   UNL     1     -10.258  10.329  66.461  1.00  0.00    -0.226 C  
HETATM   40  O   UNL     1     -10.930  11.256  65.611  1.00  0.00    -0.231 OA 
HETATM   41  H   UNL     1     -10.977  12.106  66.032  1.00  0.00     0.000 HD 
ENDBRANCH  38  39
ENDBRANCH  37  38
ENDBRANCH  36  37
ENDBRANCH  35  36
ENDBRANCH  34  35
ENDBRANCH  33  34
ENDBRANCH  32  33
ENDBRANCH  31  32
ENDBRANCH  30  31
ENDBRANCH  29  30
ENDBRANCH  28  29
ENDBRANCH  27  28
ENDBRANCH  26  27
ENDBRANCH  25  26
ENDBRANCH  24  25
ENDBRANCH  23  24
ENDBRANCH  22  23
ENDBRANCH  21  22
ENDBRANCH  20  21
ENDBRANCH  19  20
ENDBRANCH  18  19
ENDBRANCH  17  18
ENDBRANCH  16  17
ENDBRANCH  15  16
ENDBRANCH  14  15
ENDBRANCH  13  14
ENDBRANCH  12  13
ENDBRANCH  11  12
ENDBRANCH  10  11
ENDBRANCH   9  10
ENDBRANCH   8   9
ENDBRANCH   7   8
ENDBRANCH   6   7
ENDBRANCH   5   6
ENDBRANCH   4   5
ENDBRANCH   3   4
ENDBRANCH   2   3
TORSDOF 37
ENDMDL
MODEL      246
REMARK 921   NORMALIZED FREE ENERGY PREDICTED BY IDOCK:    7.28 KCAL/MOL
REMARK 922        TOTAL FREE ENERGY PREDICTED BY IDOCK:   19.41 KCAL/MOL
REMARK 923 INTER-LIGAND FREE ENERGY PREDICTED BY IDOCK:   19.71 KCAL/MOL
REMARK 924 INTRA-LIGAND FREE ENERGY PREDICTED BY IDOCK:   -0.29 KCAL/MOL
REMARK 927      BINDING AFFINITY PREDICTED BY RF-SCORE:    0.00 PKD
ROOT
HETATM    1  C   UNL     1      -6.615   7.404  64.427  1.00  0.00    -0.040 C  
HETATM    2  C   UNL     1      -7.276   7.126  65.766  1.00  0.00    -0.073 C  
ENDROOT
BRANCH   2   3
HETATM    3  C   UNL     1      -7.271   8.371  66.649  1.00  0.00    -0.077 C  
BRANCH   3   4
HETATM    4  C   UNL     1      -6.893   9.615  65.849  1.00  0.00    -0.089 C  
BRANCH   4   5
HETATM    5  C   UNL     1      -7.436   9.529  64.425  1.00  0.00    -0.118 C  
BRANCH   5   6
HETATM    6  C   UNL     1      -8.567  10.529  64.212  1.00  0.00    -0.156 C  
BRANCH   6   7
HETATM    7  C   UNL     1      -8.939  10.616  62.735  1.00  0.00    -0.290 C  
BRANCH   7   8
HETATM    8  C   UNL     1     -10.271  11.333  62.559  1.00  0.00     0.320 C  
BRANCH   8   9
HETATM    9  C   UNL     1     -10.872  11.709  63.909  1.00  0.00    -0.471 C  
BRANCH   9  10
HETATM   10  C   UNL     1     -11.986  10.739  64.278  1.00  0.00     2.188 C  
BRANCH  10  11
HETATM   11  C   UNL     1     -11.533   9.762  65.352  1.00  0.00     3.730 C  
BRANCH  11  12
HETATM   12  C   UNL     1     -11.257  10.497  66.653  1.00  0.00     0.209 C  
BRANCH  12  13
HETATM   13  O   UNL     1     -10.894   9.535  67.636  1.00  0.00    -0.279 OA 
BRANCH  13  14
HETATM   14  C   UNL     1     -11.612   9.758  68.846  1.00  0.00     0.277 C  
BRANCH  14  15
HETATM   15  C   UNL     1     -11.895  11.243  68.993  1.00  0.00    -0.352 C  
BRANCH  15  16
HETATM   16  O   UNL     1     -10.727  11.869  69.511  1.00  0.00    -0.039 OA 
BRANCH  16  17
HETATM   17  C   UNL     1     -11.033  13.128  70.100  1.00  0.00     0.803 C  
BRANCH  17  18
HETATM   18  C   UNL     1     -10.804  13.027  71.600  1.00  0.00     6.101 C  
BRANCH  18  19
HETATM   19  O   UNL     1     -10.799  14.337  72.154  1.00  0.00     1.852 OA 
BRANCH  19  20
HETATM   20  C   UNL     1     -11.659  14.428  73.292  1.00  0.00     0.832 C  
BRANCH  20  21
HETATM   21  C   UNL     1     -12.935  15.153  72.880  1.00  0.00    -0.462 C  
BRANCH  21  22
HETATM   22  O   UNL     1     -12.577  16.393  72.262  1.00  0.00    -0.332 OA 
BRANCH  22  23
HETATM   23  C   UNL     1     -13.348  16.633  71.090  1.00  0.00     4.146 C  
BRANCH  23  24
HETATM   24  C   UNL     1     -12.710  15.900  69.920  1.00  0.00     0.337 C  
BRANCH  24  25
HETATM   25  O   UNL     1     -11.826  16.792  69.248  1.00  0.00     0.314 OA 
BRANCH  25  26
HETATM   26  C   UNL     1     -12.014  16.742  67.840  1.00  0.00     1.074 C  
BRANCH  26  27
HETATM   27  C   UNL     1     -10.899  17.529  67.167  1.00  0.00    -0.092 C  
BRANCH  27  28
HETATM   28  O   UNL     1     -10.202  18.284  68.153  1.00  0.00    -0.353 OA 
BRANCH  28  29
HETATM   29  C   UNL     1      -8.795  18.233  67.940  1.00  0.00    -0.269 C  
BRANCH  29  30
HETATM   30  C   UNL     1      -8.435  16.877  67.353  1.00  0.00    -0.190 C  
BRANCH  30  31
HETATM   31  O   UNL     1      -7.415  16.284  68.150  1.00  0.00    -0.138 OA 
BRANCH  31  32
HETATM   32  C   UNL     1      -7.043  15.004  67.646  1.00  0.00    -0.183 C  
BRANCH  32  33
HETATM   33  C   UNL     1      -7.203  13.970  68.751  1.00  0.00    -0.113 C  
BRANCH  33  34
HETATM   34  O   UNL     1      -7.544  12.714  68.172  1.00  0.00    -0.111 OA 
BRANCH  34  35
HETATM   35  C   UNL     1      -6.580  11.714  68.495  1.00  0.00    -0.061 C  
BRANCH  35  36
HETATM   36  C   UNL     1      -6.660  11.414  69.985  1.00  0.00    -0.031 C  
BRANCH  36  37
HETATM   37  O   UNL     1      -5.706  10.407  70.325  1.00  0.00    -0.055 OA 
BRANCH  37  38
HETATM   38  C   UNL     1      -5.244  10.575  71.672  1.00  0.00    -0.016 C  
BRANCH  38  39
HETATM   39  C   UNL     1      -5.692  11.946  72.164  1.00  0.00     1.259 C  
HETATM   40  O   UNL     1      -5.709  11.968  73.591  1.00  0.00     0.655 OA 
HETATM   41  H   UNL     1      -5.988  12.823  73.897  1.00  0.00     0.000 HD 
ENDBRANCH  38  39
ENDBRANCH  37  38
ENDBRANCH  36  37
ENDBRANCH  35  36
ENDBRANCH  34  35
ENDBRANCH  33  34
ENDBRANCH  32  33
ENDBRANCH  31  32
ENDBRANCH  30  31
ENDBRANCH  29  30
ENDBRANCH  28  29
ENDBRANCH  27  28
ENDBRANCH  26  27
ENDBRANCH  25  26
ENDBRANCH  24  25
ENDBRANCH  23  24
ENDBRANCH  22  23
ENDBRANCH  21  22
ENDBRANCH  20  21
ENDBRANCH  19  20
ENDBRANCH  18  19
ENDBRANCH  17  18
ENDBRANCH  16  17
ENDBRANCH  15  16
ENDBRANCH  14  15
ENDBRANCH  13  14
ENDBRANCH  12  13
ENDBRANCH  11  12
ENDBRANCH  10  11
ENDBRANCH   9  10
ENDBRANCH   8   9
ENDBRANCH   7   8
ENDBRANCH   6   7
ENDBRANCH   5   6
ENDBRANCH   4   5
ENDBRANCH   3   4
ENDBRANCH   2   3
TORSDOF 37
ENDMDL
MODEL      247
REMARK 921   NORMALIZED FREE ENERGY PREDICTED BY IDOCK:    8.90 KCAL/MOL
REMARK 922        TOTAL FREE ENERGY PREDICTED BY IDOCK:   24.54 KCAL/MOL
REMARK 923 INTER-LIGAND FREE ENERGY PREDICTED BY IDOCK:   -2.61 KCAL/MOL
REMARK 924 INTRA-LIGAND FREE ENERGY PREDICTED BY IDOCK:   27.15 KCAL/MOL
REMARK 927      BINDING AFFINITY PREDICTED BY RF-SCORE:    0.00 PKD
ROOT
HETATM    1  C   UNL     1      -9.514   3.746  70.407  1.00  0.00    -0.254 C  
HETATM    2  C   UNL     1      -9.286   3.750  68.906  1.00  0.00    -0.220 C  
ENDROOT
BRANCH   2   3
HETATM    3  C   UNL     1     -10.265   4.688  68.205  1.00  0.00    -0.003 C  
BRANCH   3   4
HETATM    4  C   UNL     1     -10.516   5.946  69.033  1.00  0.00    -0.332 C  
BRANCH   4   5
HETATM    5  C   UNL     1      -9.209   6.485  69.608  1.00  0.00    -0.143 C  
BRANCH   5   6
HETATM    6  C   UNL     1      -8.020   6.055  68.756  1.00  0.00    -0.104 C  
BRANCH   6   7
HETATM    7  C   UNL     1      -8.460   5.762  67.325  1.00  0.00    -0.107 C  
BRANCH   7   8
HETATM    8  C   UNL     1      -7.738   6.676  66.344  1.00  0.00    -0.102 C  
BRANCH   8   9
HETATM    9  C   UNL     1      -8.557   6.868  65.072  1.00  0.00     0.094 C  
BRANCH   9  10
HETATM   10  C   UNL     1      -9.974   7.306  65.420  1.00  0.00     1.743 C  
BRANCH  10  11
HETATM   11  C   UNL     1      -9.980   8.261  66.604  1.00  0.00    -0.348 C  
BRANCH  11  12
HETATM   12  C   UNL     1     -10.673   7.622  67.796  1.00  0.00    -0.145 C  
BRANCH  12  13
HETATM   13  O   UNL     1     -10.286   8.332  68.966  1.00  0.00    -0.218 OA 
BRANCH  13  14
HETATM   14  C   UNL     1      -9.570   9.514  68.622  1.00  0.00    -0.146 C  
BRANCH  14  15
HETATM   15  C   UNL     1     -10.245  10.712  69.266  1.00  0.00    -0.213 C  
BRANCH  15  16
HETATM   16  O   UNL     1      -9.297  11.771  69.337  1.00  0.00     0.417 OA 
BRANCH  16  17
HETATM   17  C   UNL     1      -8.490  11.823  68.165  1.00  0.00    -0.158 C  
BRANCH  17  18
HETATM   18  C   UNL     1      -7.774  10.491  68.014  1.00  0.00    -0.092 C  
BRANCH  18  19
HETATM   19  O   UNL     1      -6.977  10.528  66.837  1.00  0.00    -0.087 OA 
BRANCH  19  20
HETATM   20  C   UNL     1      -7.766  10.805  65.678  1.00  0.00    -0.057 C  
BRANCH  20  21
HETATM   21  C   UNL     1      -8.480  12.136  65.883  1.00  0.00     0.482 C  
BRANCH  21  22
HETATM   22  O   UNL     1      -9.867  11.962  65.581  1.00  0.00    -0.235 OA 
BRANCH  22  23
HETATM   23  C   UNL     1     -10.178  10.599  65.318  1.00  0.00    -0.282 C  
BRANCH  23  24
HETATM   24  C   UNL     1     -11.322  10.537  64.318  1.00  0.00     1.799 C  
BRANCH  24  25
HETATM   25  O   UNL     1     -11.170  11.600  63.382  1.00  0.00    -0.396 OA 
BRANCH  25  26
HETATM   26  C   UNL     1     -10.586  12.744  63.991  1.00  0.00    -0.416 C  
BRANCH  26  27
HETATM   27  C   UNL     1     -11.572  13.323  64.995  1.00  0.00    -0.316 C  
BRANCH  27  28
HETATM   28  O   UNL     1     -11.312  14.714  65.155  1.00  0.00    -0.344 OA 
BRANCH  28  29
HETATM   29  C   UNL     1      -9.967  14.941  65.562  1.00  0.00    -0.358 C  
BRANCH  29  30
HETATM   30  C   UNL     1      -9.681  14.112  66.804  1.00  0.00    -0.277 C  
BRANCH  30  31
HETATM   31  O   UNL     1      -9.963  14.896  67.959  1.00  0.00    -0.216 OA 
BRANCH  31  32
HETATM   32  C   UNL     1     -10.711  16.062  67.623  1.00  0.00    -0.320 C  
BRANCH  32  33
HETATM   33  C   UNL     1     -10.999  16.848  68.894  1.00  0.00    -0.207 C  
BRANCH  33  34
HETATM   34  O   UNL     1     -12.253  16.433  69.428  1.00  0.00     0.067 OA 
BRANCH  34  35
HETATM   35  C   UNL     1     -12.083  15.482  70.476  1.00  0.00    -0.386 C  
BRANCH  35  36
HETATM   36  C   UNL     1     -13.048  15.816  71.606  1.00  0.00    -0.421 C  
BRANCH  36  37
HETATM   37  O   UNL     1     -12.886  14.878  72.670  1.00  0.00    -0.339 OA 
BRANCH  37  38
HETATM   38  C   UNL     1     -11.964  13.843  72.303  1.00  0.00     0.748 C  
BRANCH  38  39
HETATM   39  C   UNL     1     -12.570  13.048  71.151  1.00  0.00    -0.297 C  
HETATM   40  O   UNL     1     -12.958  11.753  71.606  1.00  0.00    -0.425 OA 
HETATM   41  H   UNL     1     -13.336  11.259  70.889  1.00  0.00     0.000 HD 
ENDBRANCH  38  39
ENDBRANCH  37  38
ENDBRANCH  36  37
ENDBRANCH  35  36
ENDBRANCH  34  35
ENDBRANCH  33  34
ENDBRANCH  32  33
ENDBRANCH  31  32
ENDBRANCH  30  31
ENDBRANCH  29  30
ENDBRANCH  28  29
ENDBRANCH  27  28
ENDBRANCH  26  27
ENDBRANCH  25  26
ENDBRANCH  24  25
ENDBRANCH  23  24
ENDBRANCH  22  23
ENDBRANCH  21  22
ENDBRANCH  20  21
ENDBRANCH  19  20
ENDBRANCH  18  19
ENDBRANCH  17  18
ENDBRANCH  16  17
ENDBRANCH  15  16
ENDBRANCH  14  15
ENDBRANCH  13  14
ENDBRANCH  12  13
ENDBRANCH  11  12
ENDBRANCH  10  11
ENDBRANCH   9  10
ENDBRANCH   8   9
ENDBRANCH   7   8
ENDBRANCH   6   7
ENDBRANCH   5   6
ENDBRANCH   4   5
ENDBRANCH   3   4
ENDBRANCH   2   3
TORSDOF 37
ENDMDL
MODEL      248
REMARK 921   NORMALIZED FREE ENERGY PREDICTED BY IDOCK:    8.97 KCAL/MOL
REMARK 922        TOTAL FREE ENERGY PREDICTED BY IDOCK:   24.75 KCAL/MOL
REMARK 923 INTER-LIGAND FREE ENERGY PREDICTED BY IDOCK:    4.45 KCAL/MOL
REMARK 924 INTRA-LIGAND FREE ENERGY PREDICTED BY IDOCK:   20.31 KCAL/MOL
REMARK 927      BINDING AFFINITY PREDICTED BY RF-SCORE:    0.00 PKD
ROOT
HETATM    1  C   UNL     1      -8.764   8.412  69.754  1.00  0.00    -0.133 C  
HETATM    2  C   UNL     1      -7.756   8.857  68.709  1.00  0.00    -0.096 C  
ENDROOT
BRANCH   2   3
HETATM    3  C   UNL     1      -8.293   8.634  67.298  1.00  0.00    -0.108 C  
BRANCH   3   4
HETATM    4  C   UNL     1      -7.756   9.684  66.328  1.00  0.00    -0.101 C  
BRANCH   4   5
HETATM    5  C   UNL     1      -6.584   9.129  65.523  1.00  0.00    -0.068 C  
BRANCH   5   6
HETATM    6  C   UNL     1      -5.298   9.881  65.844  1.00  0.00    -0.045 C  
BRANCH   6   7
HETATM    7  C   UNL     1      -5.333  10.430  67.266  1.00  0.00    -0.041 C  
BRANCH   7   8
HETATM    8  C   UNL     1      -6.239  11.651  67.348  1.00  0.00    -0.101 C  
BRANCH   8   9
HETATM    9  C   UNL     1      -5.444  12.896  67.727  1.00  0.00    -0.123 C  
BRANCH   9  10
HETATM   10  C   UNL     1      -6.308  14.140  67.573  1.00  0.00    -0.028 C  
BRANCH  10  11
HETATM   11  C   UNL     1      -7.786  13.804  67.705  1.00  0.00    -0.187 C  
BRANCH  11  12
HETATM   12  C   UNL     1      -8.254  14.031  69.132  1.00  0.00     0.226 C  
BRANCH  12  13
HETATM   13  O   UNL     1      -9.345  13.154  69.384  1.00  0.00     0.705 OA 
BRANCH  13  14
HETATM   14  C   UNL     1      -9.262  11.998  68.559  1.00  0.00    -0.114 C  
BRANCH  14  15
HETATM   15  C   UNL     1      -9.110  10.767  69.436  1.00  0.00     0.040 C  
BRANCH  15  16
HETATM   16  O   UNL     1      -9.697  11.048  70.701  1.00  0.00     1.778 OA 
BRANCH  16  17
HETATM   17  C   UNL     1     -10.195   9.864  71.314  1.00  0.00     0.454 C  
BRANCH  17  18
HETATM   18  C   UNL     1      -9.081   9.245  72.143  1.00  0.00     0.829 C  
BRANCH  18  19
HETATM   19  O   UNL     1      -9.604   8.872  73.412  1.00  0.00     0.434 OA 
BRANCH  19  20
HETATM   20  C   UNL     1     -10.942   8.380  73.304  1.00  0.00     0.783 C  
BRANCH  20  21
HETATM   21  C   UNL     1     -10.917   7.075  72.518  1.00  0.00    -0.264 C  
BRANCH  21  22
HETATM   22  O   UNL     1     -10.740   7.379  71.131  1.00  0.00    -0.229 OA 
BRANCH  22  23
HETATM   23  C   UNL     1     -11.923   7.928  70.562  1.00  0.00     0.046 C  
BRANCH  23  24
HETATM   24  C   UNL     1     -13.042   7.862  71.590  1.00  0.00    -0.332 C  
BRANCH  24  25
HETATM   25  O   UNL     1     -12.956   9.007  72.434  1.00  0.00    -0.408 OA 
BRANCH  25  26
HETATM   26  C   UNL     1     -13.957   9.964  72.108  1.00  0.00     0.020 C  
BRANCH  26  27
HETATM   27  C   UNL     1     -13.353  11.008  71.180  1.00  0.00     0.089 C  
BRANCH  27  28
HETATM   28  O   UNL     1     -12.995  10.386  69.950  1.00  0.00    -0.059 OA 
BRANCH  28  29
HETATM   29  C   UNL     1     -12.905  11.342  68.899  1.00  0.00     1.487 C  
BRANCH  29  30
HETATM   30  C   UNL     1     -11.537  11.228  68.245  1.00  0.00    -0.300 C  
BRANCH  30  31
HETATM   31  O   UNL     1     -11.635  11.653  66.889  1.00  0.00    -0.507 OA 
BRANCH  31  32
HETATM   32  C   UNL     1     -11.141  12.980  66.726  1.00  0.00    -0.286 C  
BRANCH  32  33
HETATM   33  C   UNL     1     -12.118  13.954  67.368  1.00  0.00    -0.345 C  
BRANCH  33  34
HETATM   34  O   UNL     1     -11.904  13.973  68.777  1.00  0.00    -0.324 OA 
BRANCH  34  35
HETATM   35  C   UNL     1     -13.085  14.352  69.478  1.00  0.00     0.953 C  
BRANCH  35  36
HETATM   36  C   UNL     1     -13.001  13.828  70.905  1.00  0.00    -0.216 C  
BRANCH  36  37
HETATM   37  O   UNL     1     -14.029  14.423  71.698  1.00  0.00    -0.400 OA 
BRANCH  37  38
HETATM   38  C   UNL     1     -13.584  15.662  72.266  1.00  0.00    -0.496 C  
BRANCH  38  39
HETATM   39  C   UNL     1     -13.380  15.457  73.763  1.00  0.00     0.180 C  
HETATM   40  O   UNL     1     -14.240  16.328  74.494  1.00  0.00     1.736 OA 
HETATM   41  H   UNL     1     -14.113  16.200  75.426  1.00  0.00     0.000 HD 
ENDBRANCH  38  39
ENDBRANCH  37  38
ENDBRANCH  36  37
ENDBRANCH  35  36
ENDBRANCH  34  35
ENDBRANCH  33  34
ENDBRANCH  32  33
ENDBRANCH  31  32
ENDBRANCH  30  31
ENDBRANCH  29  30
ENDBRANCH  28  29
ENDBRANCH  27  28
ENDBRANCH  26  27
ENDBRANCH  25  26
ENDBRANCH  24  25
ENDBRANCH  23  24
ENDBRANCH  22  23
ENDBRANCH  21  22
ENDBRANCH  20  21
ENDBRANCH  19  20
ENDBRANCH  18  19
ENDBRANCH  17  18
ENDBRANCH  16  17
ENDBRANCH  15  16
ENDBRANCH  14  15
ENDBRANCH  13  14
ENDBRANCH  12  13
ENDBRANCH  11  12
ENDBRANCH  10  11
ENDBRANCH   9  10
ENDBRANCH   8   9
ENDBRANCH   7   8
ENDBRANCH   6   7
ENDBRANCH   5   6
ENDBRANCH   4   5
ENDBRANCH   3   4
ENDBRANCH   2   3
TORSDOF 37
ENDMDL
MODEL      249
REMARK 921   NORMALIZED FREE ENERGY PREDICTED BY IDOCK:    9.62 KCAL/MOL
REMARK 922        TOTAL FREE ENERGY PREDICTED BY IDOCK:   26.79 KCAL/MOL
REMARK 923 INTER-LIGAND FREE ENERGY PREDICTED BY IDOCK:   16.96 KCAL/MOL
REMARK 924 INTRA-LIGAND FREE ENERGY PREDICTED BY IDOCK:    9.84 KCAL/MOL
REMARK 927      BINDING AFFINITY PREDICTED BY RF-SCORE:    0.00 PKD
ROOT
HETATM    1  C   UNL     1      -8.106  10.794  64.140  1.00  0.00     0.163 C  
HETATM    2  C   UNL     1      -9.343  10.286  64.861  1.00  0.00    -0.306 C  
ENDROOT
BRANCH   2   3
HETATM    3  C   UNL     1     -10.119   9.301  63.992  1.00  0.00     2.240 C  
BRANCH   3   4
HETATM    4  C   UNL     1     -11.580   9.722  63.848  1.00  0.00     7.443 C  
BRANCH   4   5
HETATM    5  C   UNL     1     -11.803  11.112  64.440  1.00  0.00     0.613 C  
BRANCH   5   6
HETATM    6  C   UNL     1     -13.192  11.634  64.094  1.00  0.00     0.680 C  
BRANCH   6   7
HETATM    7  C   UNL     1     -13.608  12.741  65.057  1.00  0.00     1.648 C  
BRANCH   7   8
HETATM    8  C   UNL     1     -12.384  13.395  65.684  1.00  0.00    -0.521 C  
BRANCH   8   9
HETATM    9  C   UNL     1     -12.689  14.826  66.114  1.00  0.00     0.399 C  
BRANCH   9  10
HETATM   10  C   UNL     1     -12.409  15.791  64.970  1.00  0.00     0.760 C  
BRANCH  10  11
HETATM   11  C   UNL     1     -11.102  16.539  65.187  1.00  0.00    -0.134 C  
BRANCH  11  12
HETATM   12  C   UNL     1     -10.074  16.118  64.152  1.00  0.00     3.315 C  
BRANCH  12  13
HETATM   13  O   UNL     1      -9.590  14.829  64.507  1.00  0.00     0.430 OA 
BRANCH  13  14
HETATM   14  C   UNL     1     -10.510  14.167  65.369  1.00  0.00    -0.357 C  
BRANCH  14  15
HETATM   15  C   UNL     1     -10.281  14.632  66.796  1.00  0.00    -0.268 C  
BRANCH  15  16
HETATM   16  O   UNL     1      -9.189  13.896  67.334  1.00  0.00    -0.206 OA 
BRANCH  16  17
HETATM   17  C   UNL     1      -7.943  14.494  66.990  1.00  0.00    -0.041 C  
BRANCH  17  18
HETATM   18  C   UNL     1      -6.829  13.708  67.662  1.00  0.00    -0.174 C  
BRANCH  18  19
HETATM   19  O   UNL     1      -6.226  14.524  68.658  1.00  0.00    -0.077 OA 
BRANCH  19  20
HETATM   20  C   UNL     1      -7.001  15.696  68.916  1.00  0.00    -0.130 C  
BRANCH  20  21
HETATM   21  C   UNL     1      -7.298  15.763  70.409  1.00  0.00     0.957 C  
BRANCH  21  22
HETATM   22  O   UNL     1      -6.290  15.028  71.110  1.00  0.00     0.200 OA 
BRANCH  22  23
HETATM   23  C   UNL     1      -6.484  13.625  70.982  1.00  0.00     0.667 C  
BRANCH  23  24
HETATM   24  C   UNL     1      -5.135  12.929  71.075  1.00  0.00    -0.149 C  
BRANCH  24  25
HETATM   25  O   UNL     1      -5.346  11.567  71.439  1.00  0.00    -0.300 OA 
BRANCH  25  26
HETATM   26  C   UNL     1      -6.342  10.963  70.623  1.00  0.00     0.079 C  
BRANCH  26  27
HETATM   27  C   UNL     1      -5.765  10.737  69.233  1.00  0.00    -0.041 C  
BRANCH  27  28
HETATM   28  O   UNL     1      -6.287   9.522  68.704  1.00  0.00    -0.047 OA 
BRANCH  28  29
HETATM   29  C   UNL     1      -7.326   9.777  67.764  1.00  0.00    -0.089 C  
BRANCH  29  30
HETATM   30  C   UNL     1      -8.541   8.941  68.133  1.00  0.00    -0.130 C  
BRANCH  30  31
HETATM   31  O   UNL     1      -9.554   9.139  67.152  1.00  0.00    -0.150 OA 
BRANCH  31  32
HETATM   32  C   UNL     1     -10.824   9.368  67.759  1.00  0.00    -0.159 C  
BRANCH  32  33
HETATM   33  C   UNL     1     -11.084  10.866  67.811  1.00  0.00    -0.309 C  
BRANCH  33  34
HETATM   34  O   UNL     1     -12.144  11.126  68.727  1.00  0.00    -0.522 OA 
BRANCH  34  35
HETATM   35  C   UNL     1     -11.689  11.871  69.854  1.00  0.00    -0.308 C  
BRANCH  35  36
HETATM   36  C   UNL     1     -11.042  10.915  70.848  1.00  0.00     0.713 C  
BRANCH  36  37
HETATM   37  O   UNL     1     -12.050  10.313  71.661  1.00  0.00    -0.353 OA 
BRANCH  37  38
HETATM   38  C   UNL     1     -13.283  11.037  71.567  1.00  0.00    -0.299 C  
BRANCH  38  39
HETATM   39  C   UNL     1     -13.633  11.570  72.952  1.00  0.00     2.059 C  
HETATM   40  O   UNL     1     -13.269  12.946  73.049  1.00  0.00    -0.338 OA 
HETATM   41  H   UNL     1     -13.487  13.278  73.912  1.00  0.00     0.000 HD 
ENDBRANCH  38  39
ENDBRANCH  37  38
ENDBRANCH  36  37
ENDBRANCH  35  36
ENDBRANCH  34  35
ENDBRANCH  33  34
ENDBRANCH  32  33
ENDBRANCH  31  32
ENDBRANCH  30  31
ENDBRANCH  29  30
ENDBRANCH  28  29
ENDBRANCH  27  28
ENDBRANCH  26  27
ENDBRANCH  25  26
ENDBRANCH  24  25
ENDBRANCH  23  24
ENDBRANCH  22  23
ENDBRANCH  21  22
ENDBRANCH  20  21
ENDBRANCH  19  20
ENDBRANCH  18  19
ENDBRANCH  17  18
ENDBRANCH  16  17
ENDBRANCH  15  16
ENDBRANCH  14  15
ENDBRANCH  13  14
ENDBRANCH  12  13
ENDBRANCH  11  12
ENDBRANCH  10  11
ENDBRANCH   9  10
ENDBRANCH   8   9
ENDBRANCH   7   8
ENDBRANCH   6   7
ENDBRANCH   5   6
ENDBRANCH   4   5
ENDBRANCH   3   4
ENDBRANCH   2   3
TORSDOF 37
ENDMDL
MODEL      250
REMARK 921   NORMALIZED FREE ENERGY PREDICTED BY IDOCK:   12.90 KCAL/MOL
REMARK 922        TOTAL FREE ENERGY PREDICTED BY IDOCK:   37.19 KCAL/MOL
REMARK 923 INTER-LIGAND FREE ENERGY PREDICTED BY IDOCK:   20.20 KCAL/MOL
REMARK 924 INTRA-LIGAND FREE ENERGY PREDICTED BY IDOCK:   16.99 KCAL/MOL
REMARK 927      BINDING AFFINITY PREDICTED BY RF-SCORE:    0.00 PKD
ROOT
HETATM    1  C   UNL     1     -11.064  19.352  74.315  1.00  0.00     5.100 C  
HETATM    2  C   UNL     1     -11.526  19.206  72.875  1.00  0.00     6.054 C  
ENDROOT
BRANCH   2   3
HETATM    3  C   UNL     1     -12.338  17.928  72.687  1.00  0.00     4.958 C  
BRANCH   3   4
HETATM    4  C   UNL     1     -11.458  16.688  72.822  1.00  0.00     0.286 C  
BRANCH   4   5
HETATM    5  C   UNL     1     -10.359  16.687  71.763  1.00  0.00     3.394 C  
BRANCH   5   6
HETATM    6  C   UNL     1     -10.175  18.077  71.167  1.00  0.00     3.410 C  
BRANCH   6   7
HETATM    7  C   UNL     1      -9.818  17.987  69.687  1.00  0.00     0.413 C  
BRANCH   7   8
HETATM    8  C   UNL     1     -10.555  16.829  69.026  1.00  0.00    -0.343 C  
BRANCH   8   9
HETATM    9  C   UNL     1     -11.152  17.255  67.689  1.00  0.00    -0.002 C  
BRANCH   9  10
HETATM   10  C   UNL     1     -10.281  18.321  67.039  1.00  0.00    -0.392 C  
BRANCH  10  11
HETATM   11  C   UNL     1      -8.963  17.735  66.553  1.00  0.00    -0.280 C  
BRANCH  11  12
HETATM   12  C   UNL     1      -9.207  16.760  65.414  1.00  0.00     0.833 C  
BRANCH  12  13
HETATM   13  O   UNL     1     -10.585  16.821  65.067  1.00  0.00    -0.695 OA 
BRANCH  13  14
HETATM   14  C   UNL     1     -11.399  16.476  66.182  1.00  0.00     0.590 C  
BRANCH  14  15
HETATM   15  C   UNL     1     -10.912  15.164  66.771  1.00  0.00    -0.321 C  
BRANCH  15  16
HETATM   16  O   UNL     1     -10.421  14.354  65.709  1.00  0.00    -0.291 OA 
BRANCH  16  17
HETATM   17  C   UNL     1     -11.460  13.567  65.136  1.00  0.00    -0.301 C  
BRANCH  17  18
HETATM   18  C   UNL     1     -10.960  12.139  64.995  1.00  0.00    -0.309 C  
BRANCH  18  19
HETATM   19  O   UNL     1     -10.918  11.536  66.282  1.00  0.00    -0.285 OA 
BRANCH  19  20
HETATM   20  C   UNL     1     -10.125  12.300  67.193  1.00  0.00    -0.208 C  
BRANCH  20  21
HETATM   21  C   UNL     1      -8.674  11.852  67.067  1.00  0.00    -0.181 C  
BRANCH  21  22
HETATM   22  O   UNL     1      -7.825  12.984  67.282  1.00  0.00    -0.171 OA 
BRANCH  22  23
HETATM   23  C   UNL     1      -7.918  13.460  68.619  1.00  0.00    -0.056 C  
BRANCH  23  24
HETATM   24  C   UNL     1      -6.586  13.234  69.318  1.00  0.00    -0.093 C  
BRANCH  24  25
HETATM   25  O   UNL     1      -6.093  11.946  68.957  1.00  0.00    -0.061 OA 
BRANCH  25  26
HETATM   26  C   UNL     1      -5.468  11.304  70.061  1.00  0.00    -0.080 C  
BRANCH  26  27
HETATM   27  C   UNL     1      -5.151   9.867  69.677  1.00  0.00    -0.034 C  
BRANCH  27  28
HETATM   28  O   UNL     1      -5.441   9.015  70.781  1.00  0.00    -0.027 OA 
BRANCH  28  29
HETATM   29  C   UNL     1      -6.721   8.408  70.637  1.00  0.00    -0.038 C  
BRANCH  29  30
HETATM   30  C   UNL     1      -7.113   8.424  69.168  1.00  0.00    -0.064 C  
BRANCH  30  31
HETATM   31  O   UNL     1      -8.530   8.330  69.066  1.00  0.00    -0.128 OA 
BRANCH  31  32
HETATM   32  C   UNL     1      -9.035   7.251  69.848  1.00  0.00    -0.142 C  
BRANCH  32  33
HETATM   33  C   UNL     1      -8.256   5.988  69.511  1.00  0.00    -0.115 C  
BRANCH  33  34
HETATM   34  O   UNL     1      -8.113   5.888  68.097  1.00  0.00    -0.107 OA 
BRANCH  34  35
HETATM   35  C   UNL     1      -7.978   7.174  67.496  1.00  0.00    -0.113 C  
BRANCH  35  36
HETATM   36  C   UNL     1      -9.138   7.392  66.534  1.00  0.00    -0.162 C  
BRANCH  36  37
HETATM   37  O   UNL     1      -8.956   8.623  65.833  1.00  0.00    -0.177 OA 
BRANCH  37  38
HETATM   38  C   UNL     1      -8.049   8.456  64.735  1.00  0.00    -0.155 C  
BRANCH  38  39
HETATM   39  C   UNL     1      -8.783   7.733  63.612  1.00  0.00     0.617 C  
HETATM   40  O   UNL     1      -7.842   7.174  62.697  1.00  0.00    -0.124 OA 
HETATM   41  H   UNL     1      -8.300   6.724  61.997  1.00  0.00     0.000 HD 
ENDBRANCH  38  39
ENDBRANCH  37  38
ENDBRANCH  36  37
ENDBRANCH  35  36
ENDBRANCH  34  35
ENDBRANCH  33  34
ENDBRANCH  32  33
ENDBRANCH  31  32
ENDBRANCH  30  31
ENDBRANCH  29  30
ENDBRANCH  28  29
ENDBRANCH  27  28
ENDBRANCH  26  27
ENDBRANCH  25  26
ENDBRANCH  24  25
ENDBRANCH  23  24
ENDBRANCH  22  23
ENDBRANCH  21  22
ENDBRANCH  20  21
ENDBRANCH  19  20
ENDBRANCH  18  19
ENDBRANCH  17  18
ENDBRANCH  16  17
ENDBRANCH  15  16
ENDBRANCH  14  15
ENDBRANCH  13  14
ENDBRANCH  12  13
ENDBRANCH  11  12
ENDBRANCH  10  11
ENDBRANCH   9  10
ENDBRANCH   8   9
ENDBRANCH   7   8
ENDBRANCH   6   7
ENDBRANCH   5   6
ENDBRANCH   4   5
ENDBRANCH   3   4
ENDBRANCH   2   3
TORSDOF 37
ENDMDL
MODEL      251
REMARK 921   NORMALIZED FREE ENERGY PREDICTED BY IDOCK:   14.63 KCAL/MOL
REMARK 922        TOTAL FREE ENERGY PREDICTED BY IDOCK:   42.66 KCAL/MOL
REMARK 923 INTER-LIGAND FREE ENERGY PREDICTED BY IDOCK:   31.68 KCAL/MOL
REMARK 924 INTRA-LIGAND FREE ENERGY PREDICTED BY IDOCK:   10.98 KCAL/MOL
REMARK 927      BINDING AFFINITY PREDICTED BY RF-SCORE:    0.00 PKD
ROOT
HETATM    1  C   UNL     1      -8.135  10.788  64.174  1.00  0.00     0.163 C  
HETATM    2  C   UNL     1      -9.318  10.249  64.960  1.00  0.00    -0.290 C  
ENDROOT
BRANCH   2   3
HETATM    3  C   UNL     1     -10.070   9.188  64.161  1.00  0.00     2.448 C  
BRANCH   3   4
HETATM    4  C   UNL     1     -11.562   9.505  64.087  1.00  0.00     9.013 C  
BRANCH   4   5
HETATM    5  C   UNL     1     -11.851  10.888  64.665  1.00  0.00     1.395 C  
BRANCH   5   6
HETATM    6  C   UNL     1     -13.283  11.316  64.366  1.00  0.00     2.487 C  
BRANCH   6   7
HETATM    7  C   UNL     1     -13.734  12.406  65.333  1.00  0.00     3.815 C  
BRANCH   7   8
HETATM    8  C   UNL     1     -12.533  13.159  65.890  1.00  0.00    -0.386 C  
BRANCH   8   9
HETATM    9  C   UNL     1     -12.956  14.500  66.481  1.00  0.00     0.964 C  
BRANCH   9  10
HETATM   10  C   UNL     1     -12.888  15.589  65.418  1.00  0.00     1.312 C  
BRANCH  10  11
HETATM   11  C   UNL     1     -11.713  16.524  65.661  1.00  0.00     1.189 C  
BRANCH  11  12
HETATM   12  C   UNL     1     -10.639  16.307  64.609  1.00  0.00     0.243 C  
BRANCH  12  13
HETATM   13  O   UNL     1      -9.965  15.090  64.909  1.00  0.00    -0.273 OA 
BRANCH  13  14
HETATM   14  C   UNL     1     -10.800  14.230  65.677  1.00  0.00    -0.309 C  
BRANCH  14  15
HETATM   15  C   UNL     1     -10.784  14.680  67.126  1.00  0.00    -0.292 C  
BRANCH  15  16
HETATM   16  O   UNL     1      -9.598  14.179  67.734  1.00  0.00    -0.209 OA 
BRANCH  16  17
HETATM   17  C   UNL     1      -8.503  15.067  67.541  1.00  0.00    -0.174 C  
BRANCH  17  18
HETATM   18  C   UNL     1      -7.290  14.500  68.260  1.00  0.00    -0.120 C  
BRANCH  18  19
HETATM   19  O   UNL     1      -6.968  15.347  69.357  1.00  0.00    -0.153 OA 
BRANCH  19  20
HETATM   20  C   UNL     1      -8.020  16.274  69.631  1.00  0.00     0.261 C  
BRANCH  20  21
HETATM   21  C   UNL     1      -8.418  16.138  71.095  1.00  0.00     4.989 C  
BRANCH  21  22
HETATM   22  O   UNL     1      -7.324  15.563  71.816  1.00  0.00     3.080 OA 
BRANCH  22  23
HETATM   23  C   UNL     1      -7.188  14.175  71.539  1.00  0.00     3.021 C  
BRANCH  23  24
HETATM   24  C   UNL     1      -5.719  13.794  71.630  1.00  0.00    -0.141 C  
BRANCH  24  25
HETATM   25  O   UNL     1      -5.620  12.381  71.780  1.00  0.00    -0.375 OA 
BRANCH  25  26
HETATM   26  C   UNL     1      -6.474  11.704  70.866  1.00  0.00     1.198 C  
BRANCH  26  27
HETATM   27  C   UNL     1      -5.914  11.866  69.460  1.00  0.00    -0.098 C  
BRANCH  27  28
HETATM   28  O   UNL     1      -6.226  10.704  68.698  1.00  0.00    -0.046 OA 
BRANCH  28  29
HETATM   29  C   UNL     1      -7.352  10.931  67.855  1.00  0.00    -0.088 C  
BRANCH  29  30
HETATM   30  C   UNL     1      -8.374   9.830  68.091  1.00  0.00    -0.110 C  
BRANCH  30  31
HETATM   31  O   UNL     1      -7.948   9.030  69.189  1.00  0.00    -0.097 OA 
BRANCH  31  32
HETATM   32  C   UNL     1      -8.032   7.641  68.881  1.00  0.00    -0.125 C  
BRANCH  32  33
HETATM   33  C   UNL     1      -6.664   7.151  68.427  1.00  0.00    -0.057 C  
BRANCH  33  34
HETATM   34  O   UNL     1      -6.818   5.930  67.709  1.00  0.00    -0.057 OA 
BRANCH  34  35
HETATM   35  C   UNL     1      -6.434   6.078  66.344  1.00  0.00    -0.046 C  
BRANCH  35  36
HETATM   36  C   UNL     1      -7.582   6.716  65.575  1.00  0.00    -0.088 C  
BRANCH  36  37
HETATM   37  O   UNL     1      -8.511   5.708  65.172  1.00  0.00    -0.143 OA 
BRANCH  37  38
HETATM   38  C   UNL     1      -7.915   4.407  65.241  1.00  0.00    -0.101 C  
BRANCH  38  39
HETATM   39  C   UNL     1      -7.915   3.805  63.841  1.00  0.00    -0.088 C  
HETATM   40  O   UNL     1      -6.626   3.955  63.247  1.00  0.00    -0.032 OA 
HETATM   41  H   UNL     1      -6.626   3.580  62.375  1.00  0.00     0.000 HD 
ENDBRANCH  38  39
ENDBRANCH  37  38
ENDBRANCH  36  37
ENDBRANCH  35  36
ENDBRANCH  34  35
ENDBRANCH  33  34
ENDBRANCH  32  33
ENDBRANCH  31  32
ENDBRANCH  30  31
ENDBRANCH  29  30
ENDBRANCH  28  29
ENDBRANCH  27  28
ENDBRANCH  26  27
ENDBRANCH  25  26
ENDBRANCH  24  25
ENDBRANCH  23  24
ENDBRANCH  22  23
ENDBRANCH  21  22
ENDBRANCH  20  21
ENDBRANCH  19  20
ENDBRANCH  18  19
ENDBRANCH  17  18
ENDBRANCH  16  17
ENDBRANCH  15  16
ENDBRANCH  14  15
ENDBRANCH  13  14
ENDBRANCH  12  13
ENDBRANCH  11  12
ENDBRANCH  10  11
ENDBRANCH   9  10
ENDBRANCH   8   9
ENDBRANCH   7   8
ENDBRANCH   6   7
ENDBRANCH   5   6
ENDBRANCH   4   5
ENDBRANCH   3   4
ENDBRANCH   2   3
TORSDOF 37
ENDMDL
MODEL      252
REMARK 921   NORMALIZED FREE ENERGY PREDICTED BY IDOCK:   24.23 KCAL/MOL
REMARK 922        TOTAL FREE ENERGY PREDICTED BY IDOCK:   73.03 KCAL/MOL
REMARK 923 INTER-LIGAND FREE ENERGY PREDICTED BY IDOCK:   34.65 KCAL/MOL
REMARK 924 INTRA-LIGAND FREE ENERGY PREDICTED BY IDOCK:   38.38 KCAL/MOL
REMARK 927      BINDING AFFINITY PREDICTED BY RF-SCORE:    0.00 PKD
ROOT
HETATM    1  C   UNL     1      -8.808   8.440  69.763  1.00  0.00    -0.134 C  
HETATM    2  C   UNL     1      -7.953   8.811  68.564  1.00  0.00    -0.112 C  
ENDROOT
BRANCH   2   3
HETATM    3  C   UNL     1      -8.566   8.284  67.270  1.00  0.00    -0.124 C  
BRANCH   3   4
HETATM    4  C   UNL     1      -8.301   9.235  66.104  1.00  0.00    -0.122 C  
BRANCH   4   5
HETATM    5  C   UNL     1      -7.039   8.827  65.348  1.00  0.00    -0.083 C  
BRANCH   5   6
HETATM    6  C   UNL     1      -6.029   9.968  65.319  1.00  0.00    -0.097 C  
BRANCH   6   7
HETATM    7  C   UNL     1      -6.274  10.935  66.473  1.00  0.00    -0.122 C  
BRANCH   7   8
HETATM    8  C   UNL     1      -7.577  11.696  66.268  1.00  0.00     0.172 C  
BRANCH   8   9
HETATM    9  C   UNL     1      -7.317  13.189  66.096  1.00  0.00     2.756 C  
BRANCH   9  10
HETATM   10  C   UNL     1      -8.575  13.889  65.601  1.00  0.00     1.833 C  
BRANCH  10  11
HETATM   11  C   UNL     1      -9.819  13.071  65.910  1.00  0.00    -0.243 C  
BRANCH  11  12
HETATM   12  C   UNL     1     -10.423  13.507  67.234  1.00  0.00    -0.248 C  
BRANCH  12  13
HETATM   13  O   UNL     1     -11.058  12.380  67.824  1.00  0.00    -0.223 OA 
BRANCH  13  14
HETATM   14  C   UNL     1     -10.468  11.170  67.359  1.00  0.00    -0.220 C  
BRANCH  14  15
HETATM   15  C   UNL     1      -9.744  10.493  68.509  1.00  0.00    -0.165 C  
BRANCH  15  16
HETATM   16  O   UNL     1     -10.314  10.955  69.728  1.00  0.00    -0.127 OA 
BRANCH  16  17
HETATM   17  C   UNL     1     -10.160   9.995  70.768  1.00  0.00     0.171 C  
BRANCH  17  18
HETATM   18  C   UNL     1      -8.834  10.249  71.465  1.00  0.00     3.912 C  
BRANCH  18  19
HETATM   19  O   UNL     1      -9.052  10.289  72.870  1.00  0.00     6.322 OA 
BRANCH  19  20
HETATM   20  C   UNL     1     -10.071   9.369  73.269  1.00  0.00     4.222 C  
BRANCH  20  21
HETATM   21  C   UNL     1      -9.550   7.952  73.068  1.00  0.00    -0.276 C  
BRANCH  21  22
HETATM   22  O   UNL     1      -9.504   7.675  71.665  1.00  0.00    -0.145 OA 
BRANCH  22  23
HETATM   23  C   UNL     1     -10.807   7.637  71.097  1.00  0.00    -0.235 C  
BRANCH  23  24
HETATM   24  C   UNL     1     -11.832   7.873  72.196  1.00  0.00    -0.334 C  
BRANCH  24  25
HETATM   25  O   UNL     1     -11.935   9.274  72.433  1.00  0.00    -0.231 OA 
BRANCH  25  26
HETATM   26  C   UNL     1     -13.090   9.820  71.808  1.00  0.00    -0.431 C  
BRANCH  26  27
HETATM   27  C   UNL     1     -12.715  10.294  70.412  1.00  0.00    -0.175 C  
BRANCH  27  28
HETATM   28  O   UNL     1     -12.389   9.165  69.608  1.00  0.00     0.881 OA 
BRANCH  28  29
HETATM   29  C   UNL     1     -12.485   9.477  68.222  1.00  0.00     4.707 C  
BRANCH  29  30
HETATM   30  C   UNL     1     -11.206   9.036  67.528  1.00  0.00     0.591 C  
BRANCH  30  31
HETATM   31  O   UNL     1     -11.483   8.806  66.150  1.00  0.00     2.504 OA 
BRANCH  31  32
HETATM   32  C   UNL     1     -12.304   7.654  65.973  1.00  0.00    10.203 C  
BRANCH  32  33
HETATM   33  C   UNL     1     -11.532   6.422  66.425  1.00  0.00     1.133 C  
BRANCH  33  34
HETATM   34  O   UNL     1     -11.553   6.352  67.848  1.00  0.00     0.034 OA 
BRANCH  34  35
HETATM   35  C   UNL     1     -10.404   5.677  68.353  1.00  0.00    -0.196 C  
BRANCH  35  36
HETATM   36  C   UNL     1     -10.142   6.146  69.777  1.00  0.00    -0.181 C  
BRANCH  36  37
HETATM   37  O   UNL     1      -9.200   5.276  70.405  1.00  0.00    -0.140 OA 
BRANCH  37  38
HETATM   38  C   UNL     1      -9.865   4.180  71.046  1.00  0.00    -0.177 C  
BRANCH  38  39
HETATM   39  C   UNL     1      -9.790   4.390  72.554  1.00  0.00    -0.159 C  
HETATM   40  O   UNL     1      -9.093   3.304  73.162  1.00  0.00    -0.089 OA 
HETATM   41  H   UNL     1      -9.046   3.435  74.102  1.00  0.00     0.000 HD 
ENDBRANCH  38  39
ENDBRANCH  37  38
ENDBRANCH  36  37
ENDBRANCH  35  36
ENDBRANCH  34  35
ENDBRANCH  33  34
ENDBRANCH  32  33
ENDBRANCH  31  32
ENDBRANCH  30  31
ENDBRANCH  29  30
ENDBRANCH  28  29
ENDBRANCH  27  28
ENDBRANCH  26  27
ENDBRANCH  25  26
ENDBRANCH  24  25
ENDBRANCH  23  24
ENDBRANCH  22  23
ENDBRANCH  21  22
ENDBRANCH  20  21
ENDBRANCH  19  20
ENDBRANCH  18  19
ENDBRANCH  17  18
ENDBRANCH  16  17
ENDBRANCH  15  16
ENDBRANCH  14  15
ENDBRANCH  13  14
ENDBRANCH  12  13
ENDBRANCH  11  12
ENDBRANCH  10  11
ENDBRANCH   9  10
ENDBRANCH   8   9
ENDBRANCH   7   8
ENDBRANCH   6   7
ENDBRANCH   5   6
ENDBRANCH   4   5
ENDBRANCH   3   4
ENDBRANCH   2   3
TORSDOF 37
ENDMDL
MODEL      253
REMARK 921   NORMALIZED FREE ENERGY PREDICTED BY IDOCK:   27.07 KCAL/MOL
REMARK 922        TOTAL FREE ENERGY PREDICTED BY IDOCK:   81.99 KCAL/MOL
REMARK 923 INTER-LIGAND FREE ENERGY PREDICTED BY IDOCK:   17.83 KCAL/MOL
REMARK 924 INTRA-LIGAND FREE ENERGY PREDICTED BY IDOCK:   64.16 KCAL/MOL
REMARK 927      BINDING AFFINITY PREDICTED BY RF-SCORE:    0.00 PKD
ROOT
HETATM    1  C   UNL     1      -9.729   4.163  70.240  1.00  0.00    -0.277 C  
HETATM    2  C   UNL     1     -10.121   4.137  68.773  1.00  0.00     0.189 C  
ENDROOT
BRANCH   2   3
HETATM    3  C   UNL     1     -11.375   4.970  68.525  1.00  0.00     2.434 C  
BRANCH   3   4
HETATM    4  C   UNL     1     -11.486   6.115  69.529  1.00  0.00    -0.299 C  
BRANCH   4   5
HETATM    5  C   UNL     1     -10.423   5.986  70.617  1.00  0.00    -0.305 C  
BRANCH   5   6
HETATM    6  C   UNL     1      -9.720   4.636  70.534  1.00  0.00    -0.284 C  
BRANCH   6   7
HETATM    7  C   UNL     1      -9.089   4.440  69.160  1.00  0.00    -0.181 C  
BRANCH   7   8
HETATM    8  C   UNL     1      -7.599   4.152  69.290  1.00  0.00    -0.054 C  
BRANCH   8   9
HETATM    9  C   UNL     1      -6.844   4.608  68.046  1.00  0.00    -0.056 C  
BRANCH   9  10
HETATM   10  C   UNL     1      -7.282   6.012  67.650  1.00  0.00    -0.076 C  
BRANCH  10  11
HETATM   11  C   UNL     1      -7.689   6.826  68.869  1.00  0.00    -0.110 C  
BRANCH  11  12
HETATM   12  C   UNL     1      -9.201   6.840  69.015  1.00  0.00    -0.136 C  
BRANCH  12  13
HETATM   13  O   UNL     1      -9.532   7.677  70.115  1.00  0.00    -0.161 OA 
BRANCH  13  14
HETATM   14  C   UNL     1      -8.604   8.751  70.227  1.00  0.00    -0.152 C  
BRANCH  14  15
HETATM   15  C   UNL     1      -9.364  10.063  70.307  1.00  0.00     0.044 C  
BRANCH  15  16
HETATM   16  O   UNL     1      -8.635  10.949  71.148  1.00  0.00     3.463 OA 
BRANCH  16  17
HETATM   17  C   UNL     1      -7.417  11.359  70.536  1.00  0.00     2.382 C  
BRANCH  17  18
HETATM   18  C   UNL     1      -6.635  10.118  70.140  1.00  0.00    -0.128 C  
BRANCH  18  19
HETATM   19  O   UNL     1      -5.273  10.477  69.939  1.00  0.00    -0.038 OA 
BRANCH  19  20
HETATM   20  C   UNL     1      -5.148  11.577  69.036  1.00  0.00    -0.043 C  
BRANCH  20  21
HETATM   21  C   UNL     1      -6.122  12.669  69.463  1.00  0.00    -0.119 C  
BRANCH  21  22
HETATM   22  O   UNL     1      -6.776  13.180  68.298  1.00  0.00    -0.081 OA 
BRANCH  22  23
HETATM   23  C   UNL     1      -6.483  12.396  67.148  1.00  0.00    -0.094 C  
BRANCH  23  24
HETATM   24  C   UNL     1      -6.085  13.320  66.008  1.00  0.00     5.221 C  
BRANCH  24  25
HETATM   25  O   UNL     1      -5.459  14.478  66.555  1.00  0.00     1.760 OA 
BRANCH  25  26
HETATM   26  C   UNL     1      -5.880  14.708  67.894  1.00  0.00    -0.130 C  
BRANCH  26  27
HETATM   27  C   UNL     1      -7.371  15.012  67.893  1.00  0.00    -0.143 C  
BRANCH  27  28
HETATM   28  O   UNL     1      -7.681  15.829  69.018  1.00  0.00    -0.171 OA 
BRANCH  28  29
HETATM   29  C   UNL     1      -7.243  15.221  70.229  1.00  0.00     0.266 C  
BRANCH  29  30
HETATM   30  C   UNL     1      -7.747  13.787  70.272  1.00  0.00     1.821 C  
BRANCH  30  31
HETATM   31  O   UNL     1      -9.106  13.787  70.698  1.00  0.00     3.718 OA 
BRANCH  31  32
HETATM   32  C   UNL     1      -9.756  15.009  70.356  1.00  0.00     0.601 C  
BRANCH  32  33
HETATM   33  C   UNL     1     -11.096  15.074  71.074  1.00  0.00    -0.169 C  
BRANCH  33  34
HETATM   34  O   UNL     1     -12.055  14.312  70.347  1.00  0.00    -0.296 OA 
BRANCH  34  35
HETATM   35  C   UNL     1     -12.120  12.969  70.821  1.00  0.00    -0.179 C  
BRANCH  35  36
HETATM   36  C   UNL     1     -13.560  12.648  71.199  1.00  0.00     0.684 C  
BRANCH  36  37
HETATM   37  O   UNL     1     -13.653  11.290  71.631  1.00  0.00    -0.114 OA 
BRANCH  37  38
HETATM   38  C   UNL     1     -12.414  10.601  71.420  1.00  0.00    -0.390 C  
BRANCH  38  39
HETATM   39  C   UNL     1     -11.914  10.931  70.018  1.00  0.00    -0.350 C  
HETATM   40  O   UNL     1     -12.263   9.881  69.118  1.00  0.00    -0.220 OA 
HETATM   41  H   UNL     1     -11.952  10.087  68.245  1.00  0.00     0.000 HD 
ENDBRANCH  38  39
ENDBRANCH  37  38
ENDBRANCH  36  37
ENDBRANCH  35  36
ENDBRANCH  34  35
ENDBRANCH  33  34
ENDBRANCH  32  33
ENDBRANCH  31  32
ENDBRANCH  30  31
ENDBRANCH  29  30
ENDBRANCH  28  29
ENDBRANCH  27  28
ENDBRANCH  26  27
ENDBRANCH  25  26
ENDBRANCH  24  25
ENDBRANCH  23  24
ENDBRANCH  22  23
ENDBRANCH  21  22
ENDBRANCH  20  21
ENDBRANCH  19  20
ENDBRANCH  18  19
ENDBRANCH  17  18
ENDBRANCH  16  17
ENDBRANCH  15  16
ENDBRANCH  14  15
ENDBRANCH  13  14
ENDBRANCH  12  13
ENDBRANCH  11  12
ENDBRANCH  10  11
ENDBRANCH   9  10
ENDBRANCH   8   9
ENDBRANCH   7   8
ENDBRANCH   6   7
ENDBRANCH   5   6
ENDBRANCH   4   5
ENDBRANCH   3   4
ENDBRANCH   2   3
TORSDOF 37
ENDMDL
