MODEL        1
REMARK 921   NORMALIZED FREE ENERGY PREDICTED BY IDOCK:   -8.91 KCAL/MOL
REMARK 922        TOTAL FREE ENERGY PREDICTED BY IDOCK:  -12.59 KCAL/MOL
REMARK 923 INTER-LIGAND FREE ENERGY PREDICTED BY IDOCK:  -11.51 KCAL/MOL
REMARK 924 INTRA-LIGAND FREE ENERGY PREDICTED BY IDOCK:   -1.08 KCAL/MOL
REMARK 927      BINDING AFFINITY PREDICTED BY RF-SCORE:    0.00 PKD
ROOT
HETATM    1  O   UNL     1      -9.891  20.377  65.902  1.00  0.00    -0.642 OA 
HETATM    2  H   UNL     1     -10.403  20.585  65.129  1.00  0.00     0.000 HD 
HETATM    3  C   UNL     1     -10.623  19.569  66.817  1.00  0.00    -0.488 C  
ENDROOT
BRANCH   3   4
HETATM    4  C   UNL     1      -9.792  19.232  68.072  1.00  0.00    -0.365 C  
HETATM    5  O   UNL     1     -10.130  17.941  68.627  1.00  0.00    -0.362 OA 
HETATM    6  C   UNL     1      -9.665  16.805  67.869  1.00  0.00    -0.245 C  
HETATM    7  C   UNL     1      -8.117  16.874  67.725  1.00  0.00    -0.181 C  
HETATM    8  H   UNL     1      -7.668  19.044  65.353  1.00  0.00     0.000 HD 
HETATM    9  C   UNL     1      -7.657  18.207  67.123  1.00  0.00    -0.211 C  
HETATM   10  O   UNL     1      -7.451  16.703  68.994  1.00  0.00    -0.223 OA 
HETATM   11  H   UNL     1      -6.716  19.683  69.044  1.00  0.00     0.000 HD 
HETATM   12  C   UNL     1      -8.271  19.401  67.876  1.00  0.00    -0.306 C  
HETATM   13  H   UNL     1      -6.506  16.745  68.907  1.00  0.00     0.000 HD 
HETATM   14  O   UNL     1      -7.953  18.218  65.725  1.00  0.00    -0.513 OA 
HETATM   15  O   UNL     1      -7.653  19.579  69.165  1.00  0.00    -0.361 OA 
BRANCH   6  16
HETATM   16  O   UNL     1     -10.385  16.738  66.637  1.00  0.00    -0.301 OA 
BRANCH  16  17
HETATM   17  C   UNL     1     -10.877  15.546  66.194  1.00  0.00    -0.295 A  
HETATM   18  C   UNL     1     -11.914  14.108  64.578  1.00  0.00    -0.458 A  
HETATM   19  C   UNL     1     -12.111  13.132  65.547  1.00  0.00    -0.490 A  
HETATM   20  O   UNL     1     -12.381  13.862  63.318  1.00  0.00    -1.115 OA 
HETATM   21  C   UNL     1     -11.280  15.306  64.883  1.00  0.00    -0.422 A  
HETATM   22  H   UNL     1     -12.815  13.043  63.109  1.00  0.00     0.000 HD 
HETATM   23  C   UNL     1     -11.678  13.334  66.862  1.00  0.00    -0.437 A  
HETATM   24  C   UNL     1     -11.087  14.566  67.182  1.00  0.00    -0.325 A  
BRANCH  23  25
HETATM   25  C   UNL     1     -11.911  12.241  67.829  1.00  0.00    -0.341 C  
HETATM   26  C   UNL     1     -11.792  12.317  69.165  1.00  0.00    -0.355 C  
BRANCH  26  27
HETATM   27  C   UNL     1     -11.841  11.137  70.058  1.00  0.00    -0.441 A  
HETATM   28  C   UNL     1     -12.878  11.048  71.001  1.00  0.00    -0.442 A  
HETATM   29  C   UNL     1     -12.927  10.000  71.927  1.00  0.00    -0.547 A  
HETATM   30  C   UNL     1     -11.941   9.020  71.903  1.00  0.00    -0.375 A  
HETATM   31  C   UNL     1     -10.935   9.055  70.948  1.00  0.00    -0.332 A  
HETATM   32  O   UNL     1     -11.925   8.004  72.812  1.00  0.00    -0.576 OA 
HETATM   33  H   UNL     1     -11.252   7.334  72.796  1.00  0.00     0.000 HD 
HETATM   34  C   UNL     1     -10.887  10.106  70.025  1.00  0.00    -0.361 A  
ENDBRANCH  26  27
ENDBRANCH  23  25
ENDBRANCH  16  17
ENDBRANCH   6  16
ENDBRANCH   3   4
TORSDOF 5
ENDMDL
MODEL        2
REMARK 921   NORMALIZED FREE ENERGY PREDICTED BY IDOCK:   -8.87 KCAL/MOL
REMARK 922        TOTAL FREE ENERGY PREDICTED BY IDOCK:  -12.54 KCAL/MOL
REMARK 923 INTER-LIGAND FREE ENERGY PREDICTED BY IDOCK:  -11.42 KCAL/MOL
REMARK 924 INTRA-LIGAND FREE ENERGY PREDICTED BY IDOCK:   -1.12 KCAL/MOL
REMARK 927      BINDING AFFINITY PREDICTED BY RF-SCORE:    0.00 PKD
ROOT
HETATM    1  O   UNL     1      -9.765  20.479  65.835  1.00  0.00    -0.653 OA 
HETATM    2  H   UNL     1     -10.211  20.658  65.016  1.00  0.00     0.000 HD 
HETATM    3  C   UNL     1     -10.498  19.569  66.648  1.00  0.00    -0.488 C  
ENDROOT
BRANCH   3   4
HETATM    4  C   UNL     1      -9.773  19.280  67.978  1.00  0.00    -0.350 C  
HETATM    5  O   UNL     1     -10.146  18.004  68.544  1.00  0.00    -0.357 OA 
HETATM    6  C   UNL     1      -9.610  16.850  67.865  1.00  0.00    -0.244 C  
HETATM    7  C   UNL     1      -8.057  16.930  67.849  1.00  0.00    -0.188 C  
HETATM    8  H   UNL     1      -7.426  19.029  65.454  1.00  0.00     0.000 HD 
HETATM    9  C   UNL     1      -7.558  18.249  67.244  1.00  0.00    -0.217 C  
HETATM   10  O   UNL     1      -7.498  16.806  69.174  1.00  0.00    -0.239 OA 
HETATM   11  H   UNL     1      -6.793  19.794  69.189  1.00  0.00     0.000 HD 
HETATM   12  C   UNL     1      -8.242  19.459  67.905  1.00  0.00    -0.306 C  
HETATM   13  H   UNL     1      -6.549  16.855  69.165  1.00  0.00     0.000 HD 
HETATM   14  O   UNL     1      -7.735  18.212  65.827  1.00  0.00    -0.523 OA 
HETATM   15  O   UNL     1      -7.736  19.684  69.234  1.00  0.00    -0.312 OA 
BRANCH   6  16
HETATM   16  O   UNL     1     -10.224  16.736  66.580  1.00  0.00    -0.296 OA 
BRANCH  16  17
HETATM   17  C   UNL     1     -10.792  15.559  66.191  1.00  0.00    -0.295 A  
HETATM   18  C   UNL     1     -11.967  14.132  64.663  1.00  0.00    -0.445 A  
HETATM   19  C   UNL     1     -12.169  13.193  65.667  1.00  0.00    -0.521 A  
HETATM   20  O   UNL     1     -12.499  13.875  63.431  1.00  0.00    -1.068 OA 
HETATM   21  C   UNL     1     -11.262  15.304  64.907  1.00  0.00    -0.422 A  
HETATM   22  H   UNL     1     -12.981  13.074  63.264  1.00  0.00     0.000 HD 
HETATM   23  C   UNL     1     -11.670  13.409  66.957  1.00  0.00    -0.426 A  
HETATM   24  C   UNL     1     -11.007  14.618  67.216  1.00  0.00    -0.317 A  
BRANCH  23  25
HETATM   25  C   UNL     1     -11.915  12.356  67.963  1.00  0.00    -0.264 C  
HETATM   26  C   UNL     1     -11.998  12.525  69.293  1.00  0.00    -0.304 C  
BRANCH  26  27
HETATM   27  C   UNL     1     -12.041  11.403  70.259  1.00  0.00    -0.459 A  
HETATM   28  C   UNL     1     -11.056  10.405  70.177  1.00  0.00    -0.383 A  
HETATM   29  C   UNL     1     -11.095   9.279  71.006  1.00  0.00    -0.396 A  
HETATM   30  C   UNL     1     -12.119   9.152  71.939  1.00  0.00    -0.378 A  
HETATM   31  C   UNL     1     -13.074  10.148  72.077  1.00  0.00    -0.538 A  
HETATM   32  O   UNL     1     -12.220   8.052  72.739  1.00  0.00    -0.601 OA 
HETATM   33  H   UNL     1     -12.919   7.965  73.376  1.00  0.00     0.000 HD 
HETATM   34  C   UNL     1     -13.034  11.273  71.244  1.00  0.00    -0.427 A  
ENDBRANCH  26  27
ENDBRANCH  23  25
ENDBRANCH  16  17
ENDBRANCH   6  16
ENDBRANCH   3   4
TORSDOF 5
ENDMDL
MODEL        3
REMARK 921   NORMALIZED FREE ENERGY PREDICTED BY IDOCK:   -8.70 KCAL/MOL
REMARK 922        TOTAL FREE ENERGY PREDICTED BY IDOCK:  -12.32 KCAL/MOL
REMARK 923 INTER-LIGAND FREE ENERGY PREDICTED BY IDOCK:  -11.20 KCAL/MOL
REMARK 924 INTRA-LIGAND FREE ENERGY PREDICTED BY IDOCK:   -1.12 KCAL/MOL
REMARK 927      BINDING AFFINITY PREDICTED BY RF-SCORE:    0.00 PKD
ROOT
HETATM    1  O   UNL     1      -7.624  15.911  67.848  1.00  0.00    -0.125 OA 
HETATM    2  H   UNL     1      -7.698  15.250  68.527  1.00  0.00     0.000 HD 
HETATM    3  C   UNL     1      -7.895  17.215  68.351  1.00  0.00    -0.244 C  
ENDROOT
BRANCH   3   4
HETATM    4  C   UNL     1      -7.775  18.288  67.249  1.00  0.00    -0.219 C  
HETATM    5  O   UNL     1      -8.485  17.922  66.044  1.00  0.00    -0.498 OA 
HETATM    6  C   UNL     1      -9.923  18.001  66.129  1.00  0.00    -0.285 C  
HETATM    7  C   UNL     1     -10.343  19.449  66.511  1.00  0.00    -0.469 C  
HETATM    8  H   UNL     1      -9.827  19.573  69.714  1.00  0.00     0.000 HD 
HETATM    9  C   UNL     1      -9.653  19.925  67.796  1.00  0.00    -0.378 C  
HETATM   10  O   UNL     1     -10.035  20.393  65.463  1.00  0.00    -0.548 OA 
HETATM   11  H   UNL     1      -7.730  21.543  67.134  1.00  0.00     0.000 HD 
HETATM   12  C   UNL     1      -8.131  19.712  67.724  1.00  0.00    -0.301 C  
HETATM   13  H   UNL     1     -10.292  21.277  65.696  1.00  0.00     0.000 HD 
HETATM   14  O   UNL     1     -10.255  19.278  68.919  1.00  0.00    -0.392 OA 
HETATM   15  O   UNL     1      -7.511  20.665  66.840  1.00  0.00    -0.296 OA 
BRANCH   6  16
HETATM   16  O   UNL     1     -10.395  16.980  67.010  1.00  0.00    -0.305 OA 
BRANCH  16  17
HETATM   17  C   UNL     1     -10.877  15.808  66.508  1.00  0.00    -0.230 A  
HETATM   18  C   UNL     1     -11.894  14.442  64.819  1.00  0.00    -0.433 A  
HETATM   19  C   UNL     1     -12.091  13.419  65.740  1.00  0.00    -0.481 A  
HETATM   20  O   UNL     1     -12.351  14.252  63.546  1.00  0.00    -1.080 OA 
HETATM   21  C   UNL     1     -11.269  15.627  65.185  1.00  0.00    -0.286 A  
HETATM   22  H   UNL     1     -12.779  13.441  63.296  1.00  0.00     0.000 HD 
HETATM   23  C   UNL     1     -11.667  13.562  67.066  1.00  0.00    -0.424 A  
HETATM   24  C   UNL     1     -11.087  14.781  67.448  1.00  0.00    -0.327 A  
BRANCH  23  25
HETATM   25  C   UNL     1     -11.900  12.424  67.978  1.00  0.00    -0.376 C  
HETATM   26  C   UNL     1     -11.754  12.427  69.314  1.00  0.00    -0.386 C  
BRANCH  26  27
HETATM   27  C   UNL     1     -11.805  11.202  70.144  1.00  0.00    -0.449 A  
HETATM   28  C   UNL     1     -12.902  11.013  71.000  1.00  0.00    -0.442 A  
HETATM   29  C   UNL     1     -12.963   9.919  71.870  1.00  0.00    -0.545 A  
HETATM   30  C   UNL     1     -11.927   8.992  71.876  1.00  0.00    -0.375 A  
HETATM   31  C   UNL     1     -10.856   9.126  71.003  1.00  0.00    -0.362 A  
HETATM   32  O   UNL     1     -11.924   7.933  72.735  1.00  0.00    -0.581 OA 
HETATM   33  H   UNL     1     -11.216   7.300  72.740  1.00  0.00     0.000 HD 
HETATM   34  C   UNL     1     -10.797  10.223  70.136  1.00  0.00    -0.362 A  
ENDBRANCH  26  27
ENDBRANCH  23  25
ENDBRANCH  16  17
ENDBRANCH   6  16
ENDBRANCH   3   4
TORSDOF 5
ENDMDL
MODEL        4
REMARK 921   NORMALIZED FREE ENERGY PREDICTED BY IDOCK:   -8.33 KCAL/MOL
REMARK 922        TOTAL FREE ENERGY PREDICTED BY IDOCK:  -11.85 KCAL/MOL
REMARK 923 INTER-LIGAND FREE ENERGY PREDICTED BY IDOCK:  -11.32 KCAL/MOL
REMARK 924 INTRA-LIGAND FREE ENERGY PREDICTED BY IDOCK:   -0.53 KCAL/MOL
REMARK 927      BINDING AFFINITY PREDICTED BY RF-SCORE:    0.00 PKD
ROOT
HETATM    1  O   UNL     1     -11.517  16.549  63.745  1.00  0.00    -1.615 OA 
HETATM    2  H   UNL     1     -11.879  17.410  63.914  1.00  0.00     0.000 HD 
HETATM    3  C   UNL     1     -11.120  15.898  64.947  1.00  0.00    -0.389 C  
ENDROOT
BRANCH   3   4
HETATM    4  C   UNL     1     -10.532  14.499  64.672  1.00  0.00    -0.210 C  
HETATM    5  O   UNL     1      -9.868  13.942  65.828  1.00  0.00    -0.291 OA 
HETATM    6  C   UNL     1     -10.744  13.495  66.884  1.00  0.00    -0.274 C  
HETATM    7  C   UNL     1     -11.722  12.420  66.329  1.00  0.00    -0.395 C  
HETATM    8  H   UNL     1     -13.970  14.166  64.769  1.00  0.00     0.000 HD 
HETATM    9  C   UNL     1     -12.493  12.926  65.104  1.00  0.00    -0.501 C  
HETATM   10  O   UNL     1     -11.032  11.208  65.955  1.00  0.00    -0.213 OA 
HETATM   11  H   UNL     1     -11.432  11.863  62.982  1.00  0.00     0.000 HD 
HETATM   12  C   UNL     1     -11.540  13.511  64.047  1.00  0.00    -0.353 C  
HETATM   13  H   UNL     1     -11.629  10.551  65.616  1.00  0.00     0.000 HD 
HETATM   14  O   UNL     1     -13.493  13.853  65.528  1.00  0.00    -0.657 OA 
HETATM   15  O   UNL     1     -10.811  12.471  63.367  1.00  0.00    -0.439 OA 
BRANCH   6  16
HETATM   16  O   UNL     1     -11.369  14.631  67.484  1.00  0.00    -0.319 OA 
BRANCH  16  17
HETATM   17  C   UNL     1     -11.796  14.576  68.778  1.00  0.00    -0.315 A  
HETATM   18  C   UNL     1     -12.192  15.491  70.959  1.00  0.00    -0.396 A  
HETATM   19  C   UNL     1     -12.426  14.220  71.470  1.00  0.00    -0.435 A  
HETATM   20  O   UNL     1     -12.240  16.547  71.825  1.00  0.00    -0.574 OA 
HETATM   21  C   UNL     1     -11.901  15.683  69.614  1.00  0.00    -0.377 A  
HETATM   22  H   UNL     1     -12.439  16.416  72.745  1.00  0.00     0.000 HD 
HETATM   23  C   UNL     1     -12.367  13.095  70.639  1.00  0.00    -0.405 A  
HETATM   24  C   UNL     1     -12.018  13.285  69.293  1.00  0.00    -0.354 A  
BRANCH  23  25
HETATM   25  C   UNL     1     -12.643  11.782  71.256  1.00  0.00    -0.401 C  
HETATM   26  C   UNL     1     -12.178  10.591  70.842  1.00  0.00    -0.490 C  
BRANCH  26  27
HETATM   27  C   UNL     1     -12.655   9.296  71.379  1.00  0.00    -0.411 A  
HETATM   28  C   UNL     1     -11.710   8.387  71.883  1.00  0.00    -0.398 A  
HETATM   29  C   UNL     1     -12.093   7.115  72.324  1.00  0.00    -0.219 A  
HETATM   30  C   UNL     1     -13.434   6.751  72.279  1.00  0.00     0.253 A  
HETATM   31  C   UNL     1     -14.394   7.649  71.835  1.00  0.00    -0.536 A  
HETATM   32  O   UNL     1     -13.846   5.508  72.659  1.00  0.00    -0.304 OA 
HETATM   33  H   UNL     1     -14.762   5.258  72.629  1.00  0.00     0.000 HD 
HETATM   34  C   UNL     1     -14.008   8.919  71.392  1.00  0.00    -0.299 A  
ENDBRANCH  26  27
ENDBRANCH  23  25
ENDBRANCH  16  17
ENDBRANCH   6  16
ENDBRANCH   3   4
TORSDOF 5
ENDMDL
MODEL        5
REMARK 921   NORMALIZED FREE ENERGY PREDICTED BY IDOCK:   -8.09 KCAL/MOL
REMARK 922        TOTAL FREE ENERGY PREDICTED BY IDOCK:  -11.53 KCAL/MOL
REMARK 923 INTER-LIGAND FREE ENERGY PREDICTED BY IDOCK:  -10.73 KCAL/MOL
REMARK 924 INTRA-LIGAND FREE ENERGY PREDICTED BY IDOCK:   -0.80 KCAL/MOL
REMARK 927      BINDING AFFINITY PREDICTED BY RF-SCORE:    0.00 PKD
ROOT
HETATM    1  O   UNL     1     -11.621  16.092  63.892  1.00  0.00    -1.369 OA 
HETATM    2  H   UNL     1     -12.068  16.911  64.074  1.00  0.00     0.000 HD 
HETATM    3  C   UNL     1     -10.920  15.610  65.033  1.00  0.00    -0.431 C  
ENDROOT
BRANCH   3   4
HETATM    4  C   UNL     1     -10.195  14.281  64.737  1.00  0.00    -0.250 C  
HETATM    5  O   UNL     1      -9.685  13.652  65.935  1.00  0.00    -0.264 OA 
HETATM    6  C   UNL     1     -10.683  13.054  66.787  1.00  0.00    -0.262 C  
HETATM    7  C   UNL     1     -11.479  11.984  65.986  1.00  0.00    -0.338 C  
HETATM    8  H   UNL     1     -13.570  13.742  64.233  1.00  0.00     0.000 HD 
HETATM    9  C   UNL     1     -12.079  12.563  64.698  1.00  0.00    -0.428 C  
HETATM   10  O   UNL     1     -10.652  10.857  65.626  1.00  0.00    -0.236 OA 
HETATM   11  H   UNL     1     -10.618  11.777  62.697  1.00  0.00     0.000 HD 
HETATM   12  C   UNL     1     -11.015  13.303  63.870  1.00  0.00    -0.195 C  
HETATM   13  H   UNL     1     -11.137  10.203  65.136  1.00  0.00     0.000 HD 
HETATM   14  O   UNL     1     -13.199  13.384  65.031  1.00  0.00    -0.715 OA 
HETATM   15  O   UNL     1     -10.113  12.379  63.232  1.00  0.00    -0.398 OA 
BRANCH   6  16
HETATM   16  O   UNL     1     -11.478  14.087  67.373  1.00  0.00    -0.312 OA 
BRANCH  16  17
HETATM   17  C   UNL     1     -11.972  13.941  68.635  1.00  0.00    -0.366 A  
HETATM   18  C   UNL     1     -12.789  14.754  70.738  1.00  0.00    -0.361 A  
HETATM   19  C   UNL     1     -12.683  13.483  71.291  1.00  0.00    -0.432 A  
HETATM   20  O   UNL     1     -13.210  15.770  71.549  1.00  0.00    -0.490 OA 
HETATM   21  C   UNL     1     -12.460  14.989  69.409  1.00  0.00    -0.076 A  
HETATM   22  H   UNL     1     -13.435  15.609  72.457  1.00  0.00     0.000 HD 
HETATM   23  C   UNL     1     -12.235  12.405  70.520  1.00  0.00    -0.382 A  
HETATM   24  C   UNL     1     -11.850  12.655  69.194  1.00  0.00    -0.349 A  
BRANCH  23  25
HETATM   25  C   UNL     1     -12.166  11.084  71.177  1.00  0.00    -0.415 C  
HETATM   26  C   UNL     1     -11.179  10.181  71.054  1.00  0.00    -0.322 C  
BRANCH  26  27
HETATM   27  C   UNL     1     -11.267   8.798  71.576  1.00  0.00    -0.377 A  
HETATM   28  C   UNL     1     -12.152   7.899  70.958  1.00  0.00    -0.246 A  
HETATM   29  C   UNL     1     -12.340   6.607  71.460  1.00  0.00    -0.365 A  
HETATM   30  C   UNL     1     -11.627   6.199  72.581  1.00  0.00    -0.197 A  
HETATM   31  C   UNL     1     -10.707   7.048  73.179  1.00  0.00    -0.359 A  
HETATM   32  O   UNL     1     -11.809   4.963  73.130  1.00  0.00    -0.422 OA 
HETATM   33  H   UNL     1     -11.321   4.684  73.896  1.00  0.00     0.000 HD 
HETATM   34  C   UNL     1     -10.523   8.341  72.676  1.00  0.00    -0.373 A  
ENDBRANCH  26  27
ENDBRANCH  23  25
ENDBRANCH  16  17
ENDBRANCH   6  16
ENDBRANCH   3   4
TORSDOF 5
ENDMDL
MODEL        6
REMARK 921   NORMALIZED FREE ENERGY PREDICTED BY IDOCK:   -7.94 KCAL/MOL
REMARK 922        TOTAL FREE ENERGY PREDICTED BY IDOCK:  -11.34 KCAL/MOL
REMARK 923 INTER-LIGAND FREE ENERGY PREDICTED BY IDOCK:  -10.44 KCAL/MOL
REMARK 924 INTRA-LIGAND FREE ENERGY PREDICTED BY IDOCK:   -0.90 KCAL/MOL
REMARK 927      BINDING AFFINITY PREDICTED BY RF-SCORE:    0.00 PKD
ROOT
HETATM    1  O   UNL     1     -11.608  16.238  63.883  1.00  0.00    -1.489 OA 
HETATM    2  H   UNL     1     -12.169  15.549  63.547  1.00  0.00     0.000 HD 
HETATM    3  C   UNL     1     -11.104  15.926  65.177  1.00  0.00    -0.311 C  
ENDROOT
BRANCH   3   4
HETATM    4  C   UNL     1     -10.194  17.045  65.721  1.00  0.00    -0.245 C  
HETATM    5  O   UNL     1     -10.715  17.641  66.930  1.00  0.00    -0.273 OA 
HETATM    6  C   UNL     1     -10.613  16.822  68.113  1.00  0.00    -0.350 C  
HETATM    7  C   UNL     1      -9.123  16.455  68.364  1.00  0.00    -0.214 C  
HETATM    8  H   UNL     1      -8.565  14.046  66.260  1.00  0.00     0.000 HD 
HETATM    9  C   UNL     1      -8.481  15.794  67.137  1.00  0.00    -0.208 C  
HETATM   10  O   UNL     1      -8.334  17.613  68.712  1.00  0.00    -0.279 OA 
HETATM   11  H   UNL     1      -6.986  17.560  65.954  1.00  0.00     0.000 HD 
HETATM   12  C   UNL     1      -8.715  16.630  65.867  1.00  0.00    -0.066 C  
HETATM   13  H   UNL     1      -7.424  17.389  68.865  1.00  0.00     0.000 HD 
HETATM   14  O   UNL     1      -8.963  14.455  67.020  1.00  0.00    -0.218 OA 
HETATM   15  O   UNL     1      -7.897  17.816  65.864  1.00  0.00    -0.515 OA 
BRANCH   6  16
HETATM   16  O   UNL     1     -11.499  15.708  67.988  1.00  0.00    -0.345 OA 
BRANCH  16  17
HETATM   17  C   UNL     1     -12.014  15.112  69.101  1.00  0.00    -0.274 A  
HETATM   18  C   UNL     1     -12.940  15.110  71.313  1.00  0.00    -0.407 A  
HETATM   19  C   UNL     1     -12.759  13.735  71.407  1.00  0.00    -0.450 A  
HETATM   20  O   UNL     1     -13.452  15.762  72.398  1.00  0.00    -0.477 OA 
HETATM   21  C   UNL     1     -12.594  15.803  70.160  1.00  0.00    -0.156 A  
HETATM   22  H   UNL     1     -13.688  15.289  73.187  1.00  0.00     0.000 HD 
HETATM   23  C   UNL     1     -12.216  13.013  70.338  1.00  0.00    -0.386 A  
HETATM   24  C   UNL     1     -11.815  13.722  69.196  1.00  0.00    -0.398 A  
BRANCH  23  25
HETATM   25  C   UNL     1     -12.070  11.553  70.512  1.00  0.00    -0.472 C  
HETATM   26  C   UNL     1     -12.814  10.764  71.304  1.00  0.00    -0.540 C  
BRANCH  26  27
HETATM   27  C   UNL     1     -12.486   9.348  71.587  1.00  0.00    -0.460 A  
HETATM   28  C   UNL     1     -11.150   9.004  71.851  1.00  0.00    -0.433 A  
HETATM   29  C   UNL     1     -10.768   7.672  72.040  1.00  0.00    -0.270 A  
HETATM   30  C   UNL     1     -11.731   6.670  71.981  1.00  0.00    -0.313 A  
HETATM   31  C   UNL     1     -13.066   6.986  71.775  1.00  0.00    -0.343 A  
HETATM   32  O   UNL     1     -11.398   5.354  72.118  1.00  0.00    -0.191 OA 
HETATM   33  H   UNL     1     -12.056   4.670  72.079  1.00  0.00     0.000 HD 
HETATM   34  C   UNL     1     -13.444   8.320  71.584  1.00  0.00    -0.358 A  
ENDBRANCH  26  27
ENDBRANCH  23  25
ENDBRANCH  16  17
ENDBRANCH   6  16
ENDBRANCH   3   4
TORSDOF 5
ENDMDL
MODEL        7
REMARK 921   NORMALIZED FREE ENERGY PREDICTED BY IDOCK:   -7.72 KCAL/MOL
REMARK 922        TOTAL FREE ENERGY PREDICTED BY IDOCK:  -11.05 KCAL/MOL
REMARK 923 INTER-LIGAND FREE ENERGY PREDICTED BY IDOCK:  -10.14 KCAL/MOL
REMARK 924 INTRA-LIGAND FREE ENERGY PREDICTED BY IDOCK:   -0.91 KCAL/MOL
REMARK 927      BINDING AFFINITY PREDICTED BY RF-SCORE:    0.00 PKD
ROOT
HETATM    1  O   UNL     1     -10.006  15.617  70.141  1.00  0.00    -0.263 OA 
HETATM    2  H   UNL     1     -10.848  15.338  70.480  1.00  0.00     0.000 HD 
HETATM    3  C   UNL     1     -10.115  16.811  69.373  1.00  0.00    -0.177 C  
ENDROOT
BRANCH   3   4
HETATM    4  C   UNL     1      -8.747  17.264  68.824  1.00  0.00    -0.232 C  
HETATM    5  O   UNL     1      -8.343  16.510  67.660  1.00  0.00    -0.163 OA 
HETATM    6  C   UNL     1      -9.063  16.816  66.448  1.00  0.00    -0.289 C  
HETATM    7  C   UNL     1      -8.906  18.327  66.117  1.00  0.00    -0.091 C  
HETATM    8  H   UNL     1     -11.019  19.769  68.116  1.00  0.00     0.000 HD 
HETATM    9  C   UNL     1      -9.331  19.217  67.292  1.00  0.00    -0.306 C  
HETATM   10  O   UNL     1      -7.545  18.664  65.771  1.00  0.00    -0.478 OA 
HETATM   11  H   UNL     1      -7.183  20.098  68.462  1.00  0.00     0.000 HD 
HETATM   12  C   UNL     1      -8.640  18.786  68.598  1.00  0.00    -0.323 C  
HETATM   13  H   UNL     1      -7.448  19.587  65.570  1.00  0.00     0.000 HD 
HETATM   14  O   UNL     1     -10.756  19.218  67.388  1.00  0.00    -0.463 OA 
HETATM   15  O   UNL     1      -7.249  19.160  68.601  1.00  0.00    -0.292 OA 
BRANCH   6  16
HETATM   16  O   UNL     1     -10.411  16.361  66.578  1.00  0.00    -0.293 OA 
BRANCH  16  17
HETATM   17  C   UNL     1     -10.757  15.110  66.160  1.00  0.00    -0.325 A  
HETATM   18  C   UNL     1     -11.494  13.505  64.537  1.00  0.00    -0.381 A  
HETATM   19  C   UNL     1     -11.720  12.569  65.539  1.00  0.00    -0.457 A  
HETATM   20  O   UNL     1     -11.798  13.153  63.253  1.00  0.00    -0.727 OA 
HETATM   21  C   UNL     1     -10.992  14.767  64.832  1.00  0.00    -0.425 A  
HETATM   22  H   UNL     1     -12.142  12.291  63.051  1.00  0.00     0.000 HD 
HETATM   23  C   UNL     1     -11.452  12.877  66.877  1.00  0.00    -0.393 A  
HETATM   24  C   UNL     1     -10.998  14.170  67.180  1.00  0.00    -0.304 A  
BRANCH  23  25
HETATM   25  C   UNL     1     -11.705  11.823  67.880  1.00  0.00    -0.347 C  
HETATM   26  C   UNL     1     -11.839  11.996  69.205  1.00  0.00    -0.377 C  
BRANCH  26  27
HETATM   27  C   UNL     1     -11.888  10.877  70.175  1.00  0.00    -0.438 A  
HETATM   28  C   UNL     1     -10.904   9.877  70.100  1.00  0.00    -0.356 A  
HETATM   29  C   UNL     1     -10.949   8.754  70.933  1.00  0.00    -0.315 A  
HETATM   30  C   UNL     1     -11.976   8.633  71.862  1.00  0.00    -0.356 A  
HETATM   31  C   UNL     1     -12.930   9.631  71.993  1.00  0.00    -0.518 A  
HETATM   32  O   UNL     1     -12.082   7.535  72.666  1.00  0.00    -0.537 OA 
HETATM   33  H   UNL     1     -12.784   7.452  73.301  1.00  0.00     0.000 HD 
HETATM   34  C   UNL     1     -12.884  10.752  71.157  1.00  0.00    -0.513 A  
ENDBRANCH  26  27
ENDBRANCH  23  25
ENDBRANCH  16  17
ENDBRANCH   6  16
ENDBRANCH   3   4
TORSDOF 5
ENDMDL
MODEL        8
REMARK 921   NORMALIZED FREE ENERGY PREDICTED BY IDOCK:   -7.69 KCAL/MOL
REMARK 922        TOTAL FREE ENERGY PREDICTED BY IDOCK:  -11.02 KCAL/MOL
REMARK 923 INTER-LIGAND FREE ENERGY PREDICTED BY IDOCK:   -9.95 KCAL/MOL
REMARK 924 INTRA-LIGAND FREE ENERGY PREDICTED BY IDOCK:   -1.06 KCAL/MOL
REMARK 927      BINDING AFFINITY PREDICTED BY RF-SCORE:    0.00 PKD
ROOT
HETATM    1  O   UNL     1      -7.135  17.464  68.948  1.00  0.00    -0.235 OA 
HETATM    2  H   UNL     1      -6.976  16.897  69.693  1.00  0.00     0.000 HD 
HETATM    3  C   UNL     1      -7.634  16.739  67.830  1.00  0.00    -0.167 C  
ENDROOT
BRANCH   3   4
HETATM    4  C   UNL     1      -7.892  17.662  66.621  1.00  0.00    -0.248 C  
HETATM    5  O   UNL     1      -8.934  17.159  65.756  1.00  0.00    -0.523 OA 
HETATM    6  C   UNL     1     -10.274  17.272  66.278  1.00  0.00    -0.342 C  
HETATM    7  C   UNL     1     -10.587  18.764  66.588  1.00  0.00    -0.383 C  
HETATM    8  H   UNL     1      -9.096  19.283  69.424  1.00  0.00     0.000 HD 
HETATM    9  C   UNL     1      -9.541  19.387  67.520  1.00  0.00    -0.326 C  
HETATM   10  O   UNL     1     -10.646  19.562  65.387  1.00  0.00    -0.467 OA 
HETATM   11  H   UNL     1      -7.961  20.875  66.090  1.00  0.00     0.000 HD 
HETATM   12  C   UNL     1      -8.113  19.140  67.001  1.00  0.00    -0.262 C  
HETATM   13  H   UNL     1     -10.837  20.474  65.575  1.00  0.00     0.000 HD 
HETATM   14  O   UNL     1      -9.744  18.898  68.847  1.00  0.00    -0.382 OA 
HETATM   15  O   UNL     1      -7.825  19.964  65.855  1.00  0.00    -0.348 OA 
BRANCH   6  16
HETATM   16  O   UNL     1     -10.422  16.380  67.384  1.00  0.00    -0.301 OA 
BRANCH  16  17
HETATM   17  C   UNL     1     -10.918  15.124  67.191  1.00  0.00    -0.326 A  
HETATM   18  C   UNL     1     -12.131  13.447  65.979  1.00  0.00    -0.438 A  
HETATM   19  C   UNL     1     -12.115  12.609  67.088  1.00  0.00    -0.192 A  
HETATM   20  O   UNL     1     -12.786  13.015  64.861  1.00  0.00    -0.706 OA 
HETATM   21  C   UNL     1     -11.518  14.693  66.012  1.00  0.00    -0.332 A  
HETATM   22  H   UNL     1     -13.206  12.163  64.839  1.00  0.00     0.000 HD 
HETATM   23  C   UNL     1     -11.483  13.004  68.272  1.00  0.00    -0.347 A  
HETATM   24  C   UNL     1     -10.912  14.285  68.321  1.00  0.00    -0.261 A  
BRANCH  23  25
HETATM   25  C   UNL     1     -11.497  12.050  69.399  1.00  0.00    -0.361 C  
HETATM   26  C   UNL     1     -10.672  11.003  69.571  1.00  0.00    -0.231 C  
BRANCH  26  27
HETATM   27  C   UNL     1     -10.870   9.970  70.613  1.00  0.00    -0.367 A  
HETATM   28  C   UNL     1      -9.760   9.222  71.040  1.00  0.00    -0.341 A  
HETATM   29  C   UNL     1      -9.901   8.176  71.958  1.00  0.00    -0.298 A  
HETATM   30  C   UNL     1     -11.159   7.882  72.471  1.00  0.00    -0.362 A  
HETATM   31  C   UNL     1     -12.264   8.639  72.107  1.00  0.00    -0.453 A  
HETATM   32  O   UNL     1     -11.350   6.845  73.337  1.00  0.00    -0.508 OA 
HETATM   33  H   UNL     1     -12.210   6.644  73.687  1.00  0.00     0.000 HD 
HETATM   34  C   UNL     1     -12.120   9.683  71.186  1.00  0.00    -0.448 A  
ENDBRANCH  26  27
ENDBRANCH  23  25
ENDBRANCH  16  17
ENDBRANCH   6  16
ENDBRANCH   3   4
TORSDOF 5
ENDMDL
MODEL        9
REMARK 921   NORMALIZED FREE ENERGY PREDICTED BY IDOCK:   -7.63 KCAL/MOL
REMARK 922        TOTAL FREE ENERGY PREDICTED BY IDOCK:  -10.94 KCAL/MOL
REMARK 923 INTER-LIGAND FREE ENERGY PREDICTED BY IDOCK:   -9.90 KCAL/MOL
REMARK 924 INTRA-LIGAND FREE ENERGY PREDICTED BY IDOCK:   -1.04 KCAL/MOL
REMARK 927      BINDING AFFINITY PREDICTED BY RF-SCORE:    0.00 PKD
ROOT
HETATM    1  O   UNL     1      -8.589  11.940  66.030  1.00  0.00    -0.386 OA 
HETATM    2  H   UNL     1      -7.936  11.821  66.710  1.00  0.00     0.000 HD 
HETATM    3  C   UNL     1      -9.912  11.854  66.547  1.00  0.00    -0.202 C  
ENDROOT
BRANCH   3   4
HETATM    4  C   UNL     1     -10.970  12.047  65.442  1.00  0.00    -0.300 C  
HETATM    5  O   UNL     1     -12.241  12.491  65.967  1.00  0.00    -0.605 OA 
HETATM    6  C   UNL     1     -12.279  13.865  66.406  1.00  0.00    -0.449 C  
HETATM    7  C   UNL     1     -11.896  14.800  65.223  1.00  0.00    -0.276 C  
HETATM    8  H   UNL     1      -8.659  14.592  65.104  1.00  0.00     0.000 HD 
HETATM    9  C   UNL     1     -10.545  14.418  64.607  1.00  0.00    -0.306 C  
HETATM   10  O   UNL     1     -12.888  14.774  64.175  1.00  0.00    -0.678 OA 
HETATM   11  H   UNL     1     -10.995  13.156  62.380  1.00  0.00     0.000 HD 
HETATM   12  C   UNL     1     -10.490  12.919  64.264  1.00  0.00    -0.407 C  
HETATM   13  H   UNL     1     -12.655  15.345  63.452  1.00  0.00     0.000 HD 
HETATM   14  O   UNL     1      -9.496  14.829  65.486  1.00  0.00    -0.216 OA 
HETATM   15  O   UNL     1     -11.291  12.619  63.106  1.00  0.00    -0.397 OA 
BRANCH   6  16
HETATM   16  O   UNL     1     -11.469  14.004  67.575  1.00  0.00    -0.307 OA 
BRANCH  16  17
HETATM   17  C   UNL     1     -12.016  13.839  68.813  1.00  0.00    -0.365 A  
HETATM   18  C   UNL     1     -12.963  14.620  70.874  1.00  0.00    -0.365 A  
HETATM   19  C   UNL     1     -12.834  13.355  71.434  1.00  0.00    -0.420 A  
HETATM   20  O   UNL     1     -13.462  15.619  71.661  1.00  0.00    -0.490 OA 
HETATM   21  C   UNL     1     -12.581  14.868  69.561  1.00  0.00    -0.028 A  
HETATM   22  H   UNL     1     -13.723  15.450  72.558  1.00  0.00     0.000 HD 
HETATM   23  C   UNL     1     -12.307  12.295  70.687  1.00  0.00    -0.375 A  
HETATM   24  C   UNL     1     -11.869  12.559  69.380  1.00  0.00    -0.368 A  
BRANCH  23  25
HETATM   25  C   UNL     1     -12.217  10.978  71.349  1.00  0.00    -0.292 C  
HETATM   26  C   UNL     1     -11.231  10.076  71.205  1.00  0.00    -0.339 C  
BRANCH  26  27
HETATM   27  C   UNL     1     -11.302   8.696  71.737  1.00  0.00    -0.393 A  
HETATM   28  C   UNL     1     -12.304   7.838  71.255  1.00  0.00    -0.314 A  
HETATM   29  C   UNL     1     -12.473   6.553  71.782  1.00  0.00    -0.293 A  
HETATM   30  C   UNL     1     -11.623   6.111  72.789  1.00  0.00    -0.132 A  
HETATM   31  C   UNL     1     -10.591   6.917  73.246  1.00  0.00    -0.353 A  
HETATM   32  O   UNL     1     -11.776   4.882  73.361  1.00  0.00    -0.461 OA 
HETATM   33  H   UNL     1     -11.196   4.579  74.049  1.00  0.00     0.000 HD 
HETATM   34  C   UNL     1     -10.427   8.204  72.719  1.00  0.00    -0.385 A  
ENDBRANCH  26  27
ENDBRANCH  23  25
ENDBRANCH  16  17
ENDBRANCH   6  16
ENDBRANCH   3   4
TORSDOF 5
ENDMDL
MODEL       10
REMARK 921   NORMALIZED FREE ENERGY PREDICTED BY IDOCK:   -7.57 KCAL/MOL
REMARK 922        TOTAL FREE ENERGY PREDICTED BY IDOCK:  -10.87 KCAL/MOL
REMARK 923 INTER-LIGAND FREE ENERGY PREDICTED BY IDOCK:   -9.80 KCAL/MOL
REMARK 924 INTRA-LIGAND FREE ENERGY PREDICTED BY IDOCK:   -1.07 KCAL/MOL
REMARK 927      BINDING AFFINITY PREDICTED BY RF-SCORE:    0.00 PKD
ROOT
HETATM    1  O   UNL     1      -8.918  10.144  68.356  1.00  0.00    -0.119 OA 
HETATM    2  H   UNL     1      -8.670  10.859  68.929  1.00  0.00     0.000 HD 
HETATM    3  C   UNL     1      -7.882   9.823  67.434  1.00  0.00    -0.099 C  
ENDROOT
BRANCH   3   4
HETATM    4  C   UNL     1      -8.286   8.661  66.503  1.00  0.00    -0.108 C  
HETATM    5  O   UNL     1      -9.546   8.899  65.837  1.00  0.00    -0.253 OA 
HETATM    6  C   UNL     1      -9.508   9.885  64.784  1.00  0.00    -0.291 C  
HETATM    7  C   UNL     1      -8.471   9.456  63.707  1.00  0.00    -0.195 C  
HETATM    8  H   UNL     1      -5.620  10.283  65.021  1.00  0.00     0.000 HD 
HETATM    9  C   UNL     1      -7.088   9.196  64.317  1.00  0.00    -0.095 C  
HETATM   10  O   UNL     1      -8.883   8.261  63.009  1.00  0.00    -0.403 OA 
HETATM   11  H   UNL     1      -6.743   6.625  64.482  1.00  0.00     0.000 HD 
HETATM   12  C   UNL     1      -7.177   8.238  65.517  1.00  0.00    -0.071 C  
HETATM   13  H   UNL     1      -8.250   7.999  62.351  1.00  0.00     0.000 HD 
HETATM   14  O   UNL     1      -6.477  10.445  64.644  1.00  0.00    -0.121 OA 
HETATM   15  O   UNL     1      -7.427   6.885  65.089  1.00  0.00    -0.083 OA 
BRANCH   6  16
HETATM   16  O   UNL     1      -9.287  11.174  65.359  1.00  0.00    -0.212 OA 
BRANCH  16  17
HETATM   17  C   UNL     1     -10.296  12.091  65.397  1.00  0.00    -0.266 A  
HETATM   18  C   UNL     1     -11.845  13.635  64.413  1.00  0.00    -0.424 A  
HETATM   19  C   UNL     1     -12.143  14.161  65.665  1.00  0.00    -0.425 A  
HETATM   20  O   UNL     1     -12.453  14.192  63.325  1.00  0.00    -1.146 OA 
HETATM   21  C   UNL     1     -10.944  12.587  64.270  1.00  0.00    -0.401 A  
HETATM   22  H   UNL     1     -13.069  14.908  63.422  1.00  0.00     0.000 HD 
HETATM   23  C   UNL     1     -11.534  13.650  66.817  1.00  0.00    -0.370 A  
HETATM   24  C   UNL     1     -10.583  12.630  66.665  1.00  0.00    -0.267 A  
BRANCH  23  25
HETATM   25  C   UNL     1     -11.916  14.254  68.110  1.00  0.00    -0.343 C  
HETATM   26  C   UNL     1     -11.276  14.103  69.282  1.00  0.00    -0.308 C  
BRANCH  26  27
HETATM   27  C   UNL     1     -11.824  14.568  70.577  1.00  0.00    -0.372 A  
HETATM   28  C   UNL     1     -11.375  15.793  71.098  1.00  0.00    -0.442 A  
HETATM   29  C   UNL     1     -11.792  16.241  72.356  1.00  0.00    -0.606 A  
HETATM   30  C   UNL     1     -12.679  15.469  73.097  1.00  0.00    -0.478 A  
HETATM   31  C   UNL     1     -13.179  14.281  72.584  1.00  0.00    -0.601 A  
HETATM   32  O   UNL     1     -13.081  15.846  74.345  1.00  0.00    -0.847 OA 
HETATM   33  H   UNL     1     -13.687  15.318  74.852  1.00  0.00     0.000 HD 
HETATM   34  C   UNL     1     -12.758  13.834  71.326  1.00  0.00    -0.450 A  
ENDBRANCH  26  27
ENDBRANCH  23  25
ENDBRANCH  16  17
ENDBRANCH   6  16
ENDBRANCH   3   4
TORSDOF 5
ENDMDL
MODEL       11
REMARK 921   NORMALIZED FREE ENERGY PREDICTED BY IDOCK:   -7.43 KCAL/MOL
REMARK 922        TOTAL FREE ENERGY PREDICTED BY IDOCK:  -10.68 KCAL/MOL
REMARK 923 INTER-LIGAND FREE ENERGY PREDICTED BY IDOCK:   -9.67 KCAL/MOL
REMARK 924 INTRA-LIGAND FREE ENERGY PREDICTED BY IDOCK:   -1.01 KCAL/MOL
REMARK 927      BINDING AFFINITY PREDICTED BY RF-SCORE:    0.00 PKD
ROOT
HETATM    1  O   UNL     1      -8.815   5.704  71.374  1.00  0.00    -0.134 OA 
HETATM    2  H   UNL     1      -8.242   6.129  72.002  1.00  0.00     0.000 HD 
HETATM    3  C   UNL     1      -8.222   5.634  70.082  1.00  0.00    -0.114 C  
ENDROOT
BRANCH   3   4
HETATM    4  C   UNL     1      -9.153   4.945  69.063  1.00  0.00    -0.111 C  
HETATM    5  O   UNL     1     -10.542   5.288  69.265  1.00  0.00    -0.225 OA 
HETATM    6  C   UNL     1     -10.907   6.627  68.871  1.00  0.00    -0.277 C  
HETATM    7  C   UNL     1     -10.576   6.835  67.366  1.00  0.00    -0.302 C  
HETATM    8  H   UNL     1      -7.373   7.364  67.356  1.00  0.00     0.000 HD 
HETATM    9  C   UNL     1      -9.110   6.513  67.052  1.00  0.00    -0.128 C  
HETATM   10  O   UNL     1     -11.406   6.017  66.514  1.00  0.00    -0.737 OA 
HETATM   11  H   UNL     1      -9.019   4.185  65.899  1.00  0.00     0.000 HD 
HETATM   12  C   UNL     1      -8.714   5.128  67.596  1.00  0.00    -0.103 C  
HETATM   13  H   UNL     1     -11.204   6.143  65.594  1.00  0.00     0.000 HD 
HETATM   14  O   UNL     1      -8.281   7.565  67.549  1.00  0.00    -0.112 OA 
HETATM   15  O   UNL     1      -9.289   4.072  66.803  1.00  0.00    -0.156 OA 
BRANCH   6  16
HETATM   16  O   UNL     1     -10.293   7.560  69.762  1.00  0.00    -0.210 OA 
BRANCH  16  17
HETATM   17  C   UNL     1     -10.951   8.698  70.126  1.00  0.00    -0.226 A  
HETATM   18  C   UNL     1     -12.416   9.990  71.517  1.00  0.00    -0.419 A  
HETATM   19  C   UNL     1     -12.460  11.000  70.564  1.00  0.00    -0.432 A  
HETATM   20  O   UNL     1     -13.166  10.146  72.648  1.00  0.00    -0.479 OA 
HETATM   21  C   UNL     1     -11.649   8.848  71.320  1.00  0.00    -0.371 A  
HETATM   22  H   UNL     1     -13.691  10.926  72.783  1.00  0.00     0.000 HD 
HETATM   23  C   UNL     1     -11.734  10.889  69.373  1.00  0.00    -0.397 A  
HETATM   24  C   UNL     1     -11.004   9.711  69.150  1.00  0.00    -0.177 A  
BRANCH  23  25
HETATM   25  C   UNL     1     -11.822  12.012  68.418  1.00  0.00    -0.360 C  
HETATM   26  C   UNL     1     -11.605  11.955  67.093  1.00  0.00    -0.363 C  
BRANCH  26  27
HETATM   27  C   UNL     1     -11.510  13.152  66.228  1.00  0.00    -0.372 A  
HETATM   28  C   UNL     1     -10.440  14.041  66.422  1.00  0.00    -0.284 A  
HETATM   29  C   UNL     1     -10.346  15.231  65.692  1.00  0.00    -0.389 A  
HETATM   30  C   UNL     1     -11.320  15.533  64.747  1.00  0.00    -0.357 A  
HETATM   31  C   UNL     1     -12.358  14.647  64.498  1.00  0.00    -0.416 A  
HETATM   32  O   UNL     1     -11.291  16.700  64.043  1.00  0.00    -1.486 OA 
HETATM   33  H   UNL     1     -11.956  16.907  63.397  1.00  0.00     0.000 HD 
HETATM   34  C   UNL     1     -12.451  13.459  65.231  1.00  0.00    -0.532 A  
ENDBRANCH  26  27
ENDBRANCH  23  25
ENDBRANCH  16  17
ENDBRANCH   6  16
ENDBRANCH   3   4
TORSDOF 5
ENDMDL
MODEL       12
REMARK 921   NORMALIZED FREE ENERGY PREDICTED BY IDOCK:   -7.39 KCAL/MOL
REMARK 922        TOTAL FREE ENERGY PREDICTED BY IDOCK:  -10.63 KCAL/MOL
REMARK 923 INTER-LIGAND FREE ENERGY PREDICTED BY IDOCK:   -9.58 KCAL/MOL
REMARK 924 INTRA-LIGAND FREE ENERGY PREDICTED BY IDOCK:   -1.05 KCAL/MOL
REMARK 927      BINDING AFFINITY PREDICTED BY RF-SCORE:    0.00 PKD
ROOT
HETATM    1  O   UNL     1     -10.861  12.056  64.855  1.00  0.00    -0.282 OA 
HETATM    2  H   UNL     1     -10.758  11.116  64.943  1.00  0.00     0.000 HD 
HETATM    3  C   UNL     1     -11.802  12.573  65.789  1.00  0.00    -0.437 C  
ENDROOT
BRANCH   3   4
HETATM    4  C   UNL     1     -11.970  14.099  65.647  1.00  0.00    -0.396 C  
HETATM    5  O   UNL     1     -12.515  14.708  66.838  1.00  0.00    -0.135 OA 
HETATM    6  C   UNL     1     -11.608  14.794  67.956  1.00  0.00    -0.343 C  
HETATM    7  C   UNL     1     -10.345  15.602  67.541  1.00  0.00    -0.277 C  
HETATM    8  H   UNL     1      -8.582  13.453  65.863  1.00  0.00     0.000 HD 
HETATM    9  C   UNL     1      -9.679  15.018  66.289  1.00  0.00    -0.291 C  
HETATM   10  O   UNL     1     -10.656  16.987  67.278  1.00  0.00    -0.321 OA 
HETATM   11  H   UNL     1     -10.295  16.527  64.264  1.00  0.00     0.000 HD 
HETATM   12  C   UNL     1     -10.699  14.822  65.154  1.00  0.00    -0.415 C  
HETATM   13  H   UNL     1      -9.885  17.481  67.024  1.00  0.00     0.000 HD 
HETATM   14  O   UNL     1      -8.995  13.814  66.639  1.00  0.00    -0.217 OA 
HETATM   15  O   UNL     1     -11.078  16.082  64.568  1.00  0.00    -0.572 OA 
BRANCH   6  16
HETATM   16  O   UNL     1     -11.350  13.478  68.450  1.00  0.00    -0.257 OA 
BRANCH  16  17
HETATM   17  C   UNL     1     -12.005  13.018  69.554  1.00  0.00    -0.289 A  
HETATM   18  C   UNL     1     -13.251  13.279  71.587  1.00  0.00    -0.359 A  
HETATM   19  C   UNL     1     -13.041  11.943  71.908  1.00  0.00    -0.474 A  
HETATM   20  O   UNL     1     -13.940  14.049  72.480  1.00  0.00    -0.600 OA 
HETATM   21  C   UNL     1     -12.759  13.820  70.406  1.00  0.00    -0.245 A  
HETATM   22  H   UNL     1     -14.276  13.680  73.287  1.00  0.00     0.000 HD 
HETATM   23  C   UNL     1     -12.321  11.107  71.047  1.00  0.00    -0.487 A  
HETATM   24  C   UNL     1     -11.778  11.668  69.881  1.00  0.00    -0.414 A  
BRANCH  23  25
HETATM   25  C   UNL     1     -12.156   9.696  71.452  1.00  0.00    -0.472 C  
HETATM   26  C   UNL     1     -10.995   9.064  71.690  1.00  0.00    -0.435 C  
BRANCH  26  27
HETATM   27  C   UNL     1     -10.888   7.601  71.894  1.00  0.00    -0.274 A  
HETATM   28  C   UNL     1     -10.841   7.105  73.207  1.00  0.00    -0.378 A  
HETATM   29  C   UNL     1     -10.654   5.741  73.460  1.00  0.00    -0.295 A  
HETATM   30  C   UNL     1     -10.529   4.859  72.393  1.00  0.00    -0.209 A  
HETATM   31  C   UNL     1     -10.625   5.315  71.086  1.00  0.00    -0.243 A  
HETATM   32  O   UNL     1     -10.305   3.528  72.592  1.00  0.00    -0.166 OA 
HETATM   33  H   UNL     1     -10.219   2.925  71.863  1.00  0.00     0.000 HD 
HETATM   34  C   UNL     1     -10.809   6.680  70.836  1.00  0.00    -0.297 A  
ENDBRANCH  26  27
ENDBRANCH  23  25
ENDBRANCH  16  17
ENDBRANCH   6  16
ENDBRANCH   3   4
TORSDOF 5
ENDMDL
MODEL       13
REMARK 921   NORMALIZED FREE ENERGY PREDICTED BY IDOCK:   -7.39 KCAL/MOL
REMARK 922        TOTAL FREE ENERGY PREDICTED BY IDOCK:  -10.63 KCAL/MOL
REMARK 923 INTER-LIGAND FREE ENERGY PREDICTED BY IDOCK:   -9.57 KCAL/MOL
REMARK 924 INTRA-LIGAND FREE ENERGY PREDICTED BY IDOCK:   -1.05 KCAL/MOL
REMARK 927      BINDING AFFINITY PREDICTED BY RF-SCORE:    0.00 PKD
ROOT
HETATM    1  O   UNL     1      -7.316  17.081  69.181  1.00  0.00    -0.242 OA 
HETATM    2  H   UNL     1      -7.234  16.324  69.750  1.00  0.00     0.000 HD 
HETATM    3  C   UNL     1      -7.733  16.714  67.871  1.00  0.00    -0.161 C  
ENDROOT
BRANCH   3   4
HETATM    4  C   UNL     1      -7.865  17.943  66.949  1.00  0.00    -0.221 C  
HETATM    5  O   UNL     1      -8.678  17.675  65.784  1.00  0.00    -0.511 OA 
HETATM    6  C   UNL     1     -10.094  17.563  66.035  1.00  0.00    -0.260 C  
HETATM    7  C   UNL     1     -10.612  18.876  66.687  1.00  0.00    -0.395 C  
HETATM    8  H   UNL     1      -9.716  18.590  69.794  1.00  0.00     0.000 HD 
HETATM    9  C   UNL     1      -9.821  19.239  67.950  1.00  0.00    -0.350 C  
HETATM   10  O   UNL     1     -10.538  19.995  65.777  1.00  0.00    -0.465 OA 
HETATM   11  H   UNL     1      -8.176  21.161  67.354  1.00  0.00     0.000 HD 
HETATM   12  C   UNL     1      -8.306  19.228  67.682  1.00  0.00    -0.291 C  
HETATM   13  H   UNL     1     -10.855  20.797  66.175  1.00  0.00     0.000 HD 
HETATM   14  O   UNL     1     -10.207  18.365  69.012  1.00  0.00    -0.367 OA 
HETATM   15  O   UNL     1      -7.905  20.370  66.902  1.00  0.00    -0.314 OA 
BRANCH   6  16
HETATM   16  O   UNL     1     -10.343  16.374  66.786  1.00  0.00    -0.286 OA 
BRANCH  16  17
HETATM   17  C   UNL     1     -10.804  15.252  66.163  1.00  0.00    -0.320 A  
HETATM   18  C   UNL     1     -11.966  14.071  64.429  1.00  0.00    -0.454 A  
HETATM   19  C   UNL     1     -11.931  12.901  65.177  1.00  0.00    -0.452 A  
HETATM   20  O   UNL     1     -12.604  14.039  63.221  1.00  0.00    -1.073 OA 
HETATM   21  C   UNL     1     -11.387  15.243  64.900  1.00  0.00    -0.387 A  
HETATM   22  H   UNL     1     -13.000  13.238  62.899  1.00  0.00     0.000 HD 
HETATM   23  C   UNL     1     -11.314  12.875  66.433  1.00  0.00    -0.361 A  
HETATM   24  C   UNL     1     -10.779  14.073  66.932  1.00  0.00    -0.285 A  
BRANCH  23  25
HETATM   25  C   UNL     1     -11.306  11.589  67.159  1.00  0.00    -0.354 C  
HETATM   26  C   UNL     1     -11.386  11.421  68.489  1.00  0.00    -0.333 C  
BRANCH  26  27
HETATM   27  C   UNL     1     -11.168  10.121  69.164  1.00  0.00    -0.234 A  
HETATM   28  C   UNL     1     -11.303  10.054  70.560  1.00  0.00    -0.409 A  
HETATM   29  C   UNL     1     -11.027   8.874  71.259  1.00  0.00    -0.363 A  
HETATM   30  C   UNL     1     -10.626   7.742  70.558  1.00  0.00    -0.226 A  
HETATM   31  C   UNL     1     -10.536   7.765  69.174  1.00  0.00    -0.219 A  
HETATM   32  O   UNL     1     -10.306   6.583  71.202  1.00  0.00    -0.201 OA 
HETATM   33  H   UNL     1     -10.033   5.809  70.723  1.00  0.00     0.000 HD 
HETATM   34  C   UNL     1     -10.810   8.948  68.478  1.00  0.00    -0.038 A  
ENDBRANCH  26  27
ENDBRANCH  23  25
ENDBRANCH  16  17
ENDBRANCH   6  16
ENDBRANCH   3   4
TORSDOF 5
ENDMDL
MODEL       14
REMARK 921   NORMALIZED FREE ENERGY PREDICTED BY IDOCK:   -7.37 KCAL/MOL
REMARK 922        TOTAL FREE ENERGY PREDICTED BY IDOCK:  -10.60 KCAL/MOL
REMARK 923 INTER-LIGAND FREE ENERGY PREDICTED BY IDOCK:   -9.48 KCAL/MOL
REMARK 924 INTRA-LIGAND FREE ENERGY PREDICTED BY IDOCK:   -1.12 KCAL/MOL
REMARK 927      BINDING AFFINITY PREDICTED BY RF-SCORE:    0.00 PKD
ROOT
HETATM    1  O   UNL     1     -10.402  18.532  69.436  1.00  0.00    -0.420 OA 
HETATM    2  H   UNL     1     -11.204  19.032  69.539  1.00  0.00     0.000 HD 
HETATM    3  C   UNL     1     -10.063  18.358  68.064  1.00  0.00    -0.368 C  
ENDROOT
BRANCH   3   4
HETATM    4  C   UNL     1      -8.762  17.547  67.897  1.00  0.00    -0.247 C  
HETATM    5  O   UNL     1      -8.726  16.378  68.746  1.00  0.00    -0.224 OA 
HETATM    6  C   UNL     1      -9.591  15.297  68.340  1.00  0.00    -0.206 C  
HETATM    7  C   UNL     1      -9.223  14.851  66.896  1.00  0.00    -0.246 C  
HETATM    8  H   UNL     1     -10.626  17.100  65.023  1.00  0.00     0.000 HD 
HETATM    9  C   UNL     1      -9.252  16.025  65.910  1.00  0.00    -0.286 C  
HETATM   10  O   UNL     1      -7.913  14.248  66.837  1.00  0.00    -0.370 OA 
HETATM   11  H   UNL     1      -6.799  16.738  65.426  1.00  0.00     0.000 HD 
HETATM   12  C   UNL     1      -8.421  17.211  66.430  1.00  0.00    -0.272 C  
HETATM   13  H   UNL     1      -7.688  13.976  65.955  1.00  0.00     0.000 HD 
HETATM   14  O   UNL     1     -10.609  16.373  65.633  1.00  0.00    -0.360 OA 
HETATM   15  O   UNL     1      -7.009  16.944  66.330  1.00  0.00    -0.227 OA 
BRANCH   6  16
HETATM   16  O   UNL     1     -10.952  15.692  68.525  1.00  0.00    -0.271 OA 
BRANCH  16  17
HETATM   17  C   UNL     1     -11.726  15.074  69.462  1.00  0.00    -0.322 A  
HETATM   18  C   UNL     1     -13.131  15.021  71.404  1.00  0.00    -0.389 A  
HETATM   19  C   UNL     1     -13.020  13.636  71.468  1.00  0.00    -0.443 A  
HETATM   20  O   UNL     1     -13.855  15.649  72.377  1.00  0.00    -0.515 OA 
HETATM   21  C   UNL     1     -12.509  15.745  70.395  1.00  0.00    -0.331 A  
HETATM   22  H   UNL     1     -14.280  15.154  73.067  1.00  0.00     0.000 HD 
HETATM   23  C   UNL     1     -12.272  12.936  70.516  1.00  0.00    -0.395 A  
HETATM   24  C   UNL     1     -11.599  13.673  69.530  1.00  0.00    -0.361 A  
BRANCH  23  25
HETATM   25  C   UNL     1     -12.217  11.465  70.644  1.00  0.00    -0.484 C  
HETATM   26  C   UNL     1     -12.984  10.703  71.442  1.00  0.00    -0.545 C  
BRANCH  26  27
HETATM   27  C   UNL     1     -12.742   9.261  71.674  1.00  0.00    -0.442 A  
HETATM   28  C   UNL     1     -13.835   8.380  71.643  1.00  0.00    -0.428 A  
HETATM   29  C   UNL     1     -13.679   7.022  71.940  1.00  0.00    -0.244 A  
HETATM   30  C   UNL     1     -12.417   6.532  72.256  1.00  0.00    -0.069 A  
HETATM   31  C   UNL     1     -11.311   7.370  72.242  1.00  0.00    -0.323 A  
HETATM   32  O   UNL     1     -12.225   5.224  72.592  1.00  0.00    -0.264 OA 
HETATM   33  H   UNL     1     -11.362   4.888  72.808  1.00  0.00     0.000 HD 
HETATM   34  C   UNL     1     -11.471   8.729  71.948  1.00  0.00    -0.428 A  
ENDBRANCH  26  27
ENDBRANCH  23  25
ENDBRANCH  16  17
ENDBRANCH   6  16
ENDBRANCH   3   4
TORSDOF 5
ENDMDL
MODEL       15
REMARK 921   NORMALIZED FREE ENERGY PREDICTED BY IDOCK:   -7.25 KCAL/MOL
REMARK 922        TOTAL FREE ENERGY PREDICTED BY IDOCK:  -10.45 KCAL/MOL
REMARK 923 INTER-LIGAND FREE ENERGY PREDICTED BY IDOCK:   -9.49 KCAL/MOL
REMARK 924 INTRA-LIGAND FREE ENERGY PREDICTED BY IDOCK:   -0.96 KCAL/MOL
REMARK 927      BINDING AFFINITY PREDICTED BY RF-SCORE:    0.00 PKD
ROOT
HETATM    1  O   UNL     1      -7.789   6.665  67.897  1.00  0.00    -0.109 OA 
HETATM    2  H   UNL     1      -7.545   7.342  67.276  1.00  0.00     0.000 HD 
HETATM    3  C   UNL     1      -7.602   7.090  69.242  1.00  0.00    -0.096 C  
ENDROOT
BRANCH   3   4
HETATM    4  C   UNL     1      -7.999   5.991  70.249  1.00  0.00    -0.107 C  
HETATM    5  O   UNL     1      -8.407   6.532  71.525  1.00  0.00    -0.119 OA 
HETATM    6  C   UNL     1      -9.699   7.173  71.536  1.00  0.00    -0.164 C  
HETATM    7  C   UNL     1     -10.786   6.160  71.076  1.00  0.00    -0.279 C  
HETATM    8  H   UNL     1     -10.477   6.123  67.845  1.00  0.00     0.000 HD 
HETATM    9  C   UNL     1     -10.451   5.540  69.713  1.00  0.00    -0.319 C  
HETATM   10  O   UNL     1     -10.957   5.086  72.025  1.00  0.00    -0.141 OA 
HETATM   11  H   UNL     1      -9.556   3.133  70.114  1.00  0.00     0.000 HD 
HETATM   12  C   UNL     1      -9.020   4.976  69.693  1.00  0.00    -0.099 C  
HETATM   13  H   UNL     1     -11.620   4.466  71.745  1.00  0.00     0.000 HD 
HETATM   14  O   UNL     1     -10.685   6.507  68.688  1.00  0.00    -0.219 OA 
HETATM   15  O   UNL     1      -8.927   3.758  70.456  1.00  0.00    -0.077 OA 
BRANCH   6  16
HETATM   16  O   UNL     1      -9.631   8.377  70.770  1.00  0.00    -0.164 OA 
BRANCH  16  17
HETATM   17  C   UNL     1     -10.641   9.290  70.834  1.00  0.00    -0.296 A  
HETATM   18  C   UNL     1     -12.711  10.161  71.678  1.00  0.00    -0.447 A  
HETATM   19  C   UNL     1     -12.772  11.076  70.634  1.00  0.00    -0.375 A  
HETATM   20  O   UNL     1     -13.745  10.139  72.570  1.00  0.00    -0.608 OA 
HETATM   21  C   UNL     1     -11.642   9.281  71.801  1.00  0.00    -0.458 A  
HETATM   22  H   UNL     1     -14.476  10.740  72.486  1.00  0.00     0.000 HD 
HETATM   23  C   UNL     1     -11.756  11.132  69.673  1.00  0.00    -0.410 A  
HETATM   24  C   UNL     1     -10.706  10.206  69.767  1.00  0.00    -0.317 A  
BRANCH  23  25
HETATM   25  C   UNL     1     -11.887  12.143  68.604  1.00  0.00    -0.358 C  
HETATM   26  C   UNL     1     -11.629  11.964  67.298  1.00  0.00    -0.364 C  
BRANCH  26  27
HETATM   27  C   UNL     1     -11.585  13.070  66.315  1.00  0.00    -0.408 A  
HETATM   28  C   UNL     1     -10.846  14.222  66.629  1.00  0.00    -0.301 A  
HETATM   29  C   UNL     1     -10.839  15.333  65.777  1.00  0.00    -0.363 A  
HETATM   30  C   UNL     1     -11.562  15.289  64.591  1.00  0.00    -0.333 A  
HETATM   31  C   UNL     1     -12.258  14.144  64.231  1.00  0.00    -0.449 A  
HETATM   32  O   UNL     1     -11.617  16.362  63.751  1.00  0.00    -1.605 OA 
HETATM   33  H   UNL     1     -12.112  16.333  62.940  1.00  0.00     0.000 HD 
HETATM   34  C   UNL     1     -12.266  13.036  65.087  1.00  0.00    -0.507 A  
ENDBRANCH  26  27
ENDBRANCH  23  25
ENDBRANCH  16  17
ENDBRANCH   6  16
ENDBRANCH   3   4
TORSDOF 5
ENDMDL
MODEL       16
REMARK 921   NORMALIZED FREE ENERGY PREDICTED BY IDOCK:   -7.23 KCAL/MOL
REMARK 922        TOTAL FREE ENERGY PREDICTED BY IDOCK:  -10.43 KCAL/MOL
REMARK 923 INTER-LIGAND FREE ENERGY PREDICTED BY IDOCK:   -9.37 KCAL/MOL
REMARK 924 INTRA-LIGAND FREE ENERGY PREDICTED BY IDOCK:   -1.05 KCAL/MOL
REMARK 927      BINDING AFFINITY PREDICTED BY RF-SCORE:    0.00 PKD
ROOT
HETATM    1  O   UNL     1     -10.913   6.635  73.685  1.00  0.00    -0.486 OA 
HETATM    2  H   UNL     1     -10.634   7.235  74.366  1.00  0.00     0.000 HD 
HETATM    3  C   UNL     1      -9.806   6.074  72.989  1.00  0.00    -0.168 C  
ENDROOT
BRANCH   3   4
HETATM    4  C   UNL     1     -10.260   5.100  71.882  1.00  0.00    -0.209 C  
HETATM    5  O   UNL     1     -11.164   5.719  70.940  1.00  0.00    -0.245 OA 
HETATM    6  C   UNL     1     -10.555   6.657  70.028  1.00  0.00    -0.224 C  
HETATM    7  C   UNL     1      -9.435   5.942  69.219  1.00  0.00    -0.128 C  
HETATM    8  H   UNL     1      -6.939   5.846  71.292  1.00  0.00     0.000 HD 
HETATM    9  C   UNL     1      -8.408   5.266  70.137  1.00  0.00    -0.098 C  
HETATM   10  O   UNL     1      -9.970   4.938  68.331  1.00  0.00    -0.157 OA 
HETATM   11  H   UNL     1      -8.887   2.711  70.146  1.00  0.00     0.000 HD 
HETATM   12  C   UNL     1      -9.098   4.369  71.180  1.00  0.00    -0.126 C  
HETATM   13  H   UNL     1      -9.286   4.501  67.836  1.00  0.00     0.000 HD 
HETATM   14  O   UNL     1      -7.574   6.266  70.724  1.00  0.00    -0.092 OA 
HETATM   15  O   UNL     1      -9.603   3.162  70.578  1.00  0.00    -0.168 OA 
BRANCH   6  16
HETATM   16  O   UNL     1     -10.133   7.811  70.757  1.00  0.00    -0.192 OA 
BRANCH  16  17
HETATM   17  C   UNL     1     -10.889   8.946  70.743  1.00  0.00    -0.241 A  
HETATM   18  C   UNL     1     -12.666  10.363  71.508  1.00  0.00    -0.459 A  
HETATM   19  C   UNL     1     -12.523  11.176  70.390  1.00  0.00    -0.382 A  
HETATM   20  O   UNL     1     -13.656  10.670  72.398  1.00  0.00    -0.565 OA 
HETATM   21  C   UNL     1     -11.842   9.262  71.706  1.00  0.00    -0.454 A  
HETATM   22  H   UNL     1     -14.219  11.422  72.263  1.00  0.00     0.000 HD 
HETATM   23  C   UNL     1     -11.544  10.901  69.428  1.00  0.00    -0.387 A  
HETATM   24  C   UNL     1     -10.750   9.758  69.601  1.00  0.00    -0.264 A  
BRANCH  23  25
HETATM   25  C   UNL     1     -11.447  11.822  68.277  1.00  0.00    -0.370 C  
HETATM   26  C   UNL     1     -11.178  13.137  68.326  1.00  0.00    -0.307 C  
BRANCH  26  27
HETATM   27  C   UNL     1     -11.295  14.040  67.158  1.00  0.00    -0.348 A  
HETATM   28  C   UNL     1     -12.166  13.683  66.116  1.00  0.00    -0.490 A  
HETATM   29  C   UNL     1     -12.255  14.452  64.950  1.00  0.00    -0.440 A  
HETATM   30  C   UNL     1     -11.478  15.599  64.828  1.00  0.00    -0.283 A  
HETATM   31  C   UNL     1     -10.649  16.003  65.864  1.00  0.00    -0.338 A  
HETATM   32  O   UNL     1     -11.501  16.356  63.693  1.00  0.00    -1.446 OA 
HETATM   33  H   UNL     1     -10.971  17.139  63.609  1.00  0.00     0.000 HD 
HETATM   34  C   UNL     1     -10.561  15.230  67.027  1.00  0.00    -0.306 A  
ENDBRANCH  26  27
ENDBRANCH  23  25
ENDBRANCH  16  17
ENDBRANCH   6  16
ENDBRANCH   3   4
TORSDOF 5
ENDMDL
MODEL       17
REMARK 921   NORMALIZED FREE ENERGY PREDICTED BY IDOCK:   -7.22 KCAL/MOL
REMARK 922        TOTAL FREE ENERGY PREDICTED BY IDOCK:  -10.41 KCAL/MOL
REMARK 923 INTER-LIGAND FREE ENERGY PREDICTED BY IDOCK:   -9.28 KCAL/MOL
REMARK 924 INTRA-LIGAND FREE ENERGY PREDICTED BY IDOCK:   -1.13 KCAL/MOL
REMARK 927      BINDING AFFINITY PREDICTED BY RF-SCORE:    0.00 PKD
ROOT
HETATM    1  O   UNL     1      -8.646  10.000  62.755  1.00  0.00    -0.155 OA 
HETATM    2  H   UNL     1      -9.305   9.800  62.100  1.00  0.00     0.000 HD 
HETATM    3  C   UNL     1      -8.421   8.901  63.630  1.00  0.00    -0.138 C  
ENDROOT
BRANCH   3   4
HETATM    4  C   UNL     1      -7.351   9.226  64.692  1.00  0.00    -0.101 C  
HETATM    5  O   UNL     1      -7.536  10.534  65.278  1.00  0.00    -0.137 OA 
HETATM    6  C   UNL     1      -8.647  10.648  66.191  1.00  0.00    -0.159 C  
HETATM    7  C   UNL     1      -8.474   9.624  67.350  1.00  0.00    -0.125 C  
HETATM    8  H   UNL     1      -9.430   6.815  66.034  1.00  0.00     0.000 HD 
HETATM    9  C   UNL     1      -8.290   8.194  66.827  1.00  0.00    -0.115 C  
HETATM   10  O   UNL     1      -7.342   9.944  68.186  1.00  0.00    -0.079 OA 
HETATM   11  H   UNL     1      -5.771   7.580  67.016  1.00  0.00     0.000 HD 
HETATM   12  C   UNL     1      -7.181   8.128  65.762  1.00  0.00    -0.068 C  
HETATM   13  H   UNL     1      -7.236   9.319  68.894  1.00  0.00     0.000 HD 
HETATM   14  O   UNL     1      -9.545   7.700  66.358  1.00  0.00    -0.200 OA 
HETATM   15  O   UNL     1      -5.876   8.257  66.358  1.00  0.00    -0.039 OA 
BRANCH   6  16
HETATM   16  O   UNL     1      -9.868  10.534  65.458  1.00  0.00    -0.230 OA 
BRANCH  16  17
HETATM   17  C   UNL     1     -10.737  11.583  65.405  1.00  0.00    -0.278 A  
HETATM   18  C   UNL     1     -12.009  13.274  64.276  1.00  0.00    -0.421 A  
HETATM   19  C   UNL     1     -12.281  13.902  65.485  1.00  0.00    -0.467 A  
HETATM   20  O   UNL     1     -12.486  13.852  63.134  1.00  0.00    -1.121 OA 
HETATM   21  C   UNL     1     -11.260  12.104  64.226  1.00  0.00    -0.409 A  
HETATM   22  H   UNL     1     -12.998  14.651  63.168  1.00  0.00     0.000 HD 
HETATM   23  C   UNL     1     -11.800  13.373  66.688  1.00  0.00    -0.443 A  
HETATM   24  C   UNL     1     -10.997  12.223  66.631  1.00  0.00    -0.321 A  
BRANCH  23  25
HETATM   25  C   UNL     1     -12.146  14.091  67.932  1.00  0.00    -0.314 C  
HETATM   26  C   UNL     1     -11.519  13.988  69.115  1.00  0.00    -0.340 C  
BRANCH  26  27
HETATM   27  C   UNL     1     -12.039  14.578  70.370  1.00  0.00    -0.389 A  
HETATM   28  C   UNL     1     -11.405  15.717  70.893  1.00  0.00    -0.417 A  
HETATM   29  C   UNL     1     -11.798  16.267  72.118  1.00  0.00    -0.585 A  
HETATM   30  C   UNL     1     -12.846  15.686  72.823  1.00  0.00    -0.452 A  
HETATM   31  C   UNL     1     -13.525  14.593  72.304  1.00  0.00    -0.507 A  
HETATM   32  O   UNL     1     -13.236  16.163  74.040  1.00  0.00    -0.935 OA 
HETATM   33  H   UNL     1     -13.952  15.767  74.522  1.00  0.00     0.000 HD 
HETATM   34  C   UNL     1     -13.128  14.043  71.079  1.00  0.00    -0.342 A  
ENDBRANCH  26  27
ENDBRANCH  23  25
ENDBRANCH  16  17
ENDBRANCH   6  16
ENDBRANCH   3   4
TORSDOF 5
ENDMDL
MODEL       18
REMARK 921   NORMALIZED FREE ENERGY PREDICTED BY IDOCK:   -7.20 KCAL/MOL
REMARK 922        TOTAL FREE ENERGY PREDICTED BY IDOCK:  -10.39 KCAL/MOL
REMARK 923 INTER-LIGAND FREE ENERGY PREDICTED BY IDOCK:   -9.33 KCAL/MOL
REMARK 924 INTRA-LIGAND FREE ENERGY PREDICTED BY IDOCK:   -1.06 KCAL/MOL
REMARK 927      BINDING AFFINITY PREDICTED BY RF-SCORE:    0.00 PKD
ROOT
HETATM    1  O   UNL     1     -10.123   5.062  69.984  1.00  0.00    -0.235 OA 
HETATM    2  H   UNL     1     -10.975   4.768  69.685  1.00  0.00     0.000 HD 
HETATM    3  C   UNL     1      -9.995   4.956  71.398  1.00  0.00    -0.197 C  
ENDROOT
BRANCH   3   4
HETATM    4  C   UNL     1      -8.611   5.434  71.883  1.00  0.00    -0.131 C  
HETATM    5  O   UNL     1      -8.146   6.598  71.165  1.00  0.00    -0.110 OA 
HETATM    6  C   UNL     1      -8.817   7.832  71.492  1.00  0.00    -0.129 C  
HETATM    7  C   UNL     1      -8.668   8.118  73.014  1.00  0.00    -0.243 C  
HETATM    8  H   UNL     1     -10.886   6.177  74.375  1.00  0.00     0.000 HD 
HETATM    9  C   UNL     1      -9.157   6.940  73.868  1.00  0.00    -0.182 C  
HETATM   10  O   UNL     1      -7.299   8.395  73.377  1.00  0.00    -0.225 OA 
HETATM   11  H   UNL     1      -7.075   5.657  74.747  1.00  0.00     0.000 HD 
HETATM   12  C   UNL     1      -8.517   5.617  73.412  1.00  0.00    -0.116 C  
HETATM   13  H   UNL     1      -7.207   8.570  74.307  1.00  0.00     0.000 HD 
HETATM   14  O   UNL     1     -10.584   6.906  73.847  1.00  0.00    -0.369 OA 
HETATM   15  O   UNL     1      -7.133   5.544  73.805  1.00  0.00    -0.083 OA 
BRANCH   6  16
HETATM   16  O   UNL     1     -10.163   7.772  71.016  1.00  0.00    -0.197 OA 
BRANCH  16  17
HETATM   17  C   UNL     1     -10.905   8.912  70.908  1.00  0.00    -0.248 A  
HETATM   18  C   UNL     1     -12.712  10.372  71.502  1.00  0.00    -0.459 A  
HETATM   19  C   UNL     1     -12.490  11.139  70.364  1.00  0.00    -0.382 A  
HETATM   20  O   UNL     1     -13.753  10.722  72.315  1.00  0.00    -0.459 OA 
HETATM   21  C   UNL     1     -11.913   9.274  71.796  1.00  0.00    -0.455 A  
HETATM   22  H   UNL     1     -14.299  11.472  72.114  1.00  0.00     0.000 HD 
HETATM   23  C   UNL     1     -11.455  10.818  69.479  1.00  0.00    -0.365 A  
HETATM   24  C   UNL     1     -10.685   9.676  69.747  1.00  0.00    -0.269 A  
BRANCH  23  25
HETATM   25  C   UNL     1     -11.275  11.691  68.301  1.00  0.00    -0.320 C  
HETATM   26  C   UNL     1     -11.259  13.034  68.297  1.00  0.00    -0.309 C  
BRANCH  26  27
HETATM   27  C   UNL     1     -11.278  13.848  67.060  1.00  0.00    -0.327 A  
HETATM   28  C   UNL     1     -10.472  14.996  66.995  1.00  0.00    -0.278 A  
HETATM   29  C   UNL     1     -10.514  15.849  65.887  1.00  0.00    -0.373 A  
HETATM   30  C   UNL     1     -11.357  15.547  64.823  1.00  0.00    -0.357 A  
HETATM   31  C   UNL     1     -12.125  14.392  64.838  1.00  0.00    -0.442 A  
HETATM   32  O   UNL     1     -11.461  16.371  63.742  1.00  0.00    -1.590 OA 
HETATM   33  H   UNL     1     -12.037  16.166  63.015  1.00  0.00     0.000 HD 
HETATM   34  C   UNL     1     -12.083  13.542  65.950  1.00  0.00    -0.477 A  
ENDBRANCH  26  27
ENDBRANCH  23  25
ENDBRANCH  16  17
ENDBRANCH   6  16
ENDBRANCH   3   4
TORSDOF 5
ENDMDL
MODEL       19
REMARK 921   NORMALIZED FREE ENERGY PREDICTED BY IDOCK:   -7.20 KCAL/MOL
REMARK 922        TOTAL FREE ENERGY PREDICTED BY IDOCK:  -10.39 KCAL/MOL
REMARK 923 INTER-LIGAND FREE ENERGY PREDICTED BY IDOCK:   -9.32 KCAL/MOL
REMARK 924 INTRA-LIGAND FREE ENERGY PREDICTED BY IDOCK:   -1.06 KCAL/MOL
REMARK 927      BINDING AFFINITY PREDICTED BY RF-SCORE:    0.00 PKD
ROOT
HETATM    1  O   UNL     1      -9.140   5.011  71.641  1.00  0.00    -0.137 OA 
HETATM    2  H   UNL     1      -8.644   5.289  72.402  1.00  0.00     0.000 HD 
HETATM    3  C   UNL     1      -8.540   5.455  70.429  1.00  0.00    -0.124 C  
ENDROOT
BRANCH   3   4
HETATM    4  C   UNL     1      -9.346   5.003  69.194  1.00  0.00    -0.122 C  
HETATM    5  O   UNL     1     -10.762   5.254  69.337  1.00  0.00    -0.233 OA 
HETATM    6  C   UNL     1     -11.155   6.638  69.233  1.00  0.00    -0.289 C  
HETATM    7  C   UNL     1     -10.705   7.205  67.856  1.00  0.00    -0.192 C  
HETATM    8  H   UNL     1      -7.542   7.802  68.274  1.00  0.00     0.000 HD 
HETATM    9  C   UNL     1      -9.203   7.003  67.617  1.00  0.00    -0.120 C  
HETATM   10  O   UNL     1     -11.418   6.589  66.762  1.00  0.00    -0.774 OA 
HETATM   11  H   UNL     1      -8.904   5.017  65.967  1.00  0.00     0.000 HD 
HETATM   12  C   UNL     1      -8.791   5.540  67.858  1.00  0.00    -0.105 C  
HETATM   13  H   UNL     1     -11.144   6.935  65.921  1.00  0.00     0.000 HD 
HETATM   14  O   UNL     1      -8.471   7.928  68.422  1.00  0.00    -0.127 OA 
HETATM   15  O   UNL     1      -9.246   4.687  66.790  1.00  0.00    -0.116 OA 
BRANCH   6  16
HETATM   16  O   UNL     1     -10.664   7.349  70.371  1.00  0.00    -0.227 OA 
BRANCH  16  17
HETATM   17  C   UNL     1     -11.422   8.324  70.951  1.00  0.00    -0.274 A  
HETATM   18  C   UNL     1     -13.160   9.132  72.392  1.00  0.00    -0.423 A  
HETATM   19  C   UNL     1     -13.077  10.393  71.814  1.00  0.00    -0.567 A  
HETATM   20  O   UNL     1     -14.103   8.934  73.361  1.00  0.00    -1.256 OA 
HETATM   21  C   UNL     1     -12.324   8.099  71.986  1.00  0.00    -0.380 A  
HETATM   22  H   UNL     1     -14.674   9.640  73.639  1.00  0.00     0.000 HD 
HETATM   23  C   UNL     1     -12.149  10.654  70.800  1.00  0.00    -0.474 A  
HETATM   24  C   UNL     1     -11.344   9.595  70.352  1.00  0.00    -0.337 A  
BRANCH  23  25
HETATM   25  C   UNL     1     -12.114  12.024  70.248  1.00  0.00    -0.395 C  
HETATM   26  C   UNL     1     -11.435  12.431  69.163  1.00  0.00    -0.358 C  
BRANCH  26  27
HETATM   27  C   UNL     1     -11.279  13.854  68.784  1.00  0.00    -0.302 A  
HETATM   28  C   UNL     1     -11.072  14.172  67.431  1.00  0.00    -0.318 A  
HETATM   29  C   UNL     1     -10.833  15.490  67.026  1.00  0.00    -0.314 A  
HETATM   30  C   UNL     1     -10.816  16.505  67.975  1.00  0.00    -0.337 A  
HETATM   31  C   UNL     1     -11.069  16.226  69.311  1.00  0.00    -0.325 A  
HETATM   32  O   UNL     1     -10.546  17.797  67.631  1.00  0.00    -0.383 OA 
HETATM   33  H   UNL     1     -10.534  18.491  68.280  1.00  0.00     0.000 HD 
HETATM   34  C   UNL     1     -11.305  14.906  69.714  1.00  0.00    -0.314 A  
ENDBRANCH  26  27
ENDBRANCH  23  25
ENDBRANCH  16  17
ENDBRANCH   6  16
ENDBRANCH   3   4
TORSDOF 5
ENDMDL
MODEL       20
REMARK 921   NORMALIZED FREE ENERGY PREDICTED BY IDOCK:   -7.19 KCAL/MOL
REMARK 922        TOTAL FREE ENERGY PREDICTED BY IDOCK:  -10.37 KCAL/MOL
REMARK 923 INTER-LIGAND FREE ENERGY PREDICTED BY IDOCK:   -9.32 KCAL/MOL
REMARK 924 INTRA-LIGAND FREE ENERGY PREDICTED BY IDOCK:   -1.05 KCAL/MOL
REMARK 927      BINDING AFFINITY PREDICTED BY RF-SCORE:    0.00 PKD
ROOT
HETATM    1  O   UNL     1      -8.178  14.385  67.194  1.00  0.00    -0.220 OA 
HETATM    2  H   UNL     1      -7.680  14.692  67.943  1.00  0.00     0.000 HD 
HETATM    3  C   UNL     1      -9.053  13.319  67.545  1.00  0.00    -0.208 C  
ENDROOT
BRANCH   3   4
HETATM    4  C   UNL     1      -9.861  12.820  66.330  1.00  0.00    -0.267 C  
HETATM    5  O   UNL     1     -11.110  12.202  66.713  1.00  0.00    -0.268 OA 
HETATM    6  C   UNL     1     -12.132  13.112  67.168  1.00  0.00    -0.286 C  
HETATM    7  C   UNL     1     -12.436  14.153  66.052  1.00  0.00    -0.425 C  
HETATM    8  H   UNL     1      -9.990  16.273  66.301  1.00  0.00     0.000 HD 
HETATM    9  C   UNL     1     -11.168  14.881  65.588  1.00  0.00    -0.347 C  
HETATM   10  O   UNL     1     -13.047  13.540  64.897  1.00  0.00    -0.718 OA 
HETATM   11  H   UNL     1     -10.444  13.875  63.304  1.00  0.00     0.000 HD 
HETATM   12  C   UNL     1     -10.052  13.884  65.229  1.00  0.00    -0.303 C  
HETATM   13  H   UNL     1     -13.233  14.175  64.215  1.00  0.00     0.000 HD 
HETATM   14  O   UNL     1     -10.775  15.822  66.588  1.00  0.00    -0.314 OA 
HETATM   15  O   UNL     1     -10.327  13.219  63.982  1.00  0.00    -0.354 OA 
BRANCH   6  16
HETATM   16  O   UNL     1     -11.739  13.668  68.424  1.00  0.00    -0.316 OA 
BRANCH  16  17
HETATM   17  C   UNL     1     -12.274  13.191  69.584  1.00  0.00    -0.181 A  
HETATM   18  C   UNL     1     -13.388  13.414  71.696  1.00  0.00    -0.338 A  
HETATM   19  C   UNL     1     -13.049  12.109  72.033  1.00  0.00    -0.462 A  
HETATM   20  O   UNL     1     -14.073  14.154  72.618  1.00  0.00    -0.617 OA 
HETATM   21  C   UNL     1     -13.028  13.956  70.469  1.00  0.00    -0.160 A  
HETATM   22  H   UNL     1     -14.319  13.783  73.457  1.00  0.00     0.000 HD 
HETATM   23  C   UNL     1     -12.327  11.307  71.142  1.00  0.00    -0.429 A  
HETATM   24  C   UNL     1     -11.915  11.874  69.926  1.00  0.00    -0.398 A  
BRANCH  23  25
HETATM   25  C   UNL     1     -12.018   9.927  71.569  1.00  0.00    -0.473 C  
HETATM   26  C   UNL     1     -11.073   9.123  71.054  1.00  0.00    -0.374 C  
BRANCH  26  27
HETATM   27  C   UNL     1     -10.952   7.685  71.388  1.00  0.00    -0.257 A  
HETATM   28  C   UNL     1     -11.006   7.300  72.737  1.00  0.00    -0.366 A  
HETATM   29  C   UNL     1     -10.812   5.968  73.118  1.00  0.00    -0.287 A  
HETATM   30  C   UNL     1     -10.577   5.005  72.143  1.00  0.00    -0.193 A  
HETATM   31  C   UNL     1     -10.572   5.350  70.799  1.00  0.00    -0.293 A  
HETATM   32  O   UNL     1     -10.342   3.702  72.471  1.00  0.00    -0.168 OA 
HETATM   33  H   UNL     1     -10.182   3.044  71.805  1.00  0.00     0.000 HD 
HETATM   34  C   UNL     1     -10.763   6.684  70.421  1.00  0.00    -0.297 A  
ENDBRANCH  26  27
ENDBRANCH  23  25
ENDBRANCH  16  17
ENDBRANCH   6  16
ENDBRANCH   3   4
TORSDOF 5
ENDMDL
MODEL       21
REMARK 921   NORMALIZED FREE ENERGY PREDICTED BY IDOCK:   -7.19 KCAL/MOL
REMARK 922        TOTAL FREE ENERGY PREDICTED BY IDOCK:  -10.37 KCAL/MOL
REMARK 923 INTER-LIGAND FREE ENERGY PREDICTED BY IDOCK:   -9.27 KCAL/MOL
REMARK 924 INTRA-LIGAND FREE ENERGY PREDICTED BY IDOCK:   -1.10 KCAL/MOL
REMARK 927      BINDING AFFINITY PREDICTED BY RF-SCORE:    0.00 PKD
ROOT
HETATM    1  O   UNL     1     -13.336   8.442  72.484  1.00  0.00    -0.565 OA 
HETATM    2  H   UNL     1     -14.025   8.949  72.071  1.00  0.00     0.000 HD 
HETATM    3  C   UNL     1     -12.902   7.369  71.656  1.00  0.00    -0.367 C  
ENDROOT
BRANCH   3   4
HETATM    4  C   UNL     1     -11.783   6.546  72.326  1.00  0.00    -0.281 C  
HETATM    5  O   UNL     1     -11.082   5.700  71.388  1.00  0.00    -0.239 OA 
HETATM    6  C   UNL     1     -10.196   6.387  70.482  1.00  0.00    -0.189 C  
HETATM    7  C   UNL     1      -9.134   7.181  71.295  1.00  0.00    -0.151 C  
HETATM    8  H   UNL     1     -10.735   9.838  72.252  1.00  0.00     0.000 HD 
HETATM    9  C   UNL     1      -9.782   8.129  72.312  1.00  0.00    -0.254 C  
HETATM   10  O   UNL     1      -8.238   6.303  72.011  1.00  0.00    -0.109 OA 
HETATM   11  H   UNL     1      -9.578   7.053  74.670  1.00  0.00     0.000 HD 
HETATM   12  C   UNL     1     -10.816   7.392  73.182  1.00  0.00    -0.386 C  
HETATM   13  H   UNL     1      -7.589   6.788  72.508  1.00  0.00     0.000 HD 
HETATM   14  O   UNL     1     -10.333   9.252  71.622  1.00  0.00    -0.340 OA 
HETATM   15  O   UNL     1     -10.173   6.532  74.143  1.00  0.00    -0.315 OA 
BRANCH   6  16
HETATM   16  O   UNL     1     -10.972   7.170  69.573  1.00  0.00    -0.238 OA 
BRANCH  16  17
HETATM   17  C   UNL     1     -10.454   7.533  68.364  1.00  0.00    -0.175 A  
HETATM   18  C   UNL     1      -9.117   7.196  66.403  1.00  0.00    -0.157 A  
HETATM   19  C   UNL     1      -9.245   8.538  66.063  1.00  0.00    -0.262 A  
HETATM   20  O   UNL     1      -8.348   6.404  65.598  1.00  0.00    -0.137 OA 
HETATM   21  C   UNL     1      -9.734   6.679  67.535  1.00  0.00    -0.149 A  
HETATM   22  H   UNL     1      -7.926   6.757  64.824  1.00  0.00     0.000 HD 
HETATM   23  C   UNL     1      -9.998   9.407  66.860  1.00  0.00    -0.293 A  
HETATM   24  C   UNL     1     -10.575   8.896  68.033  1.00  0.00    -0.226 A  
BRANCH  23  25
HETATM   25  C   UNL     1     -10.098  10.814  66.422  1.00  0.00    -0.278 C  
HETATM   26  C   UNL     1     -11.151  11.630  66.590  1.00  0.00    -0.364 C  
BRANCH  26  27
HETATM   27  C   UNL     1     -11.264  12.961  65.950  1.00  0.00    -0.323 A  
HETATM   28  C   UNL     1     -12.325  13.193  65.060  1.00  0.00    -0.511 A  
HETATM   29  C   UNL     1     -12.434  14.400  64.361  1.00  0.00    -0.339 A  
HETATM   30  C   UNL     1     -11.483  15.395  64.564  1.00  0.00    -0.311 A  
HETATM   31  C   UNL     1     -10.455  15.212  65.477  1.00  0.00    -0.400 A  
HETATM   32  O   UNL     1     -11.526  16.571  63.874  1.00  0.00    -1.608 OA 
HETATM   33  H   UNL     1     -10.877  17.251  64.012  1.00  0.00     0.000 HD 
HETATM   34  C   UNL     1     -10.348  14.002  66.172  1.00  0.00    -0.301 A  
ENDBRANCH  26  27
ENDBRANCH  23  25
ENDBRANCH  16  17
ENDBRANCH   6  16
ENDBRANCH   3   4
TORSDOF 5
ENDMDL
MODEL       22
REMARK 921   NORMALIZED FREE ENERGY PREDICTED BY IDOCK:   -7.16 KCAL/MOL
REMARK 922        TOTAL FREE ENERGY PREDICTED BY IDOCK:  -10.33 KCAL/MOL
REMARK 923 INTER-LIGAND FREE ENERGY PREDICTED BY IDOCK:   -9.26 KCAL/MOL
REMARK 924 INTRA-LIGAND FREE ENERGY PREDICTED BY IDOCK:   -1.07 KCAL/MOL
REMARK 927      BINDING AFFINITY PREDICTED BY RF-SCORE:    0.00 PKD
ROOT
HETATM    1  O   UNL     1      -6.997  10.622  70.597  1.00  0.00    -0.464 OA 
HETATM    2  H   UNL     1      -7.082  11.016  69.737  1.00  0.00     0.000 HD 
HETATM    3  C   UNL     1      -6.707   9.231  70.514  1.00  0.00    -0.078 C  
ENDROOT
BRANCH   3   4
HETATM    4  C   UNL     1      -6.570   8.592  71.910  1.00  0.00    -0.076 C  
HETATM    5  O   UNL     1      -7.728   8.827  72.742  1.00  0.00    -0.369 OA 
HETATM    6  C   UNL     1      -8.905   8.074  72.384  1.00  0.00    -0.173 C  
HETATM    7  C   UNL     1      -8.583   6.553  72.431  1.00  0.00    -0.119 C  
HETATM    8  H   UNL     1      -7.006   6.021  69.644  1.00  0.00     0.000 HD 
HETATM    9  C   UNL     1      -7.373   6.197  71.558  1.00  0.00    -0.089 C  
HETATM   10  O   UNL     1      -8.314   6.101  73.775  1.00  0.00    -0.114 OA 
HETATM   11  H   UNL     1      -5.326   5.834  73.120  1.00  0.00     0.000 HD 
HETATM   12  C   UNL     1      -6.170   7.102  71.877  1.00  0.00    -0.040 C  
HETATM   13  H   UNL     1      -8.118   5.172  73.804  1.00  0.00     0.000 HD 
HETATM   14  O   UNL     1      -7.756   6.241  70.183  1.00  0.00    -0.093 OA 
HETATM   15  O   UNL     1      -5.573   6.752  73.140  1.00  0.00    -0.038 OA 
BRANCH   6  16
HETATM   16  O   UNL     1      -9.402   8.550  71.132  1.00  0.00    -0.165 OA 
BRANCH  16  17
HETATM   17  C   UNL     1     -10.546   9.290  71.084  1.00  0.00    -0.332 A  
HETATM   18  C   UNL     1     -12.799   9.820  71.714  1.00  0.00    -0.434 A  
HETATM   19  C   UNL     1     -12.906  10.710  70.651  1.00  0.00    -0.404 A  
HETATM   20  O   UNL     1     -13.897   9.637  72.506  1.00  0.00    -0.664 OA 
HETATM   21  C   UNL     1     -11.621   9.124  71.953  1.00  0.00    -0.430 A  
HETATM   22  H   UNL     1     -14.702  10.112  72.342  1.00  0.00     0.000 HD 
HETATM   23  C   UNL     1     -11.825  10.923  69.788  1.00  0.00    -0.419 A  
HETATM   24  C   UNL     1     -10.654  10.179  69.998  1.00  0.00    -0.338 A  
BRANCH  23  25
HETATM   25  C   UNL     1     -12.013  11.896  68.693  1.00  0.00    -0.291 C  
HETATM   26  C   UNL     1     -11.183  12.105  67.658  1.00  0.00    -0.345 C  
BRANCH  26  27
HETATM   27  C   UNL     1     -11.329  13.232  66.708  1.00  0.00    -0.359 A  
HETATM   28  C   UNL     1     -12.108  13.045  65.555  1.00  0.00    -0.501 A  
HETATM   29  C   UNL     1     -12.211  14.045  64.581  1.00  0.00    -0.460 A  
HETATM   30  C   UNL     1     -11.544  15.250  64.765  1.00  0.00    -0.322 A  
HETATM   31  C   UNL     1     -10.810  15.481  65.920  1.00  0.00    -0.317 A  
HETATM   32  O   UNL     1     -11.583  16.237  63.824  1.00  0.00    -1.539 OA 
HETATM   33  H   UNL     1     -11.127  17.061  63.949  1.00  0.00     0.000 HD 
HETATM   34  C   UNL     1     -10.707  14.478  66.891  1.00  0.00    -0.288 A  
ENDBRANCH  26  27
ENDBRANCH  23  25
ENDBRANCH  16  17
ENDBRANCH   6  16
ENDBRANCH   3   4
TORSDOF 5
ENDMDL
MODEL       23
REMARK 921   NORMALIZED FREE ENERGY PREDICTED BY IDOCK:   -7.13 KCAL/MOL
REMARK 922        TOTAL FREE ENERGY PREDICTED BY IDOCK:  -10.29 KCAL/MOL
REMARK 923 INTER-LIGAND FREE ENERGY PREDICTED BY IDOCK:   -9.20 KCAL/MOL
REMARK 924 INTRA-LIGAND FREE ENERGY PREDICTED BY IDOCK:   -1.09 KCAL/MOL
REMARK 927      BINDING AFFINITY PREDICTED BY RF-SCORE:    0.00 PKD
ROOT
HETATM    1  O   UNL     1     -11.771   7.041  69.584  1.00  0.00    -0.562 OA 
HETATM    2  H   UNL     1     -11.711   7.539  70.391  1.00  0.00     0.000 HD 
HETATM    3  C   UNL     1     -10.595   6.275  69.349  1.00  0.00    -0.271 C  
ENDROOT
BRANCH   3   4
HETATM    4  C   UNL     1     -10.693   5.467  68.038  1.00  0.00    -0.086 C  
HETATM    5  O   UNL     1     -11.126   6.276  66.923  1.00  0.00    -0.361 OA 
HETATM    6  C   UNL     1     -10.144   7.203  66.416  1.00  0.00     0.020 C  
HETATM    7  C   UNL     1      -8.872   6.424  65.976  1.00  0.00    -0.150 C  
HETATM    8  H   UNL     1      -7.336   5.829  68.774  1.00  0.00     0.000 HD 
HETATM    9  C   UNL     1      -8.320   5.544  67.106  1.00  0.00    -0.104 C  
HETATM   10  O   UNL     1      -9.127   5.577  64.835  1.00  0.00    -0.352 OA 
HETATM   11  H   UNL     1      -8.990   3.081  66.617  1.00  0.00     0.000 HD 
HETATM   12  C   UNL     1      -9.422   4.656  67.710  1.00  0.00    -0.152 C  
HETATM   13  H   UNL     1      -8.350   5.101  64.566  1.00  0.00     0.000 HD 
HETATM   14  O   UNL     1      -7.677   6.374  68.075  1.00  0.00    -0.100 OA 
HETATM   15  O   UNL     1      -9.773   3.581  66.819  1.00  0.00    -0.164 OA 
BRANCH   6  16
HETATM   16  O   UNL     1      -9.922   8.226  67.388  1.00  0.00    -0.174 OA 
BRANCH  16  17
HETATM   17  C   UNL     1     -10.284   9.514  67.125  1.00  0.00    -0.242 A  
HETATM   18  C   UNL     1     -10.263  11.540  65.842  1.00  0.00    -0.244 A  
HETATM   19  C   UNL     1     -10.869  12.229  66.886  1.00  0.00    -0.290 A  
HETATM   20  O   UNL     1      -9.929  12.246  64.721  1.00  0.00    -0.365 OA 
HETATM   21  C   UNL     1      -9.988  10.182  65.941  1.00  0.00    -0.334 A  
HETATM   22  H   UNL     1     -10.117  13.174  64.653  1.00  0.00     0.000 HD 
HETATM   23  C   UNL     1     -11.214  11.569  68.071  1.00  0.00    -0.335 A  
HETATM   24  C   UNL     1     -10.884  10.210  68.191  1.00  0.00    -0.310 A  
BRANCH  23  25
HETATM   25  C   UNL     1     -11.869  12.368  69.127  1.00  0.00    -0.352 C  
HETATM   26  C   UNL     1     -11.561  13.626  69.484  1.00  0.00    -0.361 C  
BRANCH  26  27
HETATM   27  C   UNL     1     -12.118  14.295  70.682  1.00  0.00    -0.417 A  
HETATM   28  C   UNL     1     -11.586  15.535  71.070  1.00  0.00    -0.424 A  
HETATM   29  C   UNL     1     -12.013  16.172  72.240  1.00  0.00    -0.637 A  
HETATM   30  C   UNL     1     -12.993  15.575  73.025  1.00  0.00    -0.499 A  
HETATM   31  C   UNL     1     -13.573  14.376  72.637  1.00  0.00    -0.589 A  
HETATM   32  O   UNL     1     -13.409  16.139  74.195  1.00  0.00    -0.908 OA 
HETATM   33  H   UNL     1     -14.079  15.732  74.731  1.00  0.00     0.000 HD 
HETATM   34  C   UNL     1     -13.142  13.740  71.467  1.00  0.00    -0.435 A  
ENDBRANCH  26  27
ENDBRANCH  23  25
ENDBRANCH  16  17
ENDBRANCH   6  16
ENDBRANCH   3   4
TORSDOF 5
ENDMDL
MODEL       24
REMARK 921   NORMALIZED FREE ENERGY PREDICTED BY IDOCK:   -7.12 KCAL/MOL
REMARK 922        TOTAL FREE ENERGY PREDICTED BY IDOCK:  -10.28 KCAL/MOL
REMARK 923 INTER-LIGAND FREE ENERGY PREDICTED BY IDOCK:   -9.19 KCAL/MOL
REMARK 924 INTRA-LIGAND FREE ENERGY PREDICTED BY IDOCK:   -1.09 KCAL/MOL
REMARK 927      BINDING AFFINITY PREDICTED BY RF-SCORE:    0.00 PKD
ROOT
HETATM    1  O   UNL     1     -10.952  19.558  67.434  1.00  0.00    -0.477 OA 
HETATM    2  H   UNL     1     -11.602  19.805  66.787  1.00  0.00     0.000 HD 
HETATM    3  C   UNL     1      -9.652  20.015  67.078  1.00  0.00    -0.411 C  
ENDROOT
BRANCH   3   4
HETATM    4  C   UNL     1      -8.597  19.614  68.129  1.00  0.00    -0.317 C  
HETATM    5  O   UNL     1      -8.715  18.230  68.528  1.00  0.00    -0.309 OA 
HETATM    6  C   UNL     1      -8.276  17.267  67.548  1.00  0.00    -0.195 C  
HETATM    7  C   UNL     1      -6.787  17.536  67.185  1.00  0.00    -0.168 C  
HETATM    8  H   UNL     1      -6.944  20.040  65.125  1.00  0.00     0.000 HD 
HETATM    9  C   UNL     1      -6.562  18.982  66.728  1.00  0.00    -0.189 C  
HETATM   10  O   UNL     1      -5.907  17.278  68.300  1.00  0.00    -0.136 OA 
HETATM   11  H   UNL     1      -5.460  20.291  68.685  1.00  0.00     0.000 HD 
HETATM   12  C   UNL     1      -7.152  19.985  67.734  1.00  0.00    -0.281 C  
HETATM   13  H   UNL     1      -4.998  17.442  68.079  1.00  0.00     0.000 HD 
HETATM   14  O   UNL     1      -7.083  19.144  65.408  1.00  0.00    -0.456 OA 
HETATM   15  O   UNL     1      -6.350  20.062  68.928  1.00  0.00    -0.281 OA 
BRANCH   6  16
HETATM   16  O   UNL     1      -9.181  17.280  66.442  1.00  0.00    -0.255 OA 
BRANCH  16  17
HETATM   17  C   UNL     1      -9.883  16.158  66.116  1.00  0.00    -0.333 A  
HETATM   18  C   UNL     1     -11.558  14.937  64.911  1.00  0.00    -0.395 A  
HETATM   19  C   UNL     1     -11.425  13.861  65.780  1.00  0.00    -0.324 A  
HETATM   20  O   UNL     1     -12.495  14.845  63.920  1.00  0.00    -1.009 OA 
HETATM   21  C   UNL     1     -10.779  16.078  65.054  1.00  0.00    -0.400 A  
HETATM   22  H   UNL     1     -13.028  14.066  63.822  1.00  0.00     0.000 HD 
HETATM   23  C   UNL     1     -10.501  13.902  66.831  1.00  0.00    -0.276 A  
HETATM   24  C   UNL     1      -9.754  15.077  67.008  1.00  0.00    -0.241 A  
BRANCH  23  25
HETATM   25  C   UNL     1     -10.409  12.712  67.700  1.00  0.00    -0.221 C  
HETATM   26  C   UNL     1     -11.331  11.743  67.829  1.00  0.00    -0.358 C  
BRANCH  26  27
HETATM   27  C   UNL     1     -11.268  10.688  68.867  1.00  0.00    -0.333 A  
HETATM   28  C   UNL     1     -10.531   9.523  68.599  1.00  0.00    -0.237 A  
HETATM   29  C   UNL     1     -10.506   8.458  69.505  1.00  0.00    -0.225 A  
HETATM   30  C   UNL     1     -11.210   8.560  70.700  1.00  0.00    -0.252 A  
HETATM   31  C   UNL     1     -11.903   9.720  71.013  1.00  0.00    -0.442 A  
HETATM   32  O   UNL     1     -11.248   7.530  71.594  1.00  0.00    -0.238 OA 
HETATM   33  H   UNL     1     -11.729   7.599  72.410  1.00  0.00     0.000 HD 
HETATM   34  C   UNL     1     -11.929  10.783  70.103  1.00  0.00    -0.432 A  
ENDBRANCH  26  27
ENDBRANCH  23  25
ENDBRANCH  16  17
ENDBRANCH   6  16
ENDBRANCH   3   4
TORSDOF 5
ENDMDL
MODEL       25
REMARK 921   NORMALIZED FREE ENERGY PREDICTED BY IDOCK:   -7.12 KCAL/MOL
REMARK 922        TOTAL FREE ENERGY PREDICTED BY IDOCK:  -10.28 KCAL/MOL
REMARK 923 INTER-LIGAND FREE ENERGY PREDICTED BY IDOCK:   -9.34 KCAL/MOL
REMARK 924 INTRA-LIGAND FREE ENERGY PREDICTED BY IDOCK:   -0.94 KCAL/MOL
REMARK 927      BINDING AFFINITY PREDICTED BY RF-SCORE:    0.00 PKD
ROOT
HETATM    1  O   UNL     1      -7.087   8.166  69.780  1.00  0.00    -0.057 OA 
HETATM    2  H   UNL     1      -6.932   8.778  69.070  1.00  0.00     0.000 HD 
HETATM    3  C   UNL     1      -7.664   6.952  69.312  1.00  0.00    -0.105 C  
ENDROOT
BRANCH   3   4
HETATM    4  C   UNL     1      -7.916   5.958  70.464  1.00  0.00    -0.106 C  
HETATM    5  O   UNL     1      -8.382   6.613  71.665  1.00  0.00    -0.115 OA 
HETATM    6  C   UNL     1      -9.744   7.087  71.618  1.00  0.00    -0.160 C  
HETATM    7  C   UNL     1     -10.699   5.896  71.321  1.00  0.00    -0.264 C  
HETATM    8  H   UNL     1     -10.403   5.463  68.117  1.00  0.00     0.000 HD 
HETATM    9  C   UNL     1     -10.297   5.144  70.046  1.00  0.00    -0.276 C  
HETATM   10  O   UNL     1     -10.731   4.947  72.408  1.00  0.00    -0.211 OA 
HETATM   11  H   UNL     1      -9.109   2.940  70.744  1.00  0.00     0.000 HD 
HETATM   12  C   UNL     1      -8.807   4.761  70.070  1.00  0.00    -0.086 C  
HETATM   13  H   UNL     1     -11.314   4.219  72.226  1.00  0.00     0.000 HD 
HETATM   14  O   UNL     1     -10.653   5.928  68.906  1.00  0.00    -0.235 OA 
HETATM   15  O   UNL     1      -8.561   3.677  70.986  1.00  0.00    -0.070 OA 
BRANCH   6  16
HETATM   16  O   UNL     1      -9.828   8.176  70.698  1.00  0.00    -0.180 OA 
BRANCH  16  17
HETATM   17  C   UNL     1     -10.796   9.125  70.844  1.00  0.00    -0.278 A  
HETATM   18  C   UNL     1     -12.809  10.025  71.788  1.00  0.00    -0.446 A  
HETATM   19  C   UNL     1     -12.850  11.010  70.808  1.00  0.00    -0.354 A  
HETATM   20  O   UNL     1     -13.826   9.988  72.699  1.00  0.00    -0.602 OA 
HETATM   21  C   UNL     1     -11.778   9.095  71.830  1.00  0.00    -0.456 A  
HETATM   22  H   UNL     1     -14.531  10.624  72.671  1.00  0.00     0.000 HD 
HETATM   23  C   UNL     1     -11.851  11.085  69.831  1.00  0.00    -0.431 A  
HETATM   24  C   UNL     1     -10.841  10.112  69.841  1.00  0.00    -0.347 A  
BRANCH  23  25
HETATM   25  C   UNL     1     -11.958  12.170  68.834  1.00  0.00    -0.296 C  
HETATM   26  C   UNL     1     -11.609  12.103  67.539  1.00  0.00    -0.413 C  
BRANCH  26  27
HETATM   27  C   UNL     1     -11.551  13.283  66.646  1.00  0.00    -0.408 A  
HETATM   28  C   UNL     1     -12.453  13.360  65.572  1.00  0.00    -0.534 A  
HETATM   29  C   UNL     1     -12.389  14.407  64.646  1.00  0.00    -0.435 A  
HETATM   30  C   UNL     1     -11.426  15.399  64.801  1.00  0.00    -0.336 A  
HETATM   31  C   UNL     1     -10.558  15.375  65.882  1.00  0.00    -0.349 A  
HETATM   32  O   UNL     1     -11.300  16.415  63.900  1.00  0.00    -1.510 OA 
HETATM   33  H   UNL     1     -10.643  17.093  64.006  1.00  0.00     0.000 HD 
HETATM   34  C   UNL     1     -10.622  14.325  66.805  1.00  0.00    -0.278 A  
ENDBRANCH  26  27
ENDBRANCH  23  25
ENDBRANCH  16  17
ENDBRANCH   6  16
ENDBRANCH   3   4
TORSDOF 5
ENDMDL
MODEL       26
REMARK 921   NORMALIZED FREE ENERGY PREDICTED BY IDOCK:   -7.04 KCAL/MOL
REMARK 922        TOTAL FREE ENERGY PREDICTED BY IDOCK:  -10.17 KCAL/MOL
REMARK 923 INTER-LIGAND FREE ENERGY PREDICTED BY IDOCK:   -9.48 KCAL/MOL
REMARK 924 INTRA-LIGAND FREE ENERGY PREDICTED BY IDOCK:   -0.70 KCAL/MOL
REMARK 927      BINDING AFFINITY PREDICTED BY RF-SCORE:    0.00 PKD
ROOT
HETATM    1  O   UNL     1     -12.568  13.724  63.222  1.00  0.00    -1.005 OA 
HETATM    2  H   UNL     1     -13.517  13.757  63.249  1.00  0.00     0.000 HD 
HETATM    3  C   UNL     1     -12.080  12.406  63.448  1.00  0.00    -0.524 C  
ENDROOT
BRANCH   3   4
HETATM    4  C   UNL     1     -10.539  12.352  63.404  1.00  0.00    -0.332 C  
HETATM    5  O   UNL     1      -9.928  13.338  64.267  1.00  0.00    -0.270 OA 
HETATM    6  C   UNL     1     -10.015  13.057  65.679  1.00  0.00    -0.230 C  
HETATM    7  C   UNL     1      -9.352  11.683  65.978  1.00  0.00    -0.227 C  
HETATM    8  H   UNL     1     -11.616   9.534  65.087  1.00  0.00     0.000 HD 
HETATM    9  C   UNL     1      -9.950  10.560  65.120  1.00  0.00    -0.309 C  
HETATM   10  O   UNL     1      -7.927  11.711  65.747  1.00  0.00    -0.346 OA 
HETATM   11  H   UNL     1      -8.274  10.020  63.208  1.00  0.00     0.000 HD 
HETATM   12  C   UNL     1      -9.958  10.941  63.629  1.00  0.00    -0.359 C  
HETATM   13  H   UNL     1      -7.522  10.871  65.930  1.00  0.00     0.000 HD 
HETATM   14  O   UNL     1     -11.246  10.229  65.619  1.00  0.00     0.496 OA 
HETATM   15  O   UNL     1      -8.632  10.889  63.070  1.00  0.00    -0.178 OA 
BRANCH   6  16
HETATM   16  O   UNL     1     -11.376  13.177  66.096  1.00  0.00    -0.297 OA 
BRANCH  16  17
HETATM   17  C   UNL     1     -11.681  13.288  67.421  1.00  0.00    -0.373 A  
HETATM   18  C   UNL     1     -12.042  14.504  69.456  1.00  0.00    -0.306 A  
HETATM   19  C   UNL     1     -12.021  13.322  70.187  1.00  0.00    -0.388 A  
HETATM   20  O   UNL     1     -12.191  15.676  70.141  1.00  0.00    -0.379 OA 
HETATM   21  C   UNL     1     -11.897  14.497  68.074  1.00  0.00    -0.350 A  
HETATM   22  H   UNL     1     -12.290  15.681  71.086  1.00  0.00     0.000 HD 
HETATM   23  C   UNL     1     -11.846  12.090  69.547  1.00  0.00    -0.390 A  
HETATM   24  C   UNL     1     -11.644  12.090  68.158  1.00  0.00    -0.403 A  
BRANCH  23  25
HETATM   25  C   UNL     1     -11.851  10.880  70.392  1.00  0.00    -0.449 C  
HETATM   26  C   UNL     1     -10.811  10.060  70.622  1.00  0.00    -0.367 C  
BRANCH  26  27
HETATM   27  C   UNL     1     -10.934   8.756  71.312  1.00  0.00    -0.345 A  
HETATM   28  C   UNL     1     -11.873   7.827  70.835  1.00  0.00    -0.257 A  
HETATM   29  C   UNL     1     -12.094   6.615  71.499  1.00  0.00    -0.406 A  
HETATM   30  C   UNL     1     -11.360   6.317  72.641  1.00  0.00    -0.247 A  
HETATM   31  C   UNL     1     -10.388   7.194  73.103  1.00  0.00    -0.336 A  
HETATM   32  O   UNL     1     -11.570   5.167  73.343  1.00  0.00    -0.499 OA 
HETATM   33  H   UNL     1     -11.069   4.963  74.123  1.00  0.00     0.000 HD 
HETATM   34  C   UNL     1     -10.172   8.407  72.439  1.00  0.00    -0.399 A  
ENDBRANCH  26  27
ENDBRANCH  23  25
ENDBRANCH  16  17
ENDBRANCH   6  16
ENDBRANCH   3   4
TORSDOF 5
ENDMDL
MODEL       27
REMARK 921   NORMALIZED FREE ENERGY PREDICTED BY IDOCK:   -6.99 KCAL/MOL
REMARK 922        TOTAL FREE ENERGY PREDICTED BY IDOCK:  -10.11 KCAL/MOL
REMARK 923 INTER-LIGAND FREE ENERGY PREDICTED BY IDOCK:   -9.09 KCAL/MOL
REMARK 924 INTRA-LIGAND FREE ENERGY PREDICTED BY IDOCK:   -1.02 KCAL/MOL
REMARK 927      BINDING AFFINITY PREDICTED BY RF-SCORE:    0.00 PKD
ROOT
HETATM    1  O   UNL     1      -8.630   8.311  69.434  1.00  0.00    -0.131 OA 
HETATM    2  H   UNL     1      -8.343   8.885  68.733  1.00  0.00     0.000 HD 
HETATM    3  C   UNL     1      -9.214   9.041  70.507  1.00  0.00    -0.220 C  
ENDROOT
BRANCH   3   4
HETATM    4  C   UNL     1      -9.681   8.108  71.644  1.00  0.00    -0.179 C  
HETATM    5  O   UNL     1     -10.803   8.650  72.376  1.00  0.00    -0.343 OA 
HETATM    6  C   UNL     1     -12.064   8.623  71.677  1.00  0.00    -0.326 C  
HETATM    7  C   UNL     1     -12.411   7.159  71.285  1.00  0.00    -0.379 C  
HETATM    8  H   UNL     1     -10.580   6.618  68.659  1.00  0.00     0.000 HD 
HETATM    9  C   UNL     1     -11.282   6.499  70.483  1.00  0.00    -0.344 C  
HETATM   10  O   UNL     1     -12.673   6.339  72.444  1.00  0.00    -0.550 OA 
HETATM   11  H   UNL     1      -9.991   4.893  72.067  1.00  0.00     0.000 HD 
HETATM   12  C   UNL     1      -9.927   6.653  71.194  1.00  0.00    -0.182 C  
HETATM   13  H   UNL     1     -12.885   5.444  72.205  1.00  0.00     0.000 HD 
HETATM   14  O   UNL     1     -11.280   7.027  69.156  1.00  0.00    -0.142 OA 
HETATM   15  O   UNL     1      -9.840   5.790  72.344  1.00  0.00    -0.163 OA 
BRANCH   6  16
HETATM   16  O   UNL     1     -12.014   9.547  70.588  1.00  0.00    -0.263 OA 
BRANCH  16  17
HETATM   17  C   UNL     1     -12.236  10.875  70.803  1.00  0.00    -0.383 A  
HETATM   18  C   UNL     1     -13.334  12.738  71.840  1.00  0.00    -0.413 A  
HETATM   19  C   UNL     1     -12.780  13.607  70.908  1.00  0.00    -0.382 A  
HETATM   20  O   UNL     1     -14.182  13.260  72.776  1.00  0.00    -0.692 OA 
HETATM   21  C   UNL     1     -13.052  11.378  71.812  1.00  0.00    -0.523 A  
HETATM   22  H   UNL     1     -14.375  14.190  72.795  1.00  0.00     0.000 HD 
HETATM   23  C   UNL     1     -11.923  13.130  69.910  1.00  0.00    -0.387 A  
HETATM   24  C   UNL     1     -11.683  11.749  69.848  1.00  0.00    -0.399 A  
BRANCH  23  25
HETATM   25  C   UNL     1     -11.363  14.120  68.968  1.00  0.00    -0.310 C  
HETATM   26  C   UNL     1     -10.422  15.040  69.240  1.00  0.00    -0.252 C  
BRANCH  26  27
HETATM   27  C   UNL     1     -10.053  16.131  68.310  1.00  0.00    -0.232 A  
HETATM   28  C   UNL     1      -9.186  17.139  68.763  1.00  0.00    -0.249 A  
HETATM   29  C   UNL     1      -8.871  18.239  67.958  1.00  0.00    -0.290 A  
HETATM   30  C   UNL     1      -9.411  18.329  66.681  1.00  0.00    -0.308 A  
HETATM   31  C   UNL     1     -10.228  17.321  66.188  1.00  0.00    -0.338 A  
HETATM   32  O   UNL     1      -9.164  19.403  65.877  1.00  0.00    -0.423 OA 
HETATM   33  H   UNL     1      -9.534  19.464  65.004  1.00  0.00     0.000 HD 
HETATM   34  C   UNL     1     -10.544  16.223  66.997  1.00  0.00    -0.284 A  
ENDBRANCH  26  27
ENDBRANCH  23  25
ENDBRANCH  16  17
ENDBRANCH   6  16
ENDBRANCH   3   4
TORSDOF 5
ENDMDL
MODEL       28
REMARK 921   NORMALIZED FREE ENERGY PREDICTED BY IDOCK:   -6.98 KCAL/MOL
REMARK 922        TOTAL FREE ENERGY PREDICTED BY IDOCK:  -10.10 KCAL/MOL
REMARK 923 INTER-LIGAND FREE ENERGY PREDICTED BY IDOCK:   -9.01 KCAL/MOL
REMARK 924 INTRA-LIGAND FREE ENERGY PREDICTED BY IDOCK:   -1.09 KCAL/MOL
REMARK 927      BINDING AFFINITY PREDICTED BY RF-SCORE:    0.00 PKD
ROOT
HETATM    1  O   UNL     1      -8.059   7.215  73.041  1.00  0.00    -0.103 OA 
HETATM    2  H   UNL     1      -7.711   7.915  73.581  1.00  0.00     0.000 HD 
HETATM    3  C   UNL     1      -7.309   7.050  71.843  1.00  0.00    -0.086 C  
ENDROOT
BRANCH   3   4
HETATM    4  C   UNL     1      -7.875   5.914  70.967  1.00  0.00    -0.110 C  
HETATM    5  O   UNL     1      -9.307   6.007  70.800  1.00  0.00    -0.152 OA 
HETATM    6  C   UNL     1      -9.758   7.063  69.928  1.00  0.00    -0.163 C  
HETATM    7  C   UNL     1      -9.123   6.881  68.519  1.00  0.00    -0.127 C  
HETATM    8  H   UNL     1      -6.111   8.034  68.885  1.00  0.00     0.000 HD 
HETATM    9  C   UNL     1      -7.594   6.791  68.588  1.00  0.00    -0.105 C  
HETATM   10  O   UNL     1      -9.611   5.694  67.858  1.00  0.00    -0.114 OA 
HETATM   11  H   UNL     1      -6.914   4.298  68.306  1.00  0.00     0.000 HD 
HETATM   12  C   UNL     1      -7.142   5.742  69.620  1.00  0.00    -0.064 C  
HETATM   13  H   UNL     1      -9.224   5.582  66.998  1.00  0.00     0.000 HD 
HETATM   14  O   UNL     1      -7.058   8.091  68.842  1.00  0.00    -0.064 OA 
HETATM   15  O   UNL     1      -7.365   4.404  69.136  1.00  0.00    -0.054 OA 
BRANCH   6  16
HETATM   16  O   UNL     1      -9.502   8.324  70.549  1.00  0.00    -0.163 OA 
BRANCH  16  17
HETATM   17  C   UNL     1     -10.511   9.226  70.714  1.00  0.00    -0.276 A  
HETATM   18  C   UNL     1     -12.559  10.018  71.679  1.00  0.00    -0.427 A  
HETATM   19  C   UNL     1     -12.647  11.016  70.715  1.00  0.00    -0.463 A  
HETATM   20  O   UNL     1     -13.570   9.921  72.592  1.00  0.00    -0.645 OA 
HETATM   21  C   UNL     1     -11.487   9.135  71.702  1.00  0.00    -0.451 A  
HETATM   22  H   UNL     1     -14.303  10.524  72.576  1.00  0.00     0.000 HD 
HETATM   23  C   UNL     1     -11.656  11.153  69.737  1.00  0.00    -0.409 A  
HETATM   24  C   UNL     1     -10.603  10.226  69.727  1.00  0.00    -0.312 A  
BRANCH  23  25
HETATM   25  C   UNL     1     -11.816  12.248  68.759  1.00  0.00    -0.356 C  
HETATM   26  C   UNL     1     -11.653  12.162  67.428  1.00  0.00    -0.410 C  
BRANCH  26  27
HETATM   27  C   UNL     1     -11.628  13.339  66.529  1.00  0.00    -0.392 A  
HETATM   28  C   UNL     1     -12.441  13.330  65.384  1.00  0.00    -0.543 A  
HETATM   29  C   UNL     1     -12.396  14.375  64.456  1.00  0.00    -0.440 A  
HETATM   30  C   UNL     1     -11.542  15.450  64.677  1.00  0.00    -0.311 A  
HETATM   31  C   UNL     1     -10.767  15.509  65.826  1.00  0.00    -0.362 A  
HETATM   32  O   UNL     1     -11.435  16.470  63.779  1.00  0.00    -1.615 OA 
HETATM   33  H   UNL     1     -10.852  17.205  63.930  1.00  0.00     0.000 HD 
HETATM   34  C   UNL     1     -10.813  14.461  66.752  1.00  0.00    -0.301 A  
ENDBRANCH  26  27
ENDBRANCH  23  25
ENDBRANCH  16  17
ENDBRANCH   6  16
ENDBRANCH   3   4
TORSDOF 5
ENDMDL
MODEL       29
REMARK 921   NORMALIZED FREE ENERGY PREDICTED BY IDOCK:   -6.95 KCAL/MOL
REMARK 922        TOTAL FREE ENERGY PREDICTED BY IDOCK:  -10.06 KCAL/MOL
REMARK 923 INTER-LIGAND FREE ENERGY PREDICTED BY IDOCK:   -8.96 KCAL/MOL
REMARK 924 INTRA-LIGAND FREE ENERGY PREDICTED BY IDOCK:   -1.10 KCAL/MOL
REMARK 927      BINDING AFFINITY PREDICTED BY RF-SCORE:    0.00 PKD
ROOT
HETATM    1  O   UNL     1     -11.036  18.763  68.061  1.00  0.00    -0.279 OA 
HETATM    2  H   UNL     1     -11.805  18.972  67.544  1.00  0.00     0.000 HD 
HETATM    3  C   UNL     1      -9.855  19.325  67.501  1.00  0.00    -0.340 C  
ENDROOT
BRANCH   3   4
HETATM    4  C   UNL     1      -8.607  18.985  68.342  1.00  0.00    -0.348 C  
HETATM    5  O   UNL     1      -8.616  17.621  68.816  1.00  0.00    -0.272 OA 
HETATM    6  C   UNL     1      -8.356  16.618  67.812  1.00  0.00    -0.178 C  
HETATM    7  C   UNL     1      -6.973  16.887  67.153  1.00  0.00    -0.181 C  
HETATM    8  H   UNL     1      -7.580  19.290  65.057  1.00  0.00     0.000 HD 
HETATM    9  C   UNL     1      -6.871  18.314  66.598  1.00  0.00    -0.200 C  
HETATM   10  O   UNL     1      -5.887  16.692  68.084  1.00  0.00    -0.109 OA 
HETATM   11  H   UNL     1      -5.436  19.724  68.243  1.00  0.00     0.000 HD 
HETATM   12  C   UNL     1      -7.275  19.355  67.656  1.00  0.00    -0.233 C  
HETATM   13  H   UNL     1      -5.042  16.856  67.683  1.00  0.00     0.000 HD 
HETATM   14  O   UNL     1      -7.643  18.407  65.400  1.00  0.00    -0.442 OA 
HETATM   15  O   UNL     1      -6.256  19.496  68.665  1.00  0.00    -0.230 OA 
BRANCH   6  16
HETATM   16  O   UNL     1      -9.460  16.569  66.905  1.00  0.00    -0.224 OA 
BRANCH  16  17
HETATM   17  C   UNL     1     -10.193  15.427  66.778  1.00  0.00    -0.271 A  
HETATM   18  C   UNL     1     -11.850  14.032  65.747  1.00  0.00    -0.383 A  
HETATM   19  C   UNL     1     -11.820  13.164  66.833  1.00  0.00    -0.444 A  
HETATM   20  O   UNL     1     -12.728  13.761  64.737  1.00  0.00    -0.647 OA 
HETATM   21  C   UNL     1     -11.027  15.150  65.698  1.00  0.00    -0.359 A  
HETATM   22  H   UNL     1     -13.291  12.997  64.770  1.00  0.00     0.000 HD 
HETATM   23  C   UNL     1     -10.960  13.400  67.911  1.00  0.00    -0.276 A  
HETATM   24  C   UNL     1     -10.170  14.560  67.886  1.00  0.00    -0.231 A  
BRANCH  23  25
HETATM   25  C   UNL     1     -10.977  12.423  69.018  1.00  0.00    -0.247 C  
HETATM   26  C   UNL     1     -10.591  11.138  68.956  1.00  0.00    -0.251 C  
BRANCH  26  27
HETATM   27  C   UNL     1     -10.824  10.161  70.045  1.00  0.00    -0.361 A  
HETATM   28  C   UNL     1     -12.140   9.944  70.486  1.00  0.00    -0.289 A  
HETATM   29  C   UNL     1     -12.411   9.098  71.567  1.00  0.00    -0.418 A  
HETATM   30  C   UNL     1     -11.362   8.448  72.206  1.00  0.00    -0.378 A  
HETATM   31  C   UNL     1     -10.058   8.603  71.757  1.00  0.00    -0.380 A  
HETATM   32  O   UNL     1     -11.576   7.647  73.289  1.00  0.00    -0.643 OA 
HETATM   33  H   UNL     1     -10.859   7.202  73.726  1.00  0.00     0.000 HD 
HETATM   34  C   UNL     1      -9.790   9.452  70.677  1.00  0.00    -0.340 A  
ENDBRANCH  26  27
ENDBRANCH  23  25
ENDBRANCH  16  17
ENDBRANCH   6  16
ENDBRANCH   3   4
TORSDOF 5
ENDMDL
MODEL       30
REMARK 921   NORMALIZED FREE ENERGY PREDICTED BY IDOCK:   -6.94 KCAL/MOL
REMARK 922        TOTAL FREE ENERGY PREDICTED BY IDOCK:  -10.05 KCAL/MOL
REMARK 923 INTER-LIGAND FREE ENERGY PREDICTED BY IDOCK:   -9.00 KCAL/MOL
REMARK 924 INTRA-LIGAND FREE ENERGY PREDICTED BY IDOCK:   -1.05 KCAL/MOL
REMARK 927      BINDING AFFINITY PREDICTED BY RF-SCORE:    0.00 PKD
ROOT
HETATM    1  O   UNL     1     -12.213   6.233  72.244  1.00  0.00    -0.482 OA 
HETATM    2  H   UNL     1     -13.058   6.232  72.678  1.00  0.00     0.000 HD 
HETATM    3  C   UNL     1     -12.303   6.733  70.915  1.00  0.00    -0.280 C  
ENDROOT
BRANCH   3   4
HETATM    4  C   UNL     1     -10.931   6.734  70.210  1.00  0.00    -0.291 C  
HETATM    5  O   UNL     1     -10.788   7.833  69.282  1.00  0.00    -0.188 OA 
HETATM    6  C   UNL     1     -10.610   9.130  69.887  1.00  0.00    -0.230 C  
HETATM    7  C   UNL     1      -9.352   9.110  70.802  1.00  0.00    -0.264 C  
HETATM    8  H   UNL     1     -10.396   7.640  73.501  1.00  0.00     0.000 HD 
HETATM    9  C   UNL     1      -9.418   7.983  71.841  1.00  0.00    -0.182 C  
HETATM   10  O   UNL     1      -8.136   8.945  70.041  1.00  0.00    -0.100 OA 
HETATM   11  H   UNL     1      -7.857   6.060  71.053  1.00  0.00     0.000 HD 
HETATM   12  C   UNL     1      -9.734   6.631  71.178  1.00  0.00    -0.174 C  
HETATM   13  H   UNL     1      -7.368   8.933  70.599  1.00  0.00     0.000 HD 
HETATM   14  O   UNL     1     -10.355   8.338  72.859  1.00  0.00    -0.302 OA 
HETATM   15  O   UNL     1      -8.595   6.124  70.457  1.00  0.00    -0.134 OA 
BRANCH   6  16
HETATM   16  O   UNL     1     -11.824   9.514  70.535  1.00  0.00    -0.256 OA 
BRANCH  16  17
HETATM   17  C   UNL     1     -12.089  10.830  70.772  1.00  0.00    -0.372 A  
HETATM   18  C   UNL     1     -13.264  12.638  71.824  1.00  0.00    -0.359 A  
HETATM   19  C   UNL     1     -12.716  13.542  70.921  1.00  0.00    -0.366 A  
HETATM   20  O   UNL     1     -14.145  13.116  72.752  1.00  0.00    -0.737 OA 
HETATM   21  C   UNL     1     -12.940  11.288  71.774  1.00  0.00    -0.519 A  
HETATM   22  H   UNL     1     -14.366  14.039  72.786  1.00  0.00     0.000 HD 
HETATM   23  C   UNL     1     -11.826  13.112  69.931  1.00  0.00    -0.378 A  
HETATM   24  C   UNL     1     -11.544  11.740  69.847  1.00  0.00    -0.351 A  
BRANCH  23  25
HETATM   25  C   UNL     1     -11.277  14.137  69.021  1.00  0.00    -0.303 C  
HETATM   26  C   UNL     1     -10.973  15.407  69.338  1.00  0.00    -0.276 C  
BRANCH  26  27
HETATM   27  C   UNL     1     -10.619  16.437  68.334  1.00  0.00    -0.311 A  
HETATM   28  C   UNL     1     -10.249  17.715  68.782  1.00  0.00    -0.373 A  
HETATM   29  C   UNL     1      -9.987  18.752  67.879  1.00  0.00    -0.400 A  
HETATM   30  C   UNL     1     -10.080  18.508  66.514  1.00  0.00    -0.400 A  
HETATM   31  C   UNL     1     -10.392  17.241  66.043  1.00  0.00    -0.312 A  
HETATM   32  O   UNL     1      -9.874  19.499  65.599  1.00  0.00    -0.380 OA 
HETATM   33  H   UNL     1      -9.938  19.333  64.666  1.00  0.00     0.000 HD 
HETATM   34  C   UNL     1     -10.656  16.207  66.949  1.00  0.00    -0.283 A  
ENDBRANCH  26  27
ENDBRANCH  23  25
ENDBRANCH  16  17
ENDBRANCH   6  16
ENDBRANCH   3   4
TORSDOF 5
ENDMDL
MODEL       31
REMARK 921   NORMALIZED FREE ENERGY PREDICTED BY IDOCK:   -6.93 KCAL/MOL
REMARK 922        TOTAL FREE ENERGY PREDICTED BY IDOCK:  -10.04 KCAL/MOL
REMARK 923 INTER-LIGAND FREE ENERGY PREDICTED BY IDOCK:   -9.16 KCAL/MOL
REMARK 924 INTRA-LIGAND FREE ENERGY PREDICTED BY IDOCK:   -0.87 KCAL/MOL
REMARK 927      BINDING AFFINITY PREDICTED BY RF-SCORE:    0.00 PKD
ROOT
HETATM    1  O   UNL     1     -11.516  16.501  63.867  1.00  0.00    -1.608 OA 
HETATM    2  H   UNL     1     -11.247  16.363  62.966  1.00  0.00     0.000 HD 
HETATM    3  C   UNL     1     -10.830  15.632  64.762  1.00  0.00    -0.355 C  
ENDROOT
BRANCH   3   4
HETATM    4  C   UNL     1     -11.268  15.857  66.223  1.00  0.00     0.096 C  
HETATM    5  O   UNL     1     -11.606  14.622  66.894  1.00  0.00    -0.361 OA 
HETATM    6  C   UNL     1     -10.486  13.780  67.235  1.00  0.00    -0.264 C  
HETATM    7  C   UNL     1      -9.503  14.568  68.149  1.00  0.00    -0.208 C  
HETATM    8  H   UNL     1      -7.868  16.448  66.069  1.00  0.00     0.000 HD 
HETATM    9  C   UNL     1      -9.068  15.894  67.513  1.00  0.00    -0.199 C  
HETATM   10  O   UNL     1     -10.085  14.860  69.438  1.00  0.00    -0.291 OA 
HETATM   11  H   UNL     1     -10.380  17.818  68.668  1.00  0.00     0.000 HD 
HETATM   12  C   UNL     1     -10.283  16.714  67.045  1.00  0.00    -0.290 C  
HETATM   13  H   UNL     1      -9.485  15.341  69.996  1.00  0.00     0.000 HD 
HETATM   14  O   UNL     1      -8.137  15.627  66.463  1.00  0.00    -0.249 OA 
HETATM   15  O   UNL     1     -10.987  17.289  68.162  1.00  0.00    -0.347 OA 
BRANCH   6  16
HETATM   16  O   UNL     1      -9.911  13.258  66.036  1.00  0.00    -0.285 OA 
BRANCH  16  17
HETATM   17  C   UNL     1      -9.762  11.912  65.875  1.00  0.00    -0.238 A  
HETATM   18  C   UNL     1      -9.445   9.917  64.583  1.00  0.00    -0.278 A  
HETATM   19  C   UNL     1      -9.776   9.132  65.681  1.00  0.00    -0.247 A  
HETATM   20  O   UNL     1      -9.171   9.283  63.404  1.00  0.00    -0.414 OA 
HETATM   21  C   UNL     1      -9.412  11.303  64.674  1.00  0.00    -0.215 A  
HETATM   22  H   UNL     1      -9.194   8.336  63.341  1.00  0.00     0.000 HD 
HETATM   23  C   UNL     1     -10.091   9.721  66.911  1.00  0.00    -0.287 A  
HETATM   24  C   UNL     1     -10.112  11.122  66.986  1.00  0.00    -0.235 A  
BRANCH  23  25
HETATM   25  C   UNL     1     -10.417   8.817  68.032  1.00  0.00    -0.260 C  
HETATM   26  C   UNL     1     -10.704   9.180  69.294  1.00  0.00    -0.199 C  
BRANCH  26  27
HETATM   27  C   UNL     1     -10.821   8.219  70.414  1.00  0.00    -0.241 A  
HETATM   28  C   UNL     1     -11.068   6.868  70.120  1.00  0.00    -0.344 A  
HETATM   29  C   UNL     1     -11.273   5.931  71.138  1.00  0.00    -0.281 A  
HETATM   30  C   UNL     1     -11.215   6.340  72.466  1.00  0.00    -0.279 A  
HETATM   31  C   UNL     1     -10.920   7.658  72.785  1.00  0.00    -0.432 A  
HETATM   32  O   UNL     1     -11.449   5.470  73.490  1.00  0.00    -0.461 OA 
HETATM   33  H   UNL     1     -11.409   5.749  74.397  1.00  0.00     0.000 HD 
HETATM   34  C   UNL     1     -10.719   8.593  71.764  1.00  0.00    -0.392 A  
ENDBRANCH  26  27
ENDBRANCH  23  25
ENDBRANCH  16  17
ENDBRANCH   6  16
ENDBRANCH   3   4
TORSDOF 5
ENDMDL
MODEL       32
REMARK 921   NORMALIZED FREE ENERGY PREDICTED BY IDOCK:   -6.93 KCAL/MOL
REMARK 922        TOTAL FREE ENERGY PREDICTED BY IDOCK:  -10.04 KCAL/MOL
REMARK 923 INTER-LIGAND FREE ENERGY PREDICTED BY IDOCK:   -8.90 KCAL/MOL
REMARK 924 INTRA-LIGAND FREE ENERGY PREDICTED BY IDOCK:   -1.14 KCAL/MOL
REMARK 927      BINDING AFFINITY PREDICTED BY RF-SCORE:    0.00 PKD
ROOT
HETATM    1  O   UNL     1     -10.524  14.570  67.168  1.00  0.00    -0.264 OA 
HETATM    2  H   UNL     1     -10.035  14.562  67.982  1.00  0.00     0.000 HD 
HETATM    3  C   UNL     1      -9.735  14.116  66.074  1.00  0.00    -0.274 C  
ENDROOT
BRANCH   3   4
HETATM    4  C   UNL     1     -10.529  14.130  64.752  1.00  0.00    -0.408 C  
HETATM    5  O   UNL     1     -10.039  13.155  63.804  1.00  0.00    -0.265 OA 
HETATM    6  C   UNL     1     -10.354  11.782  64.116  1.00  0.00    -0.331 C  
HETATM    7  C   UNL     1     -11.897  11.613  64.222  1.00  0.00    -0.130 C  
HETATM    8  H   UNL     1     -12.589  12.777  67.173  1.00  0.00     0.000 HD 
HETATM    9  C   UNL     1     -12.512  12.598  65.225  1.00  0.00    -0.416 C  
HETATM   10  O   UNL     1     -12.549  11.807  62.949  1.00  0.00    -0.840 OA 
HETATM   11  H   UNL     1     -13.646  14.517  63.888  1.00  0.00     0.000 HD 
HETATM   12  C   UNL     1     -12.057  14.040  64.942  1.00  0.00    -0.420 C  
HETATM   13  H   UNL     1     -13.491  11.704  63.014  1.00  0.00     0.000 HD 
HETATM   14  O   UNL     1     -12.208  12.167  66.552  1.00  0.00    -0.584 OA 
HETATM   15  O   UNL     1     -12.704  14.572  63.770  1.00  0.00    -0.780 OA 
BRANCH   6  16
HETATM   16  O   UNL     1      -9.620  11.386  65.275  1.00  0.00    -0.224 OA 
BRANCH  16  17
HETATM   17  C   UNL     1      -9.177  10.102  65.402  1.00  0.00    -0.202 A  
HETATM   18  C   UNL     1      -8.278   8.039  64.573  1.00  0.00    -0.094 A  
HETATM   19  C   UNL     1      -8.594   7.401  65.767  1.00  0.00    -0.150 A  
HETATM   20  O   UNL     1      -7.716   7.291  63.578  1.00  0.00    -0.114 OA 
HETATM   21  C   UNL     1      -8.543   9.391  64.389  1.00  0.00    -0.214 A  
HETATM   22  H   UNL     1      -7.535   6.367  63.704  1.00  0.00     0.000 HD 
HETATM   23  C   UNL     1      -9.195   8.107  66.815  1.00  0.00    -0.206 A  
HETATM   24  C   UNL     1      -9.512   9.458  66.608  1.00  0.00    -0.230 A  
BRANCH  23  25
HETATM   25  C   UNL     1      -9.485   7.360  68.056  1.00  0.00    -0.146 C  
HETATM   26  C   UNL     1     -10.699   7.022  68.521  1.00  0.00    -0.219 C  
BRANCH  26  27
HETATM   27  C   UNL     1     -10.930   6.454  69.869  1.00  0.00    -0.410 A  
HETATM   28  C   UNL     1     -11.962   6.987  70.657  1.00  0.00    -0.361 A  
HETATM   29  C   UNL     1     -12.171   6.549  71.970  1.00  0.00    -0.343 A  
HETATM   30  C   UNL     1     -11.353   5.557  72.497  1.00  0.00    -0.265 A  
HETATM   31  C   UNL     1     -10.360   4.975  71.722  1.00  0.00    -0.268 A  
HETATM   32  O   UNL     1     -11.494   5.128  73.785  1.00  0.00    -0.427 OA 
HETATM   33  H   UNL     1     -10.935   4.450  74.146  1.00  0.00     0.000 HD 
HETATM   34  C   UNL     1     -10.152   5.417  70.411  1.00  0.00    -0.314 A  
ENDBRANCH  26  27
ENDBRANCH  23  25
ENDBRANCH  16  17
ENDBRANCH   6  16
ENDBRANCH   3   4
TORSDOF 5
ENDMDL
MODEL       33
REMARK 921   NORMALIZED FREE ENERGY PREDICTED BY IDOCK:   -6.89 KCAL/MOL
REMARK 922        TOTAL FREE ENERGY PREDICTED BY IDOCK:   -9.98 KCAL/MOL
REMARK 923 INTER-LIGAND FREE ENERGY PREDICTED BY IDOCK:   -8.93 KCAL/MOL
REMARK 924 INTRA-LIGAND FREE ENERGY PREDICTED BY IDOCK:   -1.05 KCAL/MOL
REMARK 927      BINDING AFFINITY PREDICTED BY RF-SCORE:    0.00 PKD
ROOT
HETATM    1  O   UNL     1     -11.104  19.217  67.456  1.00  0.00    -0.423 OA 
HETATM    2  H   UNL     1     -11.694  19.521  66.776  1.00  0.00     0.000 HD 
HETATM    3  C   UNL     1      -9.742  19.445  67.112  1.00  0.00    -0.333 C  
ENDROOT
BRANCH   3   4
HETATM    4  C   UNL     1      -8.784  18.951  68.215  1.00  0.00    -0.333 C  
HETATM    5  O   UNL     1      -9.104  17.617  68.668  1.00  0.00    -0.282 OA 
HETATM    6  C   UNL     1      -8.775  16.559  67.745  1.00  0.00    -0.196 C  
HETATM    7  C   UNL     1      -7.254  16.602  67.424  1.00  0.00    -0.155 C  
HETATM    8  H   UNL     1      -7.000  19.006  65.257  1.00  0.00     0.000 HD 
HETATM    9  C   UNL     1      -6.816  17.981  66.914  1.00  0.00    -0.189 C  
HETATM   10  O   UNL     1      -6.451  16.277  68.579  1.00  0.00    -0.123 OA 
HETATM   11  H   UNL     1      -5.600  19.214  68.853  1.00  0.00     0.000 HD 
HETATM   12  C   UNL     1      -7.290  19.101  67.857  1.00  0.00    -0.250 C  
HETATM   13  H   UNL     1      -5.522  16.304  68.383  1.00  0.00     0.000 HD 
HETATM   14  O   UNL     1      -7.271  18.152  65.571  1.00  0.00    -0.539 OA 
HETATM   15  O   UNL     1      -6.520  19.122  69.074  1.00  0.00    -0.259 OA 
BRANCH   6  16
HETATM   16  O   UNL     1      -9.637  16.645  66.608  1.00  0.00    -0.240 OA 
BRANCH  16  17
HETATM   17  C   UNL     1     -10.192  15.517  66.080  1.00  0.00    -0.330 A  
HETATM   18  C   UNL     1     -11.648  14.322  64.596  1.00  0.00    -0.408 A  
HETATM   19  C   UNL     1     -11.453  13.151  65.318  1.00  0.00    -0.328 A  
HETATM   20  O   UNL     1     -12.506  14.282  63.534  1.00  0.00    -1.095 OA 
HETATM   21  C   UNL     1     -11.007  15.502  64.952  1.00  0.00    -0.452 A  
HETATM   22  H   UNL     1     -12.945  13.475  63.290  1.00  0.00     0.000 HD 
HETATM   23  C   UNL     1     -10.606  13.132  66.432  1.00  0.00    -0.293 A  
HETATM   24  C   UNL     1     -10.002  14.337  66.824  1.00  0.00    -0.266 A  
BRANCH  23  25
HETATM   25  C   UNL     1     -10.439  11.845  67.136  1.00  0.00    -0.249 C  
HETATM   26  C   UNL     1     -10.394  10.626  66.574  1.00  0.00    -0.299 C  
BRANCH  26  27
HETATM   27  C   UNL     1     -10.431   9.366  67.350  1.00  0.00    -0.343 A  
HETATM   28  C   UNL     1     -10.312   8.147  66.663  1.00  0.00    -0.284 A  
HETATM   29  C   UNL     1     -10.425   6.923  67.333  1.00  0.00    -0.339 A  
HETATM   30  C   UNL     1     -10.642   6.914  68.706  1.00  0.00    -0.220 A  
HETATM   31  C   UNL     1     -10.710   8.103  69.418  1.00  0.00    -0.164 A  
HETATM   32  O   UNL     1     -10.800   5.746  69.393  1.00  0.00    -0.318 OA 
HETATM   33  H   UNL     1     -10.948   5.739  70.331  1.00  0.00     0.000 HD 
HETATM   34  C   UNL     1     -10.600   9.325  68.744  1.00  0.00    -0.220 A  
ENDBRANCH  26  27
ENDBRANCH  23  25
ENDBRANCH  16  17
ENDBRANCH   6  16
ENDBRANCH   3   4
TORSDOF 5
ENDMDL
MODEL       34
REMARK 921   NORMALIZED FREE ENERGY PREDICTED BY IDOCK:   -6.87 KCAL/MOL
REMARK 922        TOTAL FREE ENERGY PREDICTED BY IDOCK:   -9.96 KCAL/MOL
REMARK 923 INTER-LIGAND FREE ENERGY PREDICTED BY IDOCK:   -8.81 KCAL/MOL
REMARK 924 INTRA-LIGAND FREE ENERGY PREDICTED BY IDOCK:   -1.14 KCAL/MOL
REMARK 927      BINDING AFFINITY PREDICTED BY RF-SCORE:    0.00 PKD
ROOT
HETATM    1  O   UNL     1     -12.558  10.474  69.370  1.00  0.00    -0.701 OA 
HETATM    2  H   UNL     1     -13.019  11.096  69.921  1.00  0.00     0.000 HD 
HETATM    3  C   UNL     1     -11.177  10.396  69.705  1.00  0.00    -0.293 C  
ENDROOT
BRANCH   3   4
HETATM    4  C   UNL     1     -10.430   9.386  68.810  1.00  0.00    -0.212 C  
HETATM    5  O   UNL     1     -10.887   9.419  67.440  1.00  0.00    -0.263 OA 
HETATM    6  C   UNL     1     -10.475  10.575  66.682  1.00  0.00    -0.228 C  
HETATM    7  C   UNL     1      -8.922  10.664  66.670  1.00  0.00    -0.150 C  
HETATM    8  H   UNL     1      -8.209  11.920  69.578  1.00  0.00     0.000 HD 
HETATM    9  C   UNL     1      -8.338  10.656  68.089  1.00  0.00    -0.121 C  
HETATM   10  O   UNL     1      -8.327   9.574  65.935  1.00  0.00    -0.116 OA 
HETATM   11  H   UNL     1      -7.374   8.287  68.555  1.00  0.00     0.000 HD 
HETATM   12  C   UNL     1      -8.893   9.481  68.914  1.00  0.00    -0.137 C  
HETATM   13  H   UNL     1      -7.378   9.628  65.928  1.00  0.00     0.000 HD 
HETATM   14  O   UNL     1      -8.571  11.926  68.700  1.00  0.00    -0.131 OA 
HETATM   15  O   UNL     1      -8.320   8.229  68.491  1.00  0.00    -0.126 OA 
BRANCH   6  16
HETATM   16  O   UNL     1     -11.145  11.731  67.191  1.00  0.00    -0.262 OA 
BRANCH  16  17
HETATM   17  C   UNL     1     -11.301  12.835  66.407  1.00  0.00    -0.323 A  
HETATM   18  C   UNL     1     -11.937  13.981  64.398  1.00  0.00    -0.454 A  
HETATM   19  C   UNL     1     -11.274  15.128  64.822  1.00  0.00    -0.396 A  
HETATM   20  O   UNL     1     -12.533  14.005  63.169  1.00  0.00    -1.137 OA 
HETATM   21  C   UNL     1     -11.976  12.841  65.190  1.00  0.00    -0.466 A  
HETATM   22  H   UNL     1     -12.506  14.785  62.628  1.00  0.00     0.000 HD 
HETATM   23  C   UNL     1     -10.623  15.159  66.060  1.00  0.00    -0.329 A  
HETATM   24  C   UNL     1     -10.616  13.988  66.834  1.00  0.00    -0.280 A  
BRANCH  23  25
HETATM   25  C   UNL     1      -9.955  16.420  66.443  1.00  0.00    -0.318 C  
HETATM   26  C   UNL     1      -8.642  16.688  66.355  1.00  0.00    -0.345 C  
BRANCH  26  27
HETATM   27  C   UNL     1      -8.012  17.892  66.944  1.00  0.00    -0.249 A  
HETATM   28  C   UNL     1      -7.036  18.575  66.200  1.00  0.00    -0.301 A  
HETATM   29  C   UNL     1      -6.347  19.667  66.738  1.00  0.00    -0.185 A  
HETATM   30  C   UNL     1      -6.644  20.094  68.028  1.00  0.00    -0.272 A  
HETATM   31  C   UNL     1      -7.640  19.470  68.765  1.00  0.00    -0.386 A  
HETATM   32  O   UNL     1      -5.969  21.127  68.608  1.00  0.00    -0.311 OA 
HETATM   33  H   UNL     1      -6.171  21.419  69.489  1.00  0.00     0.000 HD 
HETATM   34  C   UNL     1      -8.326  18.377  68.224  1.00  0.00    -0.321 A  
ENDBRANCH  26  27
ENDBRANCH  23  25
ENDBRANCH  16  17
ENDBRANCH   6  16
ENDBRANCH   3   4
TORSDOF 5
ENDMDL
MODEL       35
REMARK 921   NORMALIZED FREE ENERGY PREDICTED BY IDOCK:   -6.82 KCAL/MOL
REMARK 922        TOTAL FREE ENERGY PREDICTED BY IDOCK:   -9.89 KCAL/MOL
REMARK 923 INTER-LIGAND FREE ENERGY PREDICTED BY IDOCK:   -8.89 KCAL/MOL
REMARK 924 INTRA-LIGAND FREE ENERGY PREDICTED BY IDOCK:   -1.00 KCAL/MOL
REMARK 927      BINDING AFFINITY PREDICTED BY RF-SCORE:    0.00 PKD
ROOT
HETATM    1  O   UNL     1     -11.161   5.936  66.503  1.00  0.00    -0.724 OA 
HETATM    2  H   UNL     1     -12.091   5.878  66.318  1.00  0.00     0.000 HD 
HETATM    3  C   UNL     1     -10.850   7.083  67.286  1.00  0.00    -0.333 C  
ENDROOT
BRANCH   3   4
HETATM    4  C   UNL     1      -9.341   7.178  67.586  1.00  0.00    -0.127 C  
HETATM    5  O   UNL     1      -9.056   8.017  68.727  1.00  0.00    -0.144 OA 
HETATM    6  C   UNL     1      -9.395   7.448  70.009  1.00  0.00    -0.151 C  
HETATM    7  C   UNL     1      -8.633   6.106  70.200  1.00  0.00    -0.133 C  
HETATM    8  H   UNL     1     -10.361   3.991  68.446  1.00  0.00     0.000 HD 
HETATM    9  C   UNL     1      -8.887   5.133  69.042  1.00  0.00    -0.092 C  
HETATM   10  O   UNL     1      -7.208   6.308  70.310  1.00  0.00    -0.078 OA 
HETATM   11  H   UNL     1      -6.796   5.146  67.498  1.00  0.00     0.000 HD 
HETATM   12  C   UNL     1      -8.637   5.808  67.681  1.00  0.00    -0.101 C  
HETATM   13  H   UNL     1      -6.741   5.488  70.426  1.00  0.00     0.000 HD 
HETATM   14  O   UNL     1     -10.204   4.593  69.164  1.00  0.00    -0.143 OA 
HETATM   15  O   UNL     1      -7.229   5.990  67.439  1.00  0.00    -0.073 OA 
BRANCH   6  16
HETATM   16  O   UNL     1     -10.817   7.359  70.119  1.00  0.00    -0.247 OA 
BRANCH  16  17
HETATM   17  C   UNL     1     -11.517   8.327  70.776  1.00  0.00    -0.252 A  
HETATM   18  C   UNL     1     -13.216   9.122  72.270  1.00  0.00    -0.461 A  
HETATM   19  C   UNL     1     -13.045  10.420  71.804  1.00  0.00    -0.567 A  
HETATM   20  O   UNL     1     -14.181   8.904  73.212  1.00  0.00    -1.197 OA 
HETATM   21  C   UNL     1     -12.444   8.075  71.782  1.00  0.00    -0.355 A  
HETATM   22  H   UNL     1     -14.709   9.619  73.546  1.00  0.00     0.000 HD 
HETATM   23  C   UNL     1     -12.090  10.705  70.821  1.00  0.00    -0.474 A  
HETATM   24  C   UNL     1     -11.350   9.638  70.289  1.00  0.00    -0.311 A  
BRANCH  23  25
HETATM   25  C   UNL     1     -11.959  12.111  70.390  1.00  0.00    -0.360 C  
HETATM   26  C   UNL     1     -11.740  12.546  69.138  1.00  0.00    -0.375 C  
BRANCH  26  27
HETATM   27  C   UNL     1     -11.417  13.953  68.807  1.00  0.00    -0.327 A  
HETATM   28  C   UNL     1     -11.706  14.952  69.751  1.00  0.00    -0.344 A  
HETATM   29  C   UNL     1     -11.502  16.305  69.460  1.00  0.00    -0.231 A  
HETATM   30  C   UNL     1     -10.989  16.667  68.220  1.00  0.00    -0.341 A  
HETATM   31  C   UNL     1     -10.645  15.698  67.289  1.00  0.00    -0.305 A  
HETATM   32  O   UNL     1     -10.813  17.976  67.878  1.00  0.00    -0.367 OA 
HETATM   33  H   UNL     1     -10.462  18.224  67.030  1.00  0.00     0.000 HD 
HETATM   34  C   UNL     1     -10.852  14.346  67.582  1.00  0.00    -0.276 A  
ENDBRANCH  26  27
ENDBRANCH  23  25
ENDBRANCH  16  17
ENDBRANCH   6  16
ENDBRANCH   3   4
TORSDOF 5
ENDMDL
MODEL       36
REMARK 921   NORMALIZED FREE ENERGY PREDICTED BY IDOCK:   -6.79 KCAL/MOL
REMARK 922        TOTAL FREE ENERGY PREDICTED BY IDOCK:   -9.85 KCAL/MOL
REMARK 923 INTER-LIGAND FREE ENERGY PREDICTED BY IDOCK:   -9.15 KCAL/MOL
REMARK 924 INTRA-LIGAND FREE ENERGY PREDICTED BY IDOCK:   -0.70 KCAL/MOL
REMARK 927      BINDING AFFINITY PREDICTED BY RF-SCORE:    0.00 PKD
ROOT
HETATM    1  O   UNL     1      -6.873  17.116  67.069  1.00  0.00    -0.158 OA 
HETATM    2  H   UNL     1      -6.088  16.759  66.671  1.00  0.00     0.000 HD 
HETATM    3  C   UNL     1      -8.001  16.995  66.210  1.00  0.00    -0.308 C  
ENDROOT
BRANCH   3   4
HETATM    4  C   UNL     1      -9.276  17.575  66.856  1.00  0.00    -0.265 C  
HETATM    5  O   UNL     1     -10.484  17.069  66.245  1.00  0.00    -0.314 OA 
HETATM    6  C   UNL     1     -10.805  15.699  66.562  1.00  0.00    -0.260 C  
HETATM    7  C   UNL     1     -10.945  15.540  68.103  1.00  0.00    -0.312 C  
HETATM    8  H   UNL     1      -7.871  15.393  69.136  1.00  0.00     0.000 HD 
HETATM    9  C   UNL     1      -9.697  16.035  68.845  1.00  0.00    -0.232 C  
HETATM   10  O   UNL     1     -12.086  16.260  68.617  1.00  0.00    -0.231 OA 
HETATM   11  H   UNL     1     -10.232  18.364  69.868  1.00  0.00     0.000 HD 
HETATM   12  C   UNL     1      -9.306  17.453  68.394  1.00  0.00    -0.285 C  
HETATM   13  H   UNL     1     -12.171  16.164  69.558  1.00  0.00     0.000 HD 
HETATM   14  O   UNL     1      -8.644  15.085  68.677  1.00  0.00    -0.158 OA 
HETATM   15  O   UNL     1     -10.214  18.439  68.921  1.00  0.00    -0.382 OA 
BRANCH   6  16
HETATM   16  O   UNL     1      -9.842  14.840  65.949  1.00  0.00    -0.302 OA 
BRANCH  16  17
HETATM   17  C   UNL     1     -10.125  13.520  65.755  1.00  0.00    -0.287 A  
HETATM   18  C   UNL     1     -10.740  11.618  64.430  1.00  0.00    -0.330 A  
HETATM   19  C   UNL     1     -10.968  10.869  65.578  1.00  0.00    -0.024 A  
HETATM   20  O   UNL     1     -10.983  11.026  63.223  1.00  0.00    -0.735 OA 
HETATM   21  C   UNL     1     -10.298  12.933  64.505  1.00  0.00    -0.380 A  
HETATM   22  H   UNL     1     -11.286  10.128  63.171  1.00  0.00     0.000 HD 
HETATM   23  C   UNL     1     -10.762  11.425  66.845  1.00  0.00    -0.308 A  
HETATM   24  C   UNL     1     -10.369  12.770  66.921  1.00  0.00    -0.245 A  
BRANCH  23  25
HETATM   25  C   UNL     1     -11.012  10.559  68.015  1.00  0.00    -0.345 C  
HETATM   26  C   UNL     1     -11.380  10.960  69.243  1.00  0.00    -0.345 C  
BRANCH  26  27
HETATM   27  C   UNL     1     -11.416  10.062  70.420  1.00  0.00    -0.389 A  
HETATM   28  C   UNL     1     -10.236   9.403  70.801  1.00  0.00    -0.368 A  
HETATM   29  C   UNL     1     -10.230   8.478  71.851  1.00  0.00    -0.369 A  
HETATM   30  C   UNL     1     -11.409   8.219  72.540  1.00  0.00    -0.385 A  
HETATM   31  C   UNL     1     -12.577   8.895  72.219  1.00  0.00    -0.455 A  
HETATM   32  O   UNL     1     -11.459   7.295  73.543  1.00  0.00    -0.542 OA 
HETATM   33  H   UNL     1     -12.265   7.117  74.014  1.00  0.00     0.000 HD 
HETATM   34  C   UNL     1     -12.581   9.818  71.167  1.00  0.00    -0.438 A  
ENDBRANCH  26  27
ENDBRANCH  23  25
ENDBRANCH  16  17
ENDBRANCH   6  16
ENDBRANCH   3   4
TORSDOF 5
ENDMDL
MODEL       37
REMARK 921   NORMALIZED FREE ENERGY PREDICTED BY IDOCK:   -6.76 KCAL/MOL
REMARK 922        TOTAL FREE ENERGY PREDICTED BY IDOCK:   -9.82 KCAL/MOL
REMARK 923 INTER-LIGAND FREE ENERGY PREDICTED BY IDOCK:   -8.72 KCAL/MOL
REMARK 924 INTRA-LIGAND FREE ENERGY PREDICTED BY IDOCK:   -1.10 KCAL/MOL
REMARK 927      BINDING AFFINITY PREDICTED BY RF-SCORE:    0.00 PKD
ROOT
HETATM    1  O   UNL     1     -11.327   6.730  68.135  1.00  0.00    -0.551 OA 
HETATM    2  H   UNL     1     -12.140   6.558  67.675  1.00  0.00     0.000 HD 
HETATM    3  C   UNL     1     -10.431   7.509  67.349  1.00  0.00    -0.297 C  
ENDROOT
BRANCH   3   4
HETATM    4  C   UNL     1      -9.111   7.788  68.096  1.00  0.00    -0.129 C  
HETATM    5  O   UNL     1      -8.511   9.043  67.704  1.00  0.00    -0.116 OA 
HETATM    6  C   UNL     1      -9.176  10.224  68.197  1.00  0.00    -0.136 C  
HETATM    7  C   UNL     1      -9.227  10.182  69.751  1.00  0.00    -0.144 C  
HETATM    8  H   UNL     1     -11.679   8.149  70.380  1.00  0.00     0.000 HD 
HETATM    9  C   UNL     1      -9.870   8.888  70.268  1.00  0.00    -0.183 C  
HETATM   10  O   UNL     1      -7.912  10.292  70.336  1.00  0.00    -0.423 OA 
HETATM   11  H   UNL     1      -7.975   7.322  71.113  1.00  0.00     0.000 HD 
HETATM   12  C   UNL     1      -9.221   7.648  69.629  1.00  0.00    -0.146 C  
HETATM   13  H   UNL     1      -7.942  10.266  71.285  1.00  0.00     0.000 HD 
HETATM   14  O   UNL     1     -11.281   8.950  70.060  1.00  0.00    -0.213 OA 
HETATM   15  O   UNL     1      -7.907   7.408  70.169  1.00  0.00    -0.096 OA 
BRANCH   6  16
HETATM   16  O   UNL     1     -10.445  10.348  67.552  1.00  0.00    -0.212 OA 
BRANCH  16  17
HETATM   17  C   UNL     1     -10.623  11.265  66.559  1.00  0.00    -0.266 A  
HETATM   18  C   UNL     1     -10.991  11.938  64.287  1.00  0.00    -0.353 A  
HETATM   19  C   UNL     1     -10.668  13.252  64.605  1.00  0.00    -0.415 A  
HETATM   20  O   UNL     1     -11.287  11.651  62.984  1.00  0.00    -0.759 OA 
HETATM   21  C   UNL     1     -10.995  10.944  65.257  1.00  0.00    -0.033 A  
HETATM   22  H   UNL     1     -11.285  12.330  62.321  1.00  0.00     0.000 HD 
HETATM   23  C   UNL     1     -10.332  13.607  65.916  1.00  0.00    -0.304 A  
HETATM   24  C   UNL     1     -10.281  12.591  66.884  1.00  0.00    -0.237 A  
BRANCH  23  25
HETATM   25  C   UNL     1     -10.017  15.026  66.175  1.00  0.00    -0.313 C  
HETATM   26  C   UNL     1     -10.475  15.774  67.193  1.00  0.00    -0.309 C  
BRANCH  26  27
HETATM   27  C   UNL     1     -10.284  17.240  67.281  1.00  0.00    -0.320 A  
HETATM   28  C   UNL     1     -10.519  18.020  66.137  1.00  0.00    -0.336 A  
HETATM   29  C   UNL     1     -10.273  19.397  66.137  1.00  0.00    -0.570 A  
HETATM   30  C   UNL     1      -9.802  20.008  67.294  1.00  0.00    -0.427 A  
HETATM   31  C   UNL     1      -9.612  19.270  68.453  1.00  0.00    -0.450 A  
HETATM   32  O   UNL     1      -9.510  21.340  67.327  1.00  0.00    -0.625 OA 
HETATM   33  H   UNL     1      -9.188  21.757  68.118  1.00  0.00     0.000 HD 
HETATM   34  C   UNL     1      -9.856  17.892  68.450  1.00  0.00    -0.355 A  
ENDBRANCH  26  27
ENDBRANCH  23  25
ENDBRANCH  16  17
ENDBRANCH   6  16
ENDBRANCH   3   4
TORSDOF 5
ENDMDL
MODEL       38
REMARK 921   NORMALIZED FREE ENERGY PREDICTED BY IDOCK:   -6.71 KCAL/MOL
REMARK 922        TOTAL FREE ENERGY PREDICTED BY IDOCK:   -9.75 KCAL/MOL
REMARK 923 INTER-LIGAND FREE ENERGY PREDICTED BY IDOCK:   -8.64 KCAL/MOL
REMARK 924 INTRA-LIGAND FREE ENERGY PREDICTED BY IDOCK:   -1.12 KCAL/MOL
REMARK 927      BINDING AFFINITY PREDICTED BY RF-SCORE:    0.00 PKD
ROOT
HETATM    1  O   UNL     1      -9.463   4.062  71.070  1.00  0.00    -0.136 OA 
HETATM    2  H   UNL     1     -10.114   3.786  71.705  1.00  0.00     0.000 HD 
HETATM    3  C   UNL     1     -10.021   4.922  70.083  1.00  0.00    -0.255 C  
ENDROOT
BRANCH   3   4
HETATM    4  C   UNL     1      -8.964   5.368  69.052  1.00  0.00    -0.107 C  
HETATM    5  O   UNL     1      -9.305   6.622  68.419  1.00  0.00    -0.126 OA 
HETATM    6  C   UNL     1      -9.159   7.791  69.251  1.00  0.00    -0.145 C  
HETATM    7  C   UNL     1      -7.689   7.893  69.752  1.00  0.00    -0.099 C  
HETATM    8  H   UNL     1      -7.565   5.751  72.188  1.00  0.00     0.000 HD 
HETATM    9  C   UNL     1      -7.236   6.609  70.460  1.00  0.00    -0.073 C  
HETATM   10  O   UNL     1      -6.769   8.155  68.671  1.00  0.00    -0.056 OA 
HETATM   11  H   UNL     1      -5.715   5.276  68.828  1.00  0.00     0.000 HD 
HETATM   12  C   UNL     1      -7.521   5.366  69.599  1.00  0.00    -0.066 C  
HETATM   13  H   UNL     1      -5.872   8.217  68.976  1.00  0.00     0.000 HD 
HETATM   14  O   UNL     1      -7.845   6.546  71.750  1.00  0.00    -0.101 OA 
HETATM   15  O   UNL     1      -6.604   5.277  68.491  1.00  0.00    -0.042 OA 
BRANCH   6  16
HETATM   16  O   UNL     1     -10.149   7.759  70.280  1.00  0.00    -0.192 OA 
BRANCH  16  17
HETATM   17  C   UNL     1     -10.958   8.837  70.488  1.00  0.00    -0.239 A  
HETATM   18  C   UNL     1     -12.678  10.053  71.635  1.00  0.00    -0.435 A  
HETATM   19  C   UNL     1     -12.741  10.977  70.599  1.00  0.00    -0.375 A  
HETATM   20  O   UNL     1     -13.544  10.206  72.680  1.00  0.00    -0.587 OA 
HETATM   21  C   UNL     1     -11.777   8.996  71.602  1.00  0.00    -0.431 A  
HETATM   22  H   UNL     1     -14.160  10.928  72.703  1.00  0.00     0.000 HD 
HETATM   23  C   UNL     1     -11.897  10.861  69.488  1.00  0.00    -0.404 A  
HETATM   24  C   UNL     1     -11.027   9.762  69.430  1.00  0.00    -0.241 A  
BRANCH  23  25
HETATM   25  C   UNL     1     -12.015  11.893  68.437  1.00  0.00    -0.246 C  
HETATM   26  C   UNL     1     -11.472  11.848  67.209  1.00  0.00    -0.385 C  
BRANCH  26  27
HETATM   27  C   UNL     1     -11.458  13.001  66.279  1.00  0.00    -0.379 A  
HETATM   28  C   UNL     1     -10.630  14.096  66.576  1.00  0.00    -0.282 A  
HETATM   29  C   UNL     1     -10.640  15.247  65.781  1.00  0.00    -0.359 A  
HETATM   30  C   UNL     1     -11.471  15.302  64.668  1.00  0.00    -0.354 A  
HETATM   31  C   UNL     1     -12.259  14.214  64.322  1.00  0.00    -0.449 A  
HETATM   32  O   UNL     1     -11.543  16.419  63.889  1.00  0.00    -1.564 OA 
HETATM   33  H   UNL     1     -12.111  16.458  63.128  1.00  0.00     0.000 HD 
HETATM   34  C   UNL     1     -12.249  13.065  65.121  1.00  0.00    -0.507 A  
ENDBRANCH  26  27
ENDBRANCH  23  25
ENDBRANCH  16  17
ENDBRANCH   6  16
ENDBRANCH   3   4
TORSDOF 5
ENDMDL
MODEL       39
REMARK 921   NORMALIZED FREE ENERGY PREDICTED BY IDOCK:   -6.71 KCAL/MOL
REMARK 922        TOTAL FREE ENERGY PREDICTED BY IDOCK:   -9.75 KCAL/MOL
REMARK 923 INTER-LIGAND FREE ENERGY PREDICTED BY IDOCK:   -8.69 KCAL/MOL
REMARK 924 INTRA-LIGAND FREE ENERGY PREDICTED BY IDOCK:   -1.06 KCAL/MOL
REMARK 927      BINDING AFFINITY PREDICTED BY RF-SCORE:    0.00 PKD
ROOT
HETATM    1  O   UNL     1     -10.861   4.372  72.669  1.00  0.00    -0.172 OA 
HETATM    2  H   UNL     1     -11.675   4.017  72.329  1.00  0.00     0.000 HD 
HETATM    3  C   UNL     1     -10.101   5.014  71.651  1.00  0.00    -0.196 C  
ENDROOT
BRANCH   3   4
HETATM    4  C   UNL     1      -8.781   5.590  72.202  1.00  0.00    -0.130 C  
HETATM    5  O   UNL     1      -8.225   6.613  71.346  1.00  0.00    -0.114 OA 
HETATM    6  C   UNL     1      -8.921   7.876  71.366  1.00  0.00    -0.136 C  
HETATM    7  C   UNL     1      -8.951   8.431  72.819  1.00  0.00    -0.221 C  
HETATM    8  H   UNL     1     -11.328   6.735  74.236  1.00  0.00     0.000 HD 
HETATM    9  C   UNL     1      -9.545   7.419  73.806  1.00  0.00    -0.284 C  
HETATM   10  O   UNL     1      -7.632   8.789  73.285  1.00  0.00    -0.381 OA 
HETATM   11  H   UNL     1      -7.591   6.342  75.139  1.00  0.00     0.000 HD 
HETATM   12  C   UNL     1      -8.866   6.045  73.674  1.00  0.00    -0.124 C  
HETATM   13  H   UNL     1      -7.649   9.128  74.172  1.00  0.00     0.000 HD 
HETATM   14  O   UNL     1     -10.961   7.362  73.625  1.00  0.00    -0.306 OA 
HETATM   15  O   UNL     1      -7.538   6.062  74.233  1.00  0.00    -0.091 OA 
BRANCH   6  16
HETATM   16  O   UNL     1     -10.202   7.714  70.754  1.00  0.00    -0.200 OA 
BRANCH  16  17
HETATM   17  C   UNL     1     -10.360   7.947  69.420  1.00  0.00    -0.220 A  
HETATM   18  C   UNL     1     -10.398   7.307  67.109  1.00  0.00    -0.297 A  
HETATM   19  C   UNL     1     -10.413   8.642  66.721  1.00  0.00    -0.298 A  
HETATM   20  O   UNL     1     -10.368   6.357  66.127  1.00  0.00    -0.425 OA 
HETATM   21  C   UNL     1     -10.395   6.949  68.451  1.00  0.00    -0.213 A  
HETATM   22  H   UNL     1     -10.370   6.602  65.210  1.00  0.00     0.000 HD 
HETATM   23  C   UNL     1     -10.420   9.663  67.678  1.00  0.00    -0.317 A  
HETATM   24  C   UNL     1     -10.360   9.300  69.032  1.00  0.00    -0.228 A  
BRANCH  23  25
HETATM   25  C   UNL     1     -10.451  11.054  67.184  1.00  0.00    -0.274 C  
HETATM   26  C   UNL     1     -11.534  11.728  66.761  1.00  0.00    -0.352 C  
BRANCH  26  27
HETATM   27  C   UNL     1     -11.465  13.046  66.090  1.00  0.00    -0.381 A  
HETATM   28  C   UNL     1     -12.515  13.424  65.237  1.00  0.00    -0.532 A  
HETATM   29  C   UNL     1     -12.464  14.619  64.510  1.00  0.00    -0.312 A  
HETATM   30  C   UNL     1     -11.362  15.455  64.647  1.00  0.00    -0.355 A  
HETATM   31  C   UNL     1     -10.336  15.132  65.523  1.00  0.00    -0.399 A  
HETATM   32  O   UNL     1     -11.251  16.609  63.928  1.00  0.00    -1.440 OA 
HETATM   33  H   UNL     1     -10.498  17.181  64.021  1.00  0.00     0.000 HD 
HETATM   34  C   UNL     1     -10.389  13.935  66.246  1.00  0.00    -0.293 A  
ENDBRANCH  26  27
ENDBRANCH  23  25
ENDBRANCH  16  17
ENDBRANCH   6  16
ENDBRANCH   3   4
TORSDOF 5
ENDMDL
MODEL       40
REMARK 921   NORMALIZED FREE ENERGY PREDICTED BY IDOCK:   -6.64 KCAL/MOL
REMARK 922        TOTAL FREE ENERGY PREDICTED BY IDOCK:   -9.67 KCAL/MOL
REMARK 923 INTER-LIGAND FREE ENERGY PREDICTED BY IDOCK:   -8.86 KCAL/MOL
REMARK 924 INTRA-LIGAND FREE ENERGY PREDICTED BY IDOCK:   -0.81 KCAL/MOL
REMARK 927      BINDING AFFINITY PREDICTED BY RF-SCORE:    0.00 PKD
ROOT
HETATM    1  O   UNL     1      -7.643   9.589  70.966  1.00  0.00    -0.311 OA 
HETATM    2  H   UNL     1      -6.922  10.208  70.948  1.00  0.00     0.000 HD 
HETATM    3  C   UNL     1      -8.448   9.682  69.796  1.00  0.00    -0.190 C  
ENDROOT
BRANCH   3   4
HETATM    4  C   UNL     1      -9.618   8.677  69.827  1.00  0.00    -0.171 C  
HETATM    5  O   UNL     1     -10.772   9.152  69.097  1.00  0.00    -0.225 OA 
HETATM    6  C   UNL     1     -10.640   9.135  67.661  1.00  0.00    -0.242 C  
HETATM    7  C   UNL     1     -10.334   7.687  67.183  1.00  0.00    -0.315 C  
HETATM    8  H   UNL     1      -7.165   7.336  67.797  1.00  0.00     0.000 HD 
HETATM    9  C   UNL     1      -9.106   7.099  67.890  1.00  0.00    -0.128 C  
HETATM   10  O   UNL     1     -11.449   6.798  67.410  1.00  0.00    -0.723 OA 
HETATM   11  H   UNL     1      -9.936   5.438  69.710  1.00  0.00     0.000 HD 
HETATM   12  C   UNL     1      -9.219   7.244  69.418  1.00  0.00    -0.148 C  
HETATM   13  H   UNL     1     -11.262   5.913  67.119  1.00  0.00     0.000 HD 
HETATM   14  O   UNL     1      -7.925   7.700  67.358  1.00  0.00    -0.115 OA 
HETATM   15  O   UNL     1     -10.182   6.321  69.961  1.00  0.00    -0.175 OA 
BRANCH   6  16
HETATM   16  O   UNL     1      -9.681  10.118  67.268  1.00  0.00    -0.159 OA 
BRANCH  16  17
HETATM   17  C   UNL     1     -10.006  11.060  66.336  1.00  0.00    -0.222 A  
HETATM   18  C   UNL     1     -10.615  11.797  64.137  1.00  0.00    -0.353 A  
HETATM   19  C   UNL     1     -10.352  13.116  64.487  1.00  0.00    -0.389 A  
HETATM   20  O   UNL     1     -11.005  11.542  62.853  1.00  0.00    -0.711 OA 
HETATM   21  C   UNL     1     -10.469  10.767  65.057  1.00  0.00    -0.307 A  
HETATM   22  H   UNL     1     -11.106  12.246  62.223  1.00  0.00     0.000 HD 
HETATM   23  C   UNL     1      -9.925  13.440  65.779  1.00  0.00    -0.264 A  
HETATM   24  C   UNL     1      -9.724  12.393  66.691  1.00  0.00    -0.229 A  
BRANCH  23  25
HETATM   25  C   UNL     1      -9.681  14.866  66.076  1.00  0.00    -0.358 C  
HETATM   26  C   UNL     1     -10.314  15.611  66.998  1.00  0.00    -0.289 C  
BRANCH  26  27
HETATM   27  C   UNL     1     -10.165  17.080  67.104  1.00  0.00    -0.306 A  
HETATM   28  C   UNL     1     -10.259  17.853  65.936  1.00  0.00    -0.228 A  
HETATM   29  C   UNL     1     -10.042  19.235  65.962  1.00  0.00    -0.459 A  
HETATM   30  C   UNL     1      -9.744  19.857  67.170  1.00  0.00    -0.393 A  
HETATM   31  C   UNL     1      -9.698  19.125  68.347  1.00  0.00    -0.451 A  
HETATM   32  O   UNL     1      -9.485  21.195  67.236  1.00  0.00    -0.644 OA 
HETATM   33  H   UNL     1      -9.281  21.620  68.061  1.00  0.00     0.000 HD 
HETATM   34  C   UNL     1      -9.912  17.743  68.317  1.00  0.00    -0.355 A  
ENDBRANCH  26  27
ENDBRANCH  23  25
ENDBRANCH  16  17
ENDBRANCH   6  16
ENDBRANCH   3   4
TORSDOF 5
ENDMDL
MODEL       41
REMARK 921   NORMALIZED FREE ENERGY PREDICTED BY IDOCK:   -6.60 KCAL/MOL
REMARK 922        TOTAL FREE ENERGY PREDICTED BY IDOCK:   -9.61 KCAL/MOL
REMARK 923 INTER-LIGAND FREE ENERGY PREDICTED BY IDOCK:   -8.77 KCAL/MOL
REMARK 924 INTRA-LIGAND FREE ENERGY PREDICTED BY IDOCK:   -0.84 KCAL/MOL
REMARK 927      BINDING AFFINITY PREDICTED BY RF-SCORE:    0.00 PKD
ROOT
HETATM    1  O   UNL     1     -11.827  11.334  62.735  1.00  0.00    -0.710 OA 
HETATM    2  H   UNL     1     -11.203  11.053  62.076  1.00  0.00     0.000 HD 
HETATM    3  C   UNL     1     -11.344  12.450  63.475  1.00  0.00    -0.476 C  
ENDROOT
BRANCH   3   4
HETATM    4  C   UNL     1     -12.357  12.906  64.546  1.00  0.00    -0.417 C  
HETATM    5  O   UNL     1     -12.217  12.175  65.784  1.00  0.00    -0.586 OA 
HETATM    6  C   UNL     1     -11.056  12.512  66.570  1.00  0.00    -0.287 C  
HETATM    7  C   UNL     1     -11.081  14.030  66.911  1.00  0.00    -0.304 C  
HETATM    8  H   UNL     1     -10.039  15.441  64.179  1.00  0.00     0.000 HD 
HETATM    9  C   UNL     1     -11.209  14.897  65.651  1.00  0.00    -0.347 C  
HETATM   10  O   UNL     1     -12.171  14.365  67.796  1.00  0.00    -0.599 OA 
HETATM   11  H   UNL     1     -13.663  15.737  65.489  1.00  0.00     0.000 HD 
HETATM   12  C   UNL     1     -12.381  14.432  64.770  1.00  0.00    -0.414 C  
HETATM   13  H   UNL     1     -12.187  15.292  68.004  1.00  0.00     0.000 HD 
HETATM   14  O   UNL     1      -9.959  14.905  64.959  1.00  0.00    -0.328 OA 
HETATM   15  O   UNL     1     -13.648  14.797  65.351  1.00  0.00     0.072 OA 
BRANCH   6  16
HETATM   16  O   UNL     1      -9.883  12.064  65.888  1.00  0.00    -0.231 OA 
BRANCH  16  17
HETATM   17  C   UNL     1      -9.519  10.751  65.940  1.00  0.00    -0.197 A  
HETATM   18  C   UNL     1      -8.875   8.652  64.975  1.00  0.00    -0.070 A  
HETATM   19  C   UNL     1      -9.084   8.009  66.190  1.00  0.00    -0.224 A  
HETATM   20  O   UNL     1      -8.493   7.891  63.907  1.00  0.00    -0.377 OA 
HETATM   21  C   UNL     1      -9.066  10.022  64.845  1.00  0.00    -0.265 A  
HETATM   22  H   UNL     1      -8.362   6.954  63.996  1.00  0.00     0.000 HD 
HETATM   23  C   UNL     1      -9.500   8.729  67.316  1.00  0.00    -0.200 A  
HETATM   24  C   UNL     1      -9.746  10.102  67.169  1.00  0.00    -0.214 A  
BRANCH  23  25
HETATM   25  C   UNL     1      -9.685   7.975  68.572  1.00  0.00    -0.166 C  
HETATM   26  C   UNL     1     -10.570   6.987  68.788  1.00  0.00    -0.235 C  
BRANCH  26  27
HETATM   27  C   UNL     1     -10.843   6.413  70.126  1.00  0.00    -0.355 A  
HETATM   28  C   UNL     1     -11.858   6.986  70.910  1.00  0.00    -0.401 A  
HETATM   29  C   UNL     1     -12.103   6.541  72.214  1.00  0.00    -0.236 A  
HETATM   30  C   UNL     1     -11.339   5.504  72.738  1.00  0.00    -0.303 A  
HETATM   31  C   UNL     1     -10.366   4.886  71.966  1.00  0.00    -0.263 A  
HETATM   32  O   UNL     1     -11.516   5.067  74.018  1.00  0.00    -0.330 OA 
HETATM   33  H   UNL     1     -10.994   4.358  74.376  1.00  0.00     0.000 HD 
HETATM   34  C   UNL     1     -10.121   5.334  70.663  1.00  0.00    -0.310 A  
ENDBRANCH  26  27
ENDBRANCH  23  25
ENDBRANCH  16  17
ENDBRANCH   6  16
ENDBRANCH   3   4
TORSDOF 5
ENDMDL
MODEL       42
REMARK 921   NORMALIZED FREE ENERGY PREDICTED BY IDOCK:   -6.55 KCAL/MOL
REMARK 922        TOTAL FREE ENERGY PREDICTED BY IDOCK:   -9.54 KCAL/MOL
REMARK 923 INTER-LIGAND FREE ENERGY PREDICTED BY IDOCK:   -8.69 KCAL/MOL
REMARK 924 INTRA-LIGAND FREE ENERGY PREDICTED BY IDOCK:   -0.85 KCAL/MOL
REMARK 927      BINDING AFFINITY PREDICTED BY RF-SCORE:    0.00 PKD
ROOT
HETATM    1  O   UNL     1     -10.529   8.263  66.460  1.00  0.00    -0.403 OA 
HETATM    2  H   UNL     1     -11.229   8.524  65.873  1.00  0.00     0.000 HD 
HETATM    3  C   UNL     1     -10.640   8.899  67.728  1.00  0.00    -0.202 C  
ENDROOT
BRANCH   3   4
HETATM    4  C   UNL     1      -9.504   8.475  68.681  1.00  0.00    -0.143 C  
HETATM    5  O   UNL     1      -9.279   9.438  69.735  1.00  0.00    -0.168 OA 
HETATM    6  C   UNL     1     -10.289   9.472  70.764  1.00  0.00    -0.306 C  
HETATM    7  C   UNL     1     -10.411   8.066  71.419  1.00  0.00    -0.215 C  
HETATM    8  H   UNL     1     -12.187   6.383  69.285  1.00  0.00     0.000 HD 
HETATM    9  C   UNL     1     -10.672   6.970  70.377  1.00  0.00    -0.234 C  
HETATM   10  O   UNL     1      -9.222   7.709  72.154  1.00  0.00    -0.132 OA 
HETATM   11  H   UNL     1      -8.451   5.680  69.982  1.00  0.00     0.000 HD 
HETATM   12  C   UNL     1      -9.653   7.039  69.227  1.00  0.00    -0.154 C  
HETATM   13  H   UNL     1      -9.296   6.851  72.554  1.00  0.00     0.000 HD 
HETATM   14  O   UNL     1     -12.026   7.061  69.930  1.00  0.00    -0.085 OA 
HETATM   15  O   UNL     1      -8.359   6.565  69.646  1.00  0.00    -0.127 OA 
BRANCH   6  16
HETATM   16  O   UNL     1     -11.500   9.991  70.213  1.00  0.00    -0.265 OA 
BRANCH  16  17
HETATM   17  C   UNL     1     -11.920  11.247  70.539  1.00  0.00    -0.371 A  
HETATM   18  C   UNL     1     -13.286  12.824  71.722  1.00  0.00    -0.374 A  
HETATM   19  C   UNL     1     -12.872  13.845  70.874  1.00  0.00    -0.370 A  
HETATM   20  O   UNL     1     -14.200  13.129  72.690  1.00  0.00    -0.700 OA 
HETATM   21  C   UNL     1     -12.800  11.530  71.579  1.00  0.00    -0.485 A  
HETATM   22  H   UNL     1     -14.532  14.013  72.787  1.00  0.00     0.000 HD 
HETATM   23  C   UNL     1     -11.956  13.592  69.847  1.00  0.00    -0.416 A  
HETATM   24  C   UNL     1     -11.509  12.274  69.669  1.00  0.00    -0.285 A  
BRANCH  23  25
HETATM   25  C   UNL     1     -11.556  14.733  68.999  1.00  0.00    -0.324 C  
HETATM   26  C   UNL     1     -10.720  15.728  69.341  1.00  0.00    -0.266 C  
BRANCH  26  27
HETATM   27  C   UNL     1     -10.520  16.945  68.521  1.00  0.00    -0.361 A  
HETATM   28  C   UNL     1     -10.592  16.836  67.123  1.00  0.00    -0.256 A  
HETATM   29  C   UNL     1     -10.328  17.933  66.296  1.00  0.00    -0.364 A  
HETATM   30  C   UNL     1     -10.004  19.158  66.869  1.00  0.00    -0.345 A  
HETATM   31  C   UNL     1      -9.978  19.307  68.248  1.00  0.00    -0.497 A  
HETATM   32  O   UNL     1      -9.698  20.243  66.101  1.00  0.00    -0.601 OA 
HETATM   33  H   UNL     1      -9.477  21.081  66.492  1.00  0.00     0.000 HD 
HETATM   34  C   UNL     1     -10.240  18.207  69.072  1.00  0.00    -0.237 A  
ENDBRANCH  26  27
ENDBRANCH  23  25
ENDBRANCH  16  17
ENDBRANCH   6  16
ENDBRANCH   3   4
TORSDOF 5
ENDMDL
MODEL       43
REMARK 921   NORMALIZED FREE ENERGY PREDICTED BY IDOCK:   -6.53 KCAL/MOL
REMARK 922        TOTAL FREE ENERGY PREDICTED BY IDOCK:   -9.52 KCAL/MOL
REMARK 923 INTER-LIGAND FREE ENERGY PREDICTED BY IDOCK:   -8.43 KCAL/MOL
REMARK 924 INTRA-LIGAND FREE ENERGY PREDICTED BY IDOCK:   -1.09 KCAL/MOL
REMARK 927      BINDING AFFINITY PREDICTED BY RF-SCORE:    0.00 PKD
ROOT
HETATM    1  O   UNL     1     -11.252  19.551  66.888  1.00  0.00    -0.302 OA 
HETATM    2  H   UNL     1     -11.911  19.230  66.284  1.00  0.00     0.000 HD 
HETATM    3  C   UNL     1     -10.005  19.773  66.240  1.00  0.00    -0.478 C  
ENDROOT
BRANCH   3   4
HETATM    4  C   UNL     1      -8.935  20.294  67.222  1.00  0.00    -0.363 C  
HETATM    5  O   UNL     1      -8.912  19.548  68.459  1.00  0.00    -0.349 OA 
HETATM    6  C   UNL     1      -8.352  18.222  68.367  1.00  0.00    -0.307 C  
HETATM    7  C   UNL     1      -6.894  18.309  67.834  1.00  0.00    -0.213 C  
HETATM    8  H   UNL     1      -7.274  18.715  64.636  1.00  0.00     0.000 HD 
HETATM    9  C   UNL     1      -6.815  19.071  66.505  1.00  0.00    -0.202 C  
HETATM   10  O   UNL     1      -6.015  18.960  68.776  1.00  0.00    -0.205 OA 
HETATM   11  H   UNL     1      -5.901  21.455  66.990  1.00  0.00     0.000 HD 
HETATM   12  C   UNL     1      -7.530  20.430  66.598  1.00  0.00    -0.248 C  
HETATM   13  H   UNL     1      -5.124  19.013  68.451  1.00  0.00     0.000 HD 
HETATM   14  O   UNL     1      -7.323  18.242  65.458  1.00  0.00    -0.539 OA 
HETATM   15  O   UNL     1      -6.766  21.371  67.375  1.00  0.00    -0.563 OA 
BRANCH   6  16
HETATM   16  O   UNL     1      -9.230  17.395  67.600  1.00  0.00    -0.231 OA 
BRANCH  16  17
HETATM   17  C   UNL     1     -10.043  16.494  68.221  1.00  0.00    -0.259 A  
HETATM   18  C   UNL     1     -11.557  15.782  69.939  1.00  0.00    -0.351 A  
HETATM   19  C   UNL     1     -11.418  14.458  69.537  1.00  0.00    -0.333 A  
HETATM   20  O   UNL     1     -12.353  16.042  71.019  1.00  0.00    -0.517 OA 
HETATM   21  C   UNL     1     -10.895  16.807  69.276  1.00  0.00    -0.275 A  
HETATM   22  H   UNL     1     -12.805  15.341  71.472  1.00  0.00     0.000 HD 
HETATM   23  C   UNL     1     -10.599  14.124  68.454  1.00  0.00    -0.263 A  
HETATM   24  C   UNL     1      -9.887  15.154  67.820  1.00  0.00    -0.223 A  
BRANCH  23  25
HETATM   25  C   UNL     1     -10.517  12.697  68.081  1.00  0.00    -0.239 C  
HETATM   26  C   UNL     1     -10.926  11.653  68.820  1.00  0.00    -0.274 C  
BRANCH  26  27
HETATM   27  C   UNL     1     -10.630  10.243  68.477  1.00  0.00    -0.240 A  
HETATM   28  C   UNL     1     -10.467   9.898  67.126  1.00  0.00    -0.305 A  
HETATM   29  C   UNL     1     -10.270   8.568  66.737  1.00  0.00    -0.370 A  
HETATM   30  C   UNL     1     -10.220   7.572  67.706  1.00  0.00    -0.201 A  
HETATM   31  C   UNL     1     -10.326   7.892  69.052  1.00  0.00    -0.223 A  
HETATM   32  O   UNL     1     -10.073   6.259  67.369  1.00  0.00    -0.130 OA 
HETATM   33  H   UNL     1     -10.038   5.578  68.031  1.00  0.00     0.000 HD 
HETATM   34  C   UNL     1     -10.525   9.223  69.438  1.00  0.00    -0.229 A  
ENDBRANCH  26  27
ENDBRANCH  23  25
ENDBRANCH  16  17
ENDBRANCH   6  16
ENDBRANCH   3   4
TORSDOF 5
ENDMDL
MODEL       44
REMARK 921   NORMALIZED FREE ENERGY PREDICTED BY IDOCK:   -6.53 KCAL/MOL
REMARK 922        TOTAL FREE ENERGY PREDICTED BY IDOCK:   -9.51 KCAL/MOL
REMARK 923 INTER-LIGAND FREE ENERGY PREDICTED BY IDOCK:   -8.47 KCAL/MOL
REMARK 924 INTRA-LIGAND FREE ENERGY PREDICTED BY IDOCK:   -1.05 KCAL/MOL
REMARK 927      BINDING AFFINITY PREDICTED BY RF-SCORE:    0.00 PKD
ROOT
HETATM    1  O   UNL     1      -8.302   9.042  68.834  1.00  0.00    -0.121 OA 
HETATM    2  H   UNL     1      -8.635   9.652  68.186  1.00  0.00     0.000 HD 
HETATM    3  C   UNL     1      -8.634   7.696  68.513  1.00  0.00    -0.129 C  
ENDROOT
BRANCH   3   4
HETATM    4  C   UNL     1      -8.092   6.708  69.566  1.00  0.00    -0.126 C  
HETATM    5  O   UNL     1      -8.586   6.991  70.894  1.00  0.00    -0.136 OA 
HETATM    6  C   UNL     1      -9.970   6.656  71.120  1.00  0.00    -0.182 C  
HETATM    7  C   UNL     1     -10.192   5.142  70.841  1.00  0.00    -0.229 C  
HETATM    8  H   UNL     1     -10.350   4.980  67.602  1.00  0.00     0.000 HD 
HETATM    9  C   UNL     1      -9.714   4.744  69.438  1.00  0.00    -0.196 C  
HETATM   10  O   UNL     1      -9.504   4.312  71.800  1.00  0.00    -0.130 OA 
HETATM   11  H   UNL     1      -7.434   3.520  69.675  1.00  0.00     0.000 HD 
HETATM   12  C   UNL     1      -8.276   5.225  69.181  1.00  0.00    -0.092 C  
HETATM   13  H   UNL     1      -9.638   3.387  71.629  1.00  0.00     0.000 HD 
HETATM   14  O   UNL     1     -10.647   5.227  68.470  1.00  0.00    -0.131 OA 
HETATM   15  O   UNL     1      -7.321   4.433  69.913  1.00  0.00    -0.049 OA 
BRANCH   6  16
HETATM   16  O   UNL     1     -10.796   7.540  70.359  1.00  0.00    -0.235 OA 
BRANCH  16  17
HETATM   17  C   UNL     1     -11.540   8.495  70.986  1.00  0.00    -0.279 A  
HETATM   18  C   UNL     1     -13.293   9.256  72.436  1.00  0.00    -0.449 A  
HETATM   19  C   UNL     1     -13.155  10.552  71.950  1.00  0.00    -0.567 A  
HETATM   20  O   UNL     1     -14.268   9.022  73.363  1.00  0.00    -1.202 OA 
HETATM   21  C   UNL     1     -12.477   8.228  71.979  1.00  0.00    -0.393 A  
HETATM   22  H   UNL     1     -14.825   9.724  73.675  1.00  0.00     0.000 HD 
HETATM   23  C   UNL     1     -12.191  10.852  70.982  1.00  0.00    -0.464 A  
HETATM   24  C   UNL     1     -11.407   9.802  70.481  1.00  0.00    -0.382 A  
BRANCH  23  25
HETATM   25  C   UNL     1     -12.099  12.256  70.530  1.00  0.00    -0.371 C  
HETATM   26  C   UNL     1     -11.525  12.694  69.397  1.00  0.00    -0.330 C  
BRANCH  26  27
HETATM   27  C   UNL     1     -11.287  14.126  69.103  1.00  0.00    -0.318 A  
HETATM   28  C   UNL     1     -10.976  14.501  67.786  1.00  0.00    -0.282 A  
HETATM   29  C   UNL     1     -10.658  15.825  67.465  1.00  0.00    -0.309 A  
HETATM   30  C   UNL     1     -10.666  16.791  68.465  1.00  0.00    -0.358 A  
HETATM   31  C   UNL     1     -11.021  16.458  69.765  1.00  0.00    -0.341 A  
HETATM   32  O   UNL     1     -10.322  18.085  68.207  1.00  0.00    -0.368 OA 
HETATM   33  H   UNL     1     -10.327  18.746  68.890  1.00  0.00     0.000 HD 
HETATM   34  C   UNL     1     -11.336  15.132  70.082  1.00  0.00    -0.300 A  
ENDBRANCH  26  27
ENDBRANCH  23  25
ENDBRANCH  16  17
ENDBRANCH   6  16
ENDBRANCH   3   4
TORSDOF 5
ENDMDL
MODEL       45
REMARK 921   NORMALIZED FREE ENERGY PREDICTED BY IDOCK:   -6.45 KCAL/MOL
REMARK 922        TOTAL FREE ENERGY PREDICTED BY IDOCK:   -9.42 KCAL/MOL
REMARK 923 INTER-LIGAND FREE ENERGY PREDICTED BY IDOCK:   -8.39 KCAL/MOL
REMARK 924 INTRA-LIGAND FREE ENERGY PREDICTED BY IDOCK:   -1.03 KCAL/MOL
REMARK 927      BINDING AFFINITY PREDICTED BY RF-SCORE:    0.00 PKD
ROOT
HETATM    1  O   UNL     1      -9.202   7.487  65.514  1.00  0.00    -0.385 OA 
HETATM    2  H   UNL     1      -9.731   8.275  65.459  1.00  0.00     0.000 HD 
HETATM    3  C   UNL     1      -8.883   7.159  66.861  1.00  0.00    -0.128 C  
ENDROOT
BRANCH   3   4
HETATM    4  C   UNL     1      -8.025   5.880  66.949  1.00  0.00    -0.102 C  
HETATM    5  O   UNL     1      -8.114   5.244  68.244  1.00  0.00    -0.094 OA 
HETATM    6  C   UNL     1      -9.359   4.568  68.513  1.00  0.00    -0.143 C  
HETATM    7  C   UNL     1      -9.607   3.481  67.428  1.00  0.00    -0.125 C  
HETATM    8  H   UNL     1     -10.707   5.177  64.888  1.00  0.00     0.000 HD 
HETATM    9  C   UNL     1      -9.552   4.065  66.011  1.00  0.00    -0.194 C  
HETATM   10  O   UNL     1      -8.641   2.411  67.508  1.00  0.00    -0.088 OA 
HETATM   11  H   UNL     1      -7.266   3.419  64.955  1.00  0.00     0.000 HD 
HETATM   12  C   UNL     1      -8.268   4.886  65.794  1.00  0.00    -0.113 C  
HETATM   13  H   UNL     1      -8.792   1.747  66.846  1.00  0.00     0.000 HD 
HETATM   14  O   UNL     1     -10.742   4.815  65.766  1.00  0.00    -0.305 OA 
HETATM   15  O   UNL     1      -7.116   4.031  65.666  1.00  0.00    -0.061 OA 
BRANCH   6  16
HETATM   16  O   UNL     1     -10.399   5.539  68.646  1.00  0.00    -0.186 OA 
BRANCH  16  17
HETATM   17  C   UNL     1     -10.651   6.113  69.857  1.00  0.00    -0.265 A  
HETATM   18  C   UNL     1     -11.272   6.075  72.173  1.00  0.00    -0.291 A  
HETATM   19  C   UNL     1     -11.425   7.457  72.173  1.00  0.00    -0.322 A  
HETATM   20  O   UNL     1     -11.554   5.401  73.328  1.00  0.00    -0.511 OA 
HETATM   21  C   UNL     1     -10.865   5.397  71.031  1.00  0.00    -0.189 A  
HETATM   22  H   UNL     1     -11.833   5.864  74.109  1.00  0.00     0.000 HD 
HETATM   23  C   UNL     1     -11.176   8.202  71.016  1.00  0.00    -0.284 A  
HETATM   24  C   UNL     1     -10.819   7.510  69.848  1.00  0.00    -0.250 A  
BRANCH  23  25
HETATM   25  C   UNL     1     -11.346   9.666  71.102  1.00  0.00    -0.456 C  
HETATM   26  C   UNL     1     -12.488  10.324  71.361  1.00  0.00    -0.528 C  
BRANCH  26  27
HETATM   27  C   UNL     1     -12.633  11.793  71.233  1.00  0.00    -0.401 A  
HETATM   28  C   UNL     1     -13.423  12.477  72.170  1.00  0.00    -0.523 A  
HETATM   29  C   UNL     1     -13.665  13.850  72.050  1.00  0.00    -0.577 A  
HETATM   30  C   UNL     1     -13.100  14.553  70.992  1.00  0.00    -0.366 A  
HETATM   31  C   UNL     1     -12.271  13.912  70.082  1.00  0.00    -0.425 A  
HETATM   32  O   UNL     1     -13.342  15.883  70.812  1.00  0.00    -0.704 OA 
HETATM   33  H   UNL     1     -12.955  16.364  70.089  1.00  0.00     0.000 HD 
HETATM   34  C   UNL     1     -12.034  12.538  70.204  1.00  0.00    -0.377 A  
ENDBRANCH  26  27
ENDBRANCH  23  25
ENDBRANCH  16  17
ENDBRANCH   6  16
ENDBRANCH   3   4
TORSDOF 5
ENDMDL
MODEL       46
REMARK 921   NORMALIZED FREE ENERGY PREDICTED BY IDOCK:   -6.42 KCAL/MOL
REMARK 922        TOTAL FREE ENERGY PREDICTED BY IDOCK:   -9.38 KCAL/MOL
REMARK 923 INTER-LIGAND FREE ENERGY PREDICTED BY IDOCK:   -8.35 KCAL/MOL
REMARK 924 INTRA-LIGAND FREE ENERGY PREDICTED BY IDOCK:   -1.03 KCAL/MOL
REMARK 927      BINDING AFFINITY PREDICTED BY RF-SCORE:    0.00 PKD
ROOT
HETATM    1  O   UNL     1      -8.479   3.314  68.550  1.00  0.00    -0.078 OA 
HETATM    2  H   UNL     1      -8.444   3.089  69.473  1.00  0.00     0.000 HD 
HETATM    3  C   UNL     1      -9.647   4.062  68.233  1.00  0.00    -0.125 C  
ENDROOT
BRANCH   3   4
HETATM    4  C   UNL     1      -9.703   4.427  66.735  1.00  0.00    -0.215 C  
HETATM    5  O   UNL     1     -10.506   5.601  66.483  1.00  0.00    -0.242 OA 
HETATM    6  C   UNL     1      -9.910   6.852  66.885  1.00  0.00    -0.183 C  
HETATM    7  C   UNL     1      -8.548   7.038  66.157  1.00  0.00    -0.143 C  
HETATM    8  H   UNL     1      -6.515   5.157  67.851  1.00  0.00     0.000 HD 
HETATM    9  C   UNL     1      -7.612   5.843  66.382  1.00  0.00    -0.091 C  
HETATM   10  O   UNL     1      -8.718   7.211  64.734  1.00  0.00    -0.354 OA 
HETATM   11  H   UNL     1      -7.623   4.387  64.229  1.00  0.00     0.000 HD 
HETATM   12  C   UNL     1      -8.317   4.513  66.063  1.00  0.00    -0.113 C  
HETATM   13  H   UNL     1      -7.886   7.324  64.289  1.00  0.00     0.000 HD 
HETATM   14  O   UNL     1      -7.095   5.896  67.712  1.00  0.00    -0.068 OA 
HETATM   15  O   UNL     1      -8.476   4.334  64.643  1.00  0.00    -0.109 OA 
BRANCH   6  16
HETATM   16  O   UNL     1      -9.846   6.901  68.312  1.00  0.00    -0.134 OA 
BRANCH  16  17
HETATM   17  C   UNL     1     -10.302   7.998  68.982  1.00  0.00    -0.218 A  
HETATM   18  C   UNL     1     -11.288   9.124  70.856  1.00  0.00    -0.295 A  
HETATM   19  C   UNL     1     -11.466  10.273  70.095  1.00  0.00    -0.383 A  
HETATM   20  O   UNL     1     -11.739   9.136  72.145  1.00  0.00    -0.342 OA 
HETATM   21  C   UNL     1     -10.688   7.992  70.319  1.00  0.00    -0.239 A  
HETATM   22  H   UNL     1     -12.149   9.910  72.513  1.00  0.00     0.000 HD 
HETATM   23  C   UNL     1     -11.048  10.316  68.760  1.00  0.00    -0.276 A  
HETATM   24  C   UNL     1     -10.493   9.154  68.202  1.00  0.00    -0.260 A  
BRANCH  23  25
HETATM   25  C   UNL     1     -11.258  11.579  68.024  1.00  0.00    -0.335 C  
HETATM   26  C   UNL     1     -11.211  11.746  66.691  1.00  0.00    -0.383 C  
BRANCH  26  27
HETATM   27  C   UNL     1     -11.229  13.071  66.032  1.00  0.00    -0.320 A  
HETATM   28  C   UNL     1     -12.365  13.442  65.294  1.00  0.00    -0.513 A  
HETATM   29  C   UNL     1     -12.405  14.645  64.580  1.00  0.00    -0.416 A  
HETATM   30  C   UNL     1     -11.306  15.496  64.614  1.00  0.00    -0.357 A  
HETATM   31  C   UNL     1     -10.192  15.180  65.378  1.00  0.00    -0.402 A  
HETATM   32  O   UNL     1     -11.284  16.658  63.901  1.00  0.00    -1.440 OA 
HETATM   33  H   UNL     1     -10.534  17.241  63.924  1.00  0.00     0.000 HD 
HETATM   34  C   UNL     1     -10.155  13.974  66.089  1.00  0.00    -0.319 A  
ENDBRANCH  26  27
ENDBRANCH  23  25
ENDBRANCH  16  17
ENDBRANCH   6  16
ENDBRANCH   3   4
TORSDOF 5
ENDMDL
MODEL       47
REMARK 921   NORMALIZED FREE ENERGY PREDICTED BY IDOCK:   -6.42 KCAL/MOL
REMARK 922        TOTAL FREE ENERGY PREDICTED BY IDOCK:   -9.37 KCAL/MOL
REMARK 923 INTER-LIGAND FREE ENERGY PREDICTED BY IDOCK:   -8.29 KCAL/MOL
REMARK 924 INTRA-LIGAND FREE ENERGY PREDICTED BY IDOCK:   -1.09 KCAL/MOL
REMARK 927      BINDING AFFINITY PREDICTED BY RF-SCORE:    0.00 PKD
ROOT
HETATM    1  O   UNL     1     -10.991  15.708  69.213  1.00  0.00    -0.232 OA 
HETATM    2  H   UNL     1     -11.925  15.563  69.318  1.00  0.00     0.000 HD 
HETATM    3  C   UNL     1     -10.708  17.039  68.799  1.00  0.00    -0.313 C  
ENDROOT
BRANCH   3   4
HETATM    4  C   UNL     1      -9.193  17.274  68.629  1.00  0.00    -0.266 C  
HETATM    5  O   UNL     1      -8.516  16.127  68.068  1.00  0.00    -0.165 OA 
HETATM    6  C   UNL     1      -8.757  15.897  66.664  1.00  0.00    -0.289 C  
HETATM    7  C   UNL     1      -8.328  17.151  65.851  1.00  0.00     0.018 C  
HETATM    8  H   UNL     1     -10.802  19.211  66.265  1.00  0.00     0.000 HD 
HETATM    9  C   UNL     1      -9.012  18.426  66.361  1.00  0.00    -0.249 C  
HETATM   10  O   UNL     1      -6.901  17.361  65.897  1.00  0.00    -0.224 OA 
HETATM   11  H   UNL     1      -7.284  19.768  67.764  1.00  0.00     0.000 HD 
HETATM   12  C   UNL     1      -8.844  18.578  67.883  1.00  0.00    -0.284 C  
HETATM   13  H   UNL     1      -6.638  18.127  65.401  1.00  0.00     0.000 HD 
HETATM   14  O   UNL     1     -10.379  18.422  65.948  1.00  0.00    -0.545 OA 
HETATM   15  O   UNL     1      -7.499  18.964  68.224  1.00  0.00    -0.267 OA 
BRANCH   6  16
HETATM   16  O   UNL     1     -10.115  15.492  66.483  1.00  0.00    -0.260 OA 
BRANCH  16  17
HETATM   17  C   UNL     1     -10.403  14.285  65.917  1.00  0.00    -0.314 A  
HETATM   18  C   UNL     1     -11.228  12.865  64.170  1.00  0.00    -0.389 A  
HETATM   19  C   UNL     1     -11.208  11.770  65.026  1.00  0.00    -0.318 A  
HETATM   20  O   UNL     1     -11.693  12.675  62.900  1.00  0.00    -0.718 OA 
HETATM   21  C   UNL     1     -10.807  14.119  64.596  1.00  0.00    -0.401 A  
HETATM   22  H   UNL     1     -11.981  11.818  62.608  1.00  0.00     0.000 HD 
HETATM   23  C   UNL     1     -10.767  11.906  66.347  1.00  0.00    -0.303 A  
HETATM   24  C   UNL     1     -10.394  13.183  66.793  1.00  0.00    -0.252 A  
BRANCH  23  25
HETATM   25  C   UNL     1     -10.762  10.691  67.188  1.00  0.00    -0.327 C  
HETATM   26  C   UNL     1     -10.070   9.563  66.958  1.00  0.00    -0.297 C  
BRANCH  26  27
HETATM   27  C   UNL     1     -10.267   8.313  67.728  1.00  0.00    -0.282 A  
HETATM   28  C   UNL     1     -10.136   8.354  69.125  1.00  0.00    -0.206 A  
HETATM   29  C   UNL     1     -10.226   7.190  69.896  1.00  0.00    -0.215 A  
HETATM   30  C   UNL     1     -10.465   5.972  69.269  1.00  0.00    -0.264 A  
HETATM   31  C   UNL     1     -10.650   5.910  67.896  1.00  0.00    -0.322 A  
HETATM   32  O   UNL     1     -10.519   4.807  69.976  1.00  0.00    -0.194 OA 
HETATM   33  H   UNL     1     -10.683   3.974  69.548  1.00  0.00     0.000 HD 
HETATM   34  C   UNL     1     -10.557   7.077  67.127  1.00  0.00    -0.412 A  
ENDBRANCH  26  27
ENDBRANCH  23  25
ENDBRANCH  16  17
ENDBRANCH   6  16
ENDBRANCH   3   4
TORSDOF 5
ENDMDL
MODEL       48
REMARK 921   NORMALIZED FREE ENERGY PREDICTED BY IDOCK:   -6.41 KCAL/MOL
REMARK 922        TOTAL FREE ENERGY PREDICTED BY IDOCK:   -9.37 KCAL/MOL
REMARK 923 INTER-LIGAND FREE ENERGY PREDICTED BY IDOCK:   -8.28 KCAL/MOL
REMARK 924 INTRA-LIGAND FREE ENERGY PREDICTED BY IDOCK:   -1.09 KCAL/MOL
REMARK 927      BINDING AFFINITY PREDICTED BY RF-SCORE:    0.00 PKD
ROOT
HETATM    1  O   UNL     1      -7.222  11.013  65.865  1.00  0.00    -0.317 OA 
HETATM    2  H   UNL     1      -7.153  10.911  64.922  1.00  0.00     0.000 HD 
HETATM    3  C   UNL     1      -7.820   9.875  66.475  1.00  0.00    -0.110 C  
ENDROOT
BRANCH   3   4
HETATM    4  C   UNL     1      -7.932  10.041  68.004  1.00  0.00    -0.101 C  
HETATM    5  O   UNL     1      -8.471  11.327  68.382  1.00  0.00    -0.141 OA 
HETATM    6  C   UNL     1      -9.883  11.497  68.142  1.00  0.00    -0.194 C  
HETATM    7  C   UNL     1     -10.677  10.401  68.910  1.00  0.00    -0.224 C  
HETATM    8  H   UNL     1     -10.350   7.770  67.038  1.00  0.00     0.000 HD 
HETATM    9  C   UNL     1     -10.189   8.990  68.560  1.00  0.00    -0.200 C  
HETATM   10  O   UNL     1     -10.576  10.567  70.341  1.00  0.00    -0.438 OA 
HETATM   11  H   UNL     1      -8.718   8.130  70.523  1.00  0.00     0.000 HD 
HETATM   12  C   UNL     1      -8.661   8.875  68.705  1.00  0.00    -0.137 C  
HETATM   13  H   UNL     1     -11.061   9.898  70.810  1.00  0.00     0.000 HD 
HETATM   14  O   UNL     1     -10.653   8.644  67.254  1.00  0.00    -0.291 OA 
HETATM   15  O   UNL     1      -8.269   8.848  70.091  1.00  0.00    -0.104 OA 
BRANCH   6  16
HETATM   16  O   UNL     1     -10.116  11.539  66.733  1.00  0.00    -0.207 OA 
BRANCH  16  17
HETATM   17  C   UNL     1     -10.527  12.695  66.139  1.00  0.00    -0.258 A  
HETATM   18  C   UNL     1     -11.674  13.968  64.460  1.00  0.00    -0.413 A  
HETATM   19  C   UNL     1     -11.031  15.128  64.875  1.00  0.00    -0.434 A  
HETATM   20  O   UNL     1     -12.522  14.054  63.393  1.00  0.00    -1.108 OA 
HETATM   21  C   UNL     1     -11.448  12.754  65.098  1.00  0.00    -0.356 A  
HETATM   22  H   UNL     1     -12.676  14.884  62.957  1.00  0.00     0.000 HD 
HETATM   23  C   UNL     1     -10.131  15.101  65.947  1.00  0.00    -0.349 A  
HETATM   24  C   UNL     1      -9.862  13.864  66.554  1.00  0.00    -0.296 A  
BRANCH  23  25
HETATM   25  C   UNL     1      -9.502  16.379  66.336  1.00  0.00    -0.320 C  
HETATM   26  C   UNL     1      -8.190  16.598  66.526  1.00  0.00    -0.330 C  
BRANCH  26  27
HETATM   27  C   UNL     1      -7.646  17.845  67.112  1.00  0.00    -0.219 A  
HETATM   28  C   UNL     1      -7.442  18.951  66.271  1.00  0.00    -0.288 A  
HETATM   29  C   UNL     1      -6.852  20.126  66.750  1.00  0.00    -0.265 A  
HETATM   30  C   UNL     1      -6.476  20.206  68.086  1.00  0.00    -0.274 A  
HETATM   31  C   UNL     1      -6.714  19.148  68.951  1.00  0.00    -0.336 A  
HETATM   32  O   UNL     1      -5.860  21.316  68.586  1.00  0.00    -0.293 OA 
HETATM   33  H   UNL     1      -5.602  21.371  69.499  1.00  0.00     0.000 HD 
HETATM   34  C   UNL     1      -7.302  17.973  68.467  1.00  0.00    -0.276 A  
ENDBRANCH  26  27
ENDBRANCH  23  25
ENDBRANCH  16  17
ENDBRANCH   6  16
ENDBRANCH   3   4
TORSDOF 5
ENDMDL
MODEL       49
REMARK 921   NORMALIZED FREE ENERGY PREDICTED BY IDOCK:   -6.41 KCAL/MOL
REMARK 922        TOTAL FREE ENERGY PREDICTED BY IDOCK:   -9.36 KCAL/MOL
REMARK 923 INTER-LIGAND FREE ENERGY PREDICTED BY IDOCK:   -8.50 KCAL/MOL
REMARK 924 INTRA-LIGAND FREE ENERGY PREDICTED BY IDOCK:   -0.86 KCAL/MOL
REMARK 927      BINDING AFFINITY PREDICTED BY RF-SCORE:    0.00 PKD
ROOT
HETATM    1  O   UNL     1     -12.058  15.730  68.695  1.00  0.00    -0.533 OA 
HETATM    2  H   UNL     1     -12.721  15.629  69.368  1.00  0.00     0.000 HD 
HETATM    3  C   UNL     1     -11.819  14.509  68.003  1.00  0.00    -0.315 C  
ENDROOT
BRANCH   3   4
HETATM    4  C   UNL     1     -10.742  14.673  66.912  1.00  0.00    -0.294 C  
HETATM    5  O   UNL     1      -9.965  13.469  66.718  1.00  0.00    -0.255 OA 
HETATM    6  C   UNL     1     -10.653  12.395  66.044  1.00  0.00    -0.256 C  
HETATM    7  C   UNL     1     -11.137  12.882  64.649  1.00  0.00    -0.324 C  
HETATM    8  H   UNL     1     -13.810  14.597  65.324  1.00  0.00     0.000 HD 
HETATM    9  C   UNL     1     -11.992  14.152  64.750  1.00  0.00    -0.431 C  
HETATM   10  O   UNL     1     -10.032  13.157  63.761  1.00  0.00    -0.741 OA 
HETATM   11  H   UNL     1     -10.528  16.175  64.029  1.00  0.00     0.000 HD 
HETATM   12  C   UNL     1     -11.284  15.236  65.581  1.00  0.00    -0.256 C  
HETATM   13  H   UNL     1     -10.327  13.454  62.909  1.00  0.00     0.000 HD 
HETATM   14  O   UNL     1     -13.281  13.810  65.261  1.00  0.00    -0.755 OA 
HETATM   15  O   UNL     1     -10.194  15.828  64.849  1.00  0.00    -0.449 OA 
BRANCH   6  16
HETATM   16  O   UNL     1     -11.679  11.889  66.899  1.00  0.00    -0.541 OA 
BRANCH  16  17
HETATM   17  C   UNL     1     -11.422  10.844  67.737  1.00  0.00    -0.243 A  
HETATM   18  C   UNL     1     -11.113   9.830  69.888  1.00  0.00    -0.254 A  
HETATM   19  C   UNL     1     -10.585   8.689  69.295  1.00  0.00    -0.204 A  
HETATM   20  O   UNL     1     -11.168   9.873  71.252  1.00  0.00    -0.361 OA 
HETATM   21  C   UNL     1     -11.555  10.900  69.120  1.00  0.00    -0.389 A  
HETATM   22  H   UNL     1     -10.865   9.142  71.777  1.00  0.00     0.000 HD 
HETATM   23  C   UNL     1     -10.479   8.593  67.902  1.00  0.00    -0.269 A  
HETATM   24  C   UNL     1     -10.874   9.697  67.131  1.00  0.00    -0.184 A  
BRANCH  23  25
HETATM   25  C   UNL     1      -9.921   7.342  67.350  1.00  0.00    -0.239 C  
HETATM   26  C   UNL     1     -10.386   6.099  67.558  1.00  0.00    -0.259 C  
BRANCH  26  27
HETATM   27  C   UNL     1      -9.662   4.876  67.142  1.00  0.00    -0.194 A  
HETATM   28  C   UNL     1      -9.649   3.772  68.011  1.00  0.00    -0.179 A  
HETATM   29  C   UNL     1      -8.912   2.622  67.709  1.00  0.00    -0.198 A  
HETATM   30  C   UNL     1      -8.192   2.564  66.521  1.00  0.00    -0.087 A  
HETATM   31  C   UNL     1      -8.230   3.618  65.621  1.00  0.00    -0.097 A  
HETATM   32  O   UNL     1      -7.426   1.480  66.206  1.00  0.00    -0.058 OA 
HETATM   33  H   UNL     1      -6.934   1.439  65.394  1.00  0.00     0.000 HD 
HETATM   34  C   UNL     1      -8.967   4.769  65.926  1.00  0.00    -0.130 A  
ENDBRANCH  26  27
ENDBRANCH  23  25
ENDBRANCH  16  17
ENDBRANCH   6  16
ENDBRANCH   3   4
TORSDOF 5
ENDMDL
MODEL       50
REMARK 921   NORMALIZED FREE ENERGY PREDICTED BY IDOCK:   -6.39 KCAL/MOL
REMARK 922        TOTAL FREE ENERGY PREDICTED BY IDOCK:   -9.34 KCAL/MOL
REMARK 923 INTER-LIGAND FREE ENERGY PREDICTED BY IDOCK:   -8.24 KCAL/MOL
REMARK 924 INTRA-LIGAND FREE ENERGY PREDICTED BY IDOCK:   -1.10 KCAL/MOL
REMARK 927      BINDING AFFINITY PREDICTED BY RF-SCORE:    0.00 PKD
ROOT
HETATM    1  O   UNL     1     -10.714  12.584  63.127  1.00  0.00    -0.608 OA 
HETATM    2  H   UNL     1     -10.006  12.211  62.614  1.00  0.00     0.000 HD 
HETATM    3  C   UNL     1     -11.007  11.794  64.274  1.00  0.00    -0.359 C  
ENDROOT
BRANCH   3   4
HETATM    4  C   UNL     1     -12.155  12.399  65.106  1.00  0.00    -0.405 C  
HETATM    5  O   UNL     1     -12.124  11.969  66.485  1.00  0.00    -0.617 OA 
HETATM    6  C   UNL     1     -11.077  12.552  67.288  1.00  0.00    -0.274 C  
HETATM    7  C   UNL     1     -11.213  14.102  67.274  1.00  0.00    -0.316 C  
HETATM    8  H   UNL     1      -9.933  14.952  64.414  1.00  0.00     0.000 HD 
HETATM    9  C   UNL     1     -11.236  14.661  65.845  1.00  0.00    -0.336 C  
HETATM   10  O   UNL     1     -12.412  14.543  67.946  1.00  0.00    -0.599 OA 
HETATM   11  H   UNL     1     -13.693  15.267  65.251  1.00  0.00     0.000 HD 
HETATM   12  C   UNL     1     -12.277  13.932  64.978  1.00  0.00    -0.425 C  
HETATM   13  H   UNL     1     -12.495  15.490  67.937  1.00  0.00     0.000 HD 
HETATM   14  O   UNL     1      -9.918  14.607  65.299  1.00  0.00    -0.366 OA 
HETATM   15  O   UNL     1     -13.618  14.323  65.331  1.00  0.00    -0.516 OA 
BRANCH   6  16
HETATM   16  O   UNL     1      -9.814  12.050  66.847  1.00  0.00    -0.200 OA 
BRANCH  16  17
HETATM   17  C   UNL     1      -8.878  11.652  67.755  1.00  0.00    -0.159 A  
HETATM   18  C   UNL     1      -6.655  11.527  68.646  1.00  0.00    -0.064 A  
HETATM   19  C   UNL     1      -7.042  10.514  69.515  1.00  0.00    -0.124 A  
HETATM   20  O   UNL     1      -5.344  11.911  68.656  1.00  0.00    -0.049 OA 
HETATM   21  C   UNL     1      -7.567  12.118  67.780  1.00  0.00    -0.131 A  
HETATM   22  H   UNL     1      -4.721  11.508  69.247  1.00  0.00     0.000 HD 
HETATM   23  C   UNL     1      -8.365  10.058  69.536  1.00  0.00    -0.180 A  
HETATM   24  C   UNL     1      -9.271  10.616  68.623  1.00  0.00    -0.181 A  
BRANCH  23  25
HETATM   25  C   UNL     1      -8.698   8.989  70.500  1.00  0.00    -0.238 C  
HETATM   26  C   UNL     1      -9.582   7.994  70.316  1.00  0.00    -0.171 C  
BRANCH  26  27
HETATM   27  C   UNL     1     -10.017   7.078  71.394  1.00  0.00    -0.190 A  
HETATM   28  C   UNL     1     -10.026   7.550  72.717  1.00  0.00    -0.280 A  
HETATM   29  C   UNL     1     -10.346   6.705  73.785  1.00  0.00    -0.373 A  
HETATM   30  C   UNL     1     -10.676   5.378  73.533  1.00  0.00    -0.287 A  
HETATM   31  C   UNL     1     -10.726   4.899  72.231  1.00  0.00    -0.218 A  
HETATM   32  O   UNL     1     -10.954   4.508  74.546  1.00  0.00    -0.288 OA 
HETATM   33  H   UNL     1     -11.180   3.602  74.374  1.00  0.00     0.000 HD 
HETATM   34  C   UNL     1     -10.403   5.747  71.165  1.00  0.00    -0.286 A  
ENDBRANCH  26  27
ENDBRANCH  23  25
ENDBRANCH  16  17
ENDBRANCH   6  16
ENDBRANCH   3   4
TORSDOF 5
ENDMDL
MODEL       51
REMARK 921   NORMALIZED FREE ENERGY PREDICTED BY IDOCK:   -6.38 KCAL/MOL
REMARK 922        TOTAL FREE ENERGY PREDICTED BY IDOCK:   -9.33 KCAL/MOL
REMARK 923 INTER-LIGAND FREE ENERGY PREDICTED BY IDOCK:   -8.49 KCAL/MOL
REMARK 924 INTRA-LIGAND FREE ENERGY PREDICTED BY IDOCK:   -0.84 KCAL/MOL
REMARK 927      BINDING AFFINITY PREDICTED BY RF-SCORE:    0.00 PKD
ROOT
HETATM    1  O   UNL     1      -8.967   5.795  64.833  1.00  0.00    -0.359 OA 
HETATM    2  H   UNL     1      -9.547   5.810  64.081  1.00  0.00     0.000 HD 
HETATM    3  C   UNL     1      -9.645   5.380  66.014  1.00  0.00    -0.131 C  
ENDROOT
BRANCH   3   4
HETATM    4  C   UNL     1      -8.703   5.356  67.235  1.00  0.00    -0.107 C  
HETATM    5  O   UNL     1      -7.990   6.602  67.406  1.00  0.00    -0.111 OA 
HETATM    6  C   UNL     1      -8.784   7.703  67.892  1.00  0.00    -0.124 C  
HETATM    7  C   UNL     1      -9.419   7.323  69.261  1.00  0.00    -0.153 C  
HETATM    8  H   UNL     1     -11.940   5.451  68.438  1.00  0.00     0.000 HD 
HETATM    9  C   UNL     1     -10.218   6.016  69.177  1.00  0.00    -0.204 C  
HETATM   10  O   UNL     1      -8.421   7.171  70.293  1.00  0.00    -0.134 OA 
HETATM   11  H   UNL     1      -8.794   4.124  70.248  1.00  0.00     0.000 HD 
HETATM   12  C   UNL     1      -9.384   4.891  68.539  1.00  0.00    -0.131 C  
HETATM   13  H   UNL     1      -8.808   6.938  71.129  1.00  0.00     0.000 HD 
HETATM   14  O   UNL     1     -11.446   6.260  68.490  1.00  0.00    -0.229 OA 
HETATM   15  O   UNL     1      -8.374   4.410  69.445  1.00  0.00    -0.072 OA 
BRANCH   6  16
HETATM   16  O   UNL     1      -9.715   8.091  66.880  1.00  0.00    -0.186 OA 
BRANCH  16  17
HETATM   17  C   UNL     1     -10.059   9.402  66.730  1.00  0.00    -0.256 A  
HETATM   18  C   UNL     1     -10.011  11.532  65.628  1.00  0.00    -0.236 A  
HETATM   19  C   UNL     1     -10.607  12.135  66.729  1.00  0.00    -0.256 A  
HETATM   20  O   UNL     1      -9.667  12.327  64.572  1.00  0.00    -0.460 OA 
HETATM   21  C   UNL     1      -9.754  10.166  65.608  1.00  0.00    -0.322 A  
HETATM   22  H   UNL     1      -9.842  13.260  64.585  1.00  0.00     0.000 HD 
HETATM   23  C   UNL     1     -10.960  11.379  67.853  1.00  0.00    -0.295 A  
HETATM   24  C   UNL     1     -10.649  10.011  67.853  1.00  0.00    -0.298 A  
BRANCH  23  25
HETATM   25  C   UNL     1     -11.603  12.092  68.975  1.00  0.00    -0.374 C  
HETATM   26  C   UNL     1     -11.600  13.419  69.185  1.00  0.00    -0.365 C  
BRANCH  26  27
HETATM   27  C   UNL     1     -12.088  14.050  70.433  1.00  0.00    -0.426 A  
HETATM   28  C   UNL     1     -11.749  15.389  70.689  1.00  0.00    -0.373 A  
HETATM   29  C   UNL     1     -12.109  16.010  71.890  1.00  0.00    -0.590 A  
HETATM   30  C   UNL     1     -12.828  15.295  72.841  1.00  0.00    -0.438 A  
HETATM   31  C   UNL     1     -13.221  13.988  72.592  1.00  0.00    -0.606 A  
HETATM   32  O   UNL     1     -13.164  15.847  74.042  1.00  0.00    -0.832 OA 
HETATM   33  H   UNL     1     -13.656  15.358  74.692  1.00  0.00     0.000 HD 
HETATM   34  C   UNL     1     -12.857  13.368  71.390  1.00  0.00    -0.420 A  
ENDBRANCH  26  27
ENDBRANCH  23  25
ENDBRANCH  16  17
ENDBRANCH   6  16
ENDBRANCH   3   4
TORSDOF 5
ENDMDL
MODEL       52
REMARK 921   NORMALIZED FREE ENERGY PREDICTED BY IDOCK:   -6.34 KCAL/MOL
REMARK 922        TOTAL FREE ENERGY PREDICTED BY IDOCK:   -9.27 KCAL/MOL
REMARK 923 INTER-LIGAND FREE ENERGY PREDICTED BY IDOCK:   -8.16 KCAL/MOL
REMARK 924 INTRA-LIGAND FREE ENERGY PREDICTED BY IDOCK:   -1.11 KCAL/MOL
REMARK 927      BINDING AFFINITY PREDICTED BY RF-SCORE:    0.00 PKD
ROOT
HETATM    1  O   UNL     1      -7.993   7.084  68.063  1.00  0.00    -0.112 OA 
HETATM    2  H   UNL     1      -7.760   6.647  67.252  1.00  0.00     0.000 HD 
HETATM    3  C   UNL     1      -7.662   8.467  68.033  1.00  0.00    -0.103 C  
ENDROOT
BRANCH   3   4
HETATM    4  C   UNL     1      -8.040   9.175  69.350  1.00  0.00    -0.102 C  
HETATM    5  O   UNL     1      -8.206  10.600  69.182  1.00  0.00    -0.146 OA 
HETATM    6  C   UNL     1      -9.403  11.003  68.485  1.00  0.00    -0.188 C  
HETATM    7  C   UNL     1     -10.651  10.461  69.239  1.00  0.00    -0.232 C  
HETATM    8  H   UNL     1     -10.791   7.345  68.340  1.00  0.00     0.000 HD 
HETATM    9  C   UNL     1     -10.578   8.943  69.449  1.00  0.00    -0.217 C  
HETATM   10  O   UNL     1     -10.812  11.084  70.531  1.00  0.00    -0.324 OA 
HETATM   11  H   UNL     1      -9.918   8.498  71.924  1.00  0.00     0.000 HD 
HETATM   12  C   UNL     1      -9.237   8.531  70.081  1.00  0.00    -0.156 C  
HETATM   13  H   UNL     1     -11.575  10.753  70.991  1.00  0.00     0.000 HD 
HETATM   14  O   UNL     1     -10.837   8.284  68.209  1.00  0.00    -0.076 OA 
HETATM   15  O   UNL     1      -9.181   8.895  71.473  1.00  0.00    -0.243 OA 
BRANCH   6  16
HETATM   16  O   UNL     1      -9.302  10.606  67.116  1.00  0.00    -0.154 OA 
BRANCH  16  17
HETATM   17  C   UNL     1      -9.889  11.354  66.139  1.00  0.00    -0.222 A  
HETATM   18  C   UNL     1     -10.882  11.687  63.982  1.00  0.00    -0.392 A  
HETATM   19  C   UNL     1     -10.795  13.066  64.134  1.00  0.00    -0.433 A  
HETATM   20  O   UNL     1     -11.385  11.206  62.806  1.00  0.00    -0.683 OA 
HETATM   21  C   UNL     1     -10.456  10.825  64.984  1.00  0.00    -0.307 A  
HETATM   22  H   UNL     1     -11.676  11.795  62.121  1.00  0.00     0.000 HD 
HETATM   23  C   UNL     1     -10.267  13.622  65.305  1.00  0.00    -0.341 A  
HETATM   24  C   UNL     1      -9.785  12.750  66.293  1.00  0.00    -0.262 A  
BRANCH  23  25
HETATM   25  C   UNL     1     -10.222  15.096  65.396  1.00  0.00    -0.402 C  
HETATM   26  C   UNL     1      -9.211  15.837  65.878  1.00  0.00    -0.337 C  
BRANCH  26  27
HETATM   27  C   UNL     1      -9.311  17.293  66.129  1.00  0.00    -0.196 A  
HETATM   28  C   UNL     1      -8.150  17.997  66.485  1.00  0.00    -0.298 A  
HETATM   29  C   UNL     1      -8.200  19.356  66.816  1.00  0.00    -0.311 A  
HETATM   30  C   UNL     1      -9.418  20.024  66.777  1.00  0.00    -0.406 A  
HETATM   31  C   UNL     1     -10.572  19.366  66.377  1.00  0.00    -0.558 A  
HETATM   32  O   UNL     1      -9.521  21.338  67.132  1.00  0.00    -0.642 OA 
HETATM   33  H   UNL     1     -10.353  21.795  67.105  1.00  0.00     0.000 HD 
HETATM   34  C   UNL     1     -10.519  18.006  66.049  1.00  0.00    -0.317 A  
ENDBRANCH  26  27
ENDBRANCH  23  25
ENDBRANCH  16  17
ENDBRANCH   6  16
ENDBRANCH   3   4
TORSDOF 5
ENDMDL
MODEL       53
REMARK 921   NORMALIZED FREE ENERGY PREDICTED BY IDOCK:   -6.33 KCAL/MOL
REMARK 922        TOTAL FREE ENERGY PREDICTED BY IDOCK:   -9.27 KCAL/MOL
REMARK 923 INTER-LIGAND FREE ENERGY PREDICTED BY IDOCK:   -8.20 KCAL/MOL
REMARK 924 INTRA-LIGAND FREE ENERGY PREDICTED BY IDOCK:   -1.07 KCAL/MOL
REMARK 927      BINDING AFFINITY PREDICTED BY RF-SCORE:    0.00 PKD
ROOT
HETATM    1  O   UNL     1      -9.135   8.025  65.656  1.00  0.00    -0.352 OA 
HETATM    2  H   UNL     1      -9.328   8.719  65.037  1.00  0.00     0.000 HD 
HETATM    3  C   UNL     1      -8.759   8.541  66.928  1.00  0.00    -0.128 C  
ENDROOT
BRANCH   3   4
HETATM    4  C   UNL     1      -8.446   7.413  67.932  1.00  0.00    -0.122 C  
HETATM    5  O   UNL     1      -8.766   7.781  69.292  1.00  0.00    -0.137 OA 
HETATM    6  C   UNL     1     -10.174   7.826  69.602  1.00  0.00    -0.206 C  
HETATM    7  C   UNL     1     -10.814   6.437  69.319  1.00  0.00    -0.327 C  
HETATM    8  H   UNL     1     -11.198   6.418  66.095  1.00  0.00     0.000 HD 
HETATM    9  C   UNL     1     -10.545   5.965  67.884  1.00  0.00    -0.251 C  
HETATM   10  O   UNL     1     -10.323   5.424  70.222  1.00  0.00    -0.249 OA 
HETATM   11  H   UNL     1      -8.672   4.164  67.961  1.00  0.00     0.000 HD 
HETATM   12  C   UNL     1      -9.047   6.047  67.541  1.00  0.00    -0.109 C  
HETATM   13  H   UNL     1     -10.714   4.576  70.049  1.00  0.00     0.000 HD 
HETATM   14  O   UNL     1     -11.365   6.710  66.983  1.00  0.00    -0.348 OA 
HETATM   15  O   UNL     1      -8.302   5.006  68.202  1.00  0.00    -0.096 OA 
BRANCH   6  16
HETATM   16  O   UNL     1     -10.771   8.922  68.905  1.00  0.00    -0.197 OA 
BRANCH  16  17
HETATM   17  C   UNL     1     -11.282   9.980  69.598  1.00  0.00    -0.239 A  
HETATM   18  C   UNL     1     -12.670  10.994  71.271  1.00  0.00    -0.432 A  
HETATM   19  C   UNL     1     -12.458  12.249  70.711  1.00  0.00    -0.356 A  
HETATM   20  O   UNL     1     -13.502  10.909  72.350  1.00  0.00    -0.587 OA 
HETATM   21  C   UNL     1     -12.070   9.859  70.738  1.00  0.00    -0.396 A  
HETATM   22  H   UNL     1     -13.912  11.684  72.714  1.00  0.00     0.000 HD 
HETATM   23  C   UNL     1     -11.635  12.400  69.589  1.00  0.00    -0.330 A  
HETATM   24  C   UNL     1     -11.075  11.246  69.019  1.00  0.00    -0.301 A  
BRANCH  23  25
HETATM   25  C   UNL     1     -11.448  13.767  69.064  1.00  0.00    -0.349 C  
HETATM   26  C   UNL     1     -11.308  14.117  67.775  1.00  0.00    -0.330 C  
BRANCH  26  27
HETATM   27  C   UNL     1     -10.922  15.477  67.334  1.00  0.00    -0.306 A  
HETATM   28  C   UNL     1     -10.792  16.487  68.300  1.00  0.00    -0.352 A  
HETATM   29  C   UNL     1     -10.513  17.808  67.934  1.00  0.00    -0.401 A  
HETATM   30  C   UNL     1     -10.346  18.124  66.590  1.00  0.00    -0.376 A  
HETATM   31  C   UNL     1     -10.416  17.136  65.619  1.00  0.00    -0.208 A  
HETATM   32  O   UNL     1     -10.114  19.406  66.184  1.00  0.00    -0.402 OA 
HETATM   33  H   UNL     1     -10.000  19.622  65.266  1.00  0.00     0.000 HD 
HETATM   34  C   UNL     1     -10.698  15.815  65.989  1.00  0.00    -0.311 A  
ENDBRANCH  26  27
ENDBRANCH  23  25
ENDBRANCH  16  17
ENDBRANCH   6  16
ENDBRANCH   3   4
TORSDOF 5
ENDMDL
MODEL       54
REMARK 921   NORMALIZED FREE ENERGY PREDICTED BY IDOCK:   -6.31 KCAL/MOL
REMARK 922        TOTAL FREE ENERGY PREDICTED BY IDOCK:   -9.23 KCAL/MOL
REMARK 923 INTER-LIGAND FREE ENERGY PREDICTED BY IDOCK:   -8.33 KCAL/MOL
REMARK 924 INTRA-LIGAND FREE ENERGY PREDICTED BY IDOCK:   -0.90 KCAL/MOL
REMARK 927      BINDING AFFINITY PREDICTED BY RF-SCORE:    0.00 PKD
ROOT
HETATM    1  O   UNL     1      -9.448   7.161  69.215  1.00  0.00    -0.153 OA 
HETATM    2  H   UNL     1      -9.707   6.792  70.051  1.00  0.00     0.000 HD 
HETATM    3  C   UNL     1     -10.495   7.927  68.630  1.00  0.00    -0.167 C  
ENDROOT
BRANCH   3   4
HETATM    4  C   UNL     1     -10.075   8.527  67.273  1.00  0.00    -0.251 C  
HETATM    5  O   UNL     1     -10.854   9.690  66.918  1.00  0.00    -0.167 OA 
HETATM    6  C   UNL     1     -10.555  10.884  67.671  1.00  0.00    -0.224 C  
HETATM    7  C   UNL     1      -9.052  11.244  67.500  1.00  0.00    -0.151 C  
HETATM    8  H   UNL     1      -7.543   9.204  69.524  1.00  0.00     0.000 HD 
HETATM    9  C   UNL     1      -8.136  10.072  67.872  1.00  0.00    -0.109 C  
HETATM   10  O   UNL     1      -8.744  11.639  66.145  1.00  0.00    -0.281 OA 
HETATM   11  H   UNL     1      -7.274   8.985  65.674  1.00  0.00     0.000 HD 
HETATM   12  C   UNL     1      -8.558   8.782  67.148  1.00  0.00    -0.117 C  
HETATM   13  H   UNL     1      -7.826  11.859  66.040  1.00  0.00     0.000 HD 
HETATM   14  O   UNL     1      -8.109   9.931  69.293  1.00  0.00    -0.105 OA 
HETATM   15  O   UNL     1      -8.208   8.828  65.751  1.00  0.00    -0.110 OA 
BRANCH   6  16
HETATM   16  O   UNL     1     -10.985  10.704  69.022  1.00  0.00    -0.214 OA 
BRANCH  16  17
HETATM   17  C   UNL     1     -11.474  11.760  69.733  1.00  0.00    -0.245 A  
HETATM   18  C   UNL     1     -12.860  12.776  71.405  1.00  0.00    -0.275 A  
HETATM   19  C   UNL     1     -12.593  14.037  70.885  1.00  0.00    -0.431 A  
HETATM   20  O   UNL     1     -13.718  12.691  72.465  1.00  0.00    -0.608 OA 
HETATM   21  C   UNL     1     -12.289  11.636  70.854  1.00  0.00    -0.436 A  
HETATM   22  H   UNL     1     -14.108  13.470  72.842  1.00  0.00     0.000 HD 
HETATM   23  C   UNL     1     -11.743  14.190  69.785  1.00  0.00    -0.370 A  
HETATM   24  C   UNL     1     -11.211  13.033  69.194  1.00  0.00    -0.297 A  
BRANCH  23  25
HETATM   25  C   UNL     1     -11.498  15.564  69.302  1.00  0.00    -0.349 C  
HETATM   26  C   UNL     1     -10.847  15.913  68.180  1.00  0.00    -0.317 C  
BRANCH  26  27
HETATM   27  C   UNL     1     -10.460  17.306  67.860  1.00  0.00    -0.382 A  
HETATM   28  C   UNL     1     -10.321  18.226  68.912  1.00  0.00    -0.191 A  
HETATM   29  C   UNL     1     -10.041  19.574  68.663  1.00  0.00    -0.535 A  
HETATM   30  C   UNL     1      -9.882  20.008  67.352  1.00  0.00    -0.422 A  
HETATM   31  C   UNL     1      -9.961  19.111  66.297  1.00  0.00    -0.462 A  
HETATM   32  O   UNL     1      -9.649  21.320  67.060  1.00  0.00    -0.602 OA 
HETATM   33  H   UNL     1      -9.540  21.618  66.164  1.00  0.00     0.000 HD 
HETATM   34  C   UNL     1     -10.244  17.763  66.549  1.00  0.00    -0.358 A  
ENDBRANCH  26  27
ENDBRANCH  23  25
ENDBRANCH  16  17
ENDBRANCH   6  16
ENDBRANCH   3   4
TORSDOF 5
ENDMDL
MODEL       55
REMARK 921   NORMALIZED FREE ENERGY PREDICTED BY IDOCK:   -6.29 KCAL/MOL
REMARK 922        TOTAL FREE ENERGY PREDICTED BY IDOCK:   -9.21 KCAL/MOL
REMARK 923 INTER-LIGAND FREE ENERGY PREDICTED BY IDOCK:   -8.40 KCAL/MOL
REMARK 924 INTRA-LIGAND FREE ENERGY PREDICTED BY IDOCK:   -0.81 KCAL/MOL
REMARK 927      BINDING AFFINITY PREDICTED BY RF-SCORE:    0.00 PKD
ROOT
HETATM    1  O   UNL     1      -9.643   2.107  66.935  1.00  0.00    -0.382 OA 
HETATM    2  H   UNL     1      -9.399   1.470  67.596  1.00  0.00     0.000 HD 
HETATM    3  C   UNL     1      -9.249   3.425  67.303  1.00  0.00    -0.193 C  
ENDROOT
BRANCH   3   4
HETATM    4  C   UNL     1      -9.646   4.459  66.230  1.00  0.00    -0.194 C  
HETATM    5  O   UNL     1     -10.685   5.355  66.684  1.00  0.00    -0.295 OA 
HETATM    6  C   UNL     1     -10.268   6.342  67.650  1.00  0.00    -0.169 C  
HETATM    7  C   UNL     1      -9.122   7.205  67.049  1.00  0.00    -0.134 C  
HETATM    8  H   UNL     1      -6.499   5.318  67.369  1.00  0.00     0.000 HD 
HETATM    9  C   UNL     1      -7.955   6.341  66.553  1.00  0.00    -0.109 C  
HETATM   10  O   UNL     1      -9.579   8.014  65.946  1.00  0.00    -0.427 OA 
HETATM   11  H   UNL     1      -8.091   6.205  63.961  1.00  0.00     0.000 HD 
HETATM   12  C   UNL     1      -8.448   5.219  65.623  1.00  0.00    -0.135 C  
HETATM   13  H   UNL     1      -8.879   8.542  65.579  1.00  0.00     0.000 HD 
HETATM   14  O   UNL     1      -7.221   5.853  67.677  1.00  0.00    -0.073 OA 
HETATM   15  O   UNL     1      -8.830   5.738  64.335  1.00  0.00     0.059 OA 
BRANCH   6  16
HETATM   16  O   UNL     1      -9.954   5.687  68.880  1.00  0.00    -0.142 OA 
BRANCH  16  17
HETATM   17  C   UNL     1     -10.489   6.135  70.052  1.00  0.00    -0.234 A  
HETATM   18  C   UNL     1     -11.354   5.858  72.272  1.00  0.00    -0.298 A  
HETATM   19  C   UNL     1     -11.855   7.155  72.257  1.00  0.00    -0.278 A  
HETATM   20  O   UNL     1     -11.589   5.095  73.380  1.00  0.00    -0.499 OA 
HETATM   21  C   UNL     1     -10.651   5.347  71.188  1.00  0.00    -0.276 A  
HETATM   22  H   UNL     1     -12.070   5.444  74.121  1.00  0.00     0.000 HD 
HETATM   23  C   UNL     1     -11.669   7.979  71.142  1.00  0.00    -0.307 A  
HETATM   24  C   UNL     1     -11.008   7.443  70.026  1.00  0.00    -0.264 A  
BRANCH  23  25
HETATM   25  C   UNL     1     -12.219   9.348  71.211  1.00  0.00    -0.425 C  
HETATM   26  C   UNL     1     -11.773  10.424  70.541  1.00  0.00    -0.434 C  
BRANCH  26  27
HETATM   27  C   UNL     1     -12.237  11.804  70.809  1.00  0.00    -0.424 A  
HETATM   28  C   UNL     1     -13.059  12.034  71.925  1.00  0.00    -0.475 A  
HETATM   29  C   UNL     1     -13.598  13.300  72.179  1.00  0.00    -0.655 A  
HETATM   30  C   UNL     1     -13.301  14.354  71.322  1.00  0.00    -0.343 A  
HETATM   31  C   UNL     1     -12.449  14.166  70.243  1.00  0.00    -0.416 A  
HETATM   32  O   UNL     1     -13.837  15.594  71.507  1.00  0.00    -0.491 OA 
HETATM   33  H   UNL     1     -13.634  16.315  70.921  1.00  0.00     0.000 HD 
HETATM   34  C   UNL     1     -11.914  12.898  69.989  1.00  0.00    -0.380 A  
ENDBRANCH  26  27
ENDBRANCH  23  25
ENDBRANCH  16  17
ENDBRANCH   6  16
ENDBRANCH   3   4
TORSDOF 5
ENDMDL
MODEL       56
REMARK 921   NORMALIZED FREE ENERGY PREDICTED BY IDOCK:   -6.29 KCAL/MOL
REMARK 922        TOTAL FREE ENERGY PREDICTED BY IDOCK:   -9.20 KCAL/MOL
REMARK 923 INTER-LIGAND FREE ENERGY PREDICTED BY IDOCK:   -8.06 KCAL/MOL
REMARK 924 INTRA-LIGAND FREE ENERGY PREDICTED BY IDOCK:   -1.14 KCAL/MOL
REMARK 927      BINDING AFFINITY PREDICTED BY RF-SCORE:    0.00 PKD
ROOT
HETATM    1  O   UNL     1     -11.176   9.251  68.865  1.00  0.00    -0.448 OA 
HETATM    2  H   UNL     1     -11.357   9.782  69.632  1.00  0.00     0.000 HD 
HETATM    3  C   UNL     1      -9.781   9.179  68.591  1.00  0.00    -0.155 C  
ENDROOT
BRANCH   3   4
HETATM    4  C   UNL     1      -9.488   8.317  67.346  1.00  0.00    -0.151 C  
HETATM    5  O   UNL     1     -10.368   8.626  66.242  1.00  0.00    -0.214 OA 
HETATM    6  C   UNL     1     -10.106   9.881  65.580  1.00  0.00    -0.227 C  
HETATM    7  C   UNL     1      -8.645   9.893  65.046  1.00  0.00    -0.161 C  
HETATM    8  H   UNL     1      -6.875  10.551  67.686  1.00  0.00     0.000 HD 
HETATM    9  C   UNL     1      -7.629   9.593  66.155  1.00  0.00    -0.102 C  
HETATM   10  O   UNL     1      -8.451   8.930  63.989  1.00  0.00    -0.221 OA 
HETATM   11  H   UNL     1      -6.831   7.135  65.880  1.00  0.00     0.000 HD 
HETATM   12  C   UNL     1      -8.004   8.315  66.925  1.00  0.00    -0.099 C  
HETATM   13  H   UNL     1      -7.558   8.937  63.663  1.00  0.00     0.000 HD 
HETATM   14  O   UNL     1      -7.504  10.738  67.000  1.00  0.00    -0.103 OA 
HETATM   15  O   UNL     1      -7.745   7.136  66.139  1.00  0.00    -0.092 OA 
BRANCH   6  16
HETATM   16  O   UNL     1     -10.438  10.953  66.464  1.00  0.00    -0.243 OA 
BRANCH  16  17
HETATM   17  C   UNL     1     -10.668  12.204  65.970  1.00  0.00    -0.273 A  
HETATM   18  C   UNL     1     -11.560  13.765  64.383  1.00  0.00    -0.395 A  
HETATM   19  C   UNL     1     -10.793  14.787  64.932  1.00  0.00    -0.433 A  
HETATM   20  O   UNL     1     -12.337  14.061  63.300  1.00  0.00    -1.133 OA 
HETATM   21  C   UNL     1     -11.523  12.479  64.908  1.00  0.00    -0.367 A  
HETATM   22  H   UNL     1     -12.362  14.940  62.941  1.00  0.00     0.000 HD 
HETATM   23  C   UNL     1      -9.957  14.543  66.027  1.00  0.00    -0.343 A  
HETATM   24  C   UNL     1      -9.879  13.231  66.520  1.00  0.00    -0.281 A  
BRANCH  23  25
HETATM   25  C   UNL     1      -9.188  15.685  66.561  1.00  0.00    -0.325 C  
HETATM   26  C   UNL     1      -9.632  16.943  66.722  1.00  0.00    -0.273 C  
BRANCH  26  27
HETATM   27  C   UNL     1      -8.752  18.082  67.069  1.00  0.00    -0.253 A  
HETATM   28  C   UNL     1      -7.774  17.901  68.061  1.00  0.00    -0.245 A  
HETATM   29  C   UNL     1      -6.972  18.964  68.490  1.00  0.00    -0.299 A  
HETATM   30  C   UNL     1      -7.135  20.219  67.914  1.00  0.00    -0.292 A  
HETATM   31  C   UNL     1      -8.057  20.413  66.895  1.00  0.00    -0.318 A  
HETATM   32  O   UNL     1      -6.404  21.293  68.330  1.00  0.00    -0.233 OA 
HETATM   33  H   UNL     1      -6.515  22.150  67.936  1.00  0.00     0.000 HD 
HETATM   34  C   UNL     1      -8.859  19.348  66.470  1.00  0.00    -0.382 A  
ENDBRANCH  26  27
ENDBRANCH  23  25
ENDBRANCH  16  17
ENDBRANCH   6  16
ENDBRANCH   3   4
TORSDOF 5
ENDMDL
MODEL       57
REMARK 921   NORMALIZED FREE ENERGY PREDICTED BY IDOCK:   -6.27 KCAL/MOL
REMARK 922        TOTAL FREE ENERGY PREDICTED BY IDOCK:   -9.18 KCAL/MOL
REMARK 923 INTER-LIGAND FREE ENERGY PREDICTED BY IDOCK:   -8.40 KCAL/MOL
REMARK 924 INTRA-LIGAND FREE ENERGY PREDICTED BY IDOCK:   -0.78 KCAL/MOL
REMARK 927      BINDING AFFINITY PREDICTED BY RF-SCORE:    0.00 PKD
ROOT
HETATM    1  O   UNL     1     -12.654  14.429  68.637  1.00  0.00    -0.542 OA 
HETATM    2  H   UNL     1     -13.193  14.018  69.303  1.00  0.00     0.000 HD 
HETATM    3  C   UNL     1     -11.893  13.472  67.909  1.00  0.00    -0.362 C  
ENDROOT
BRANCH   3   4
HETATM    4  C   UNL     1     -11.018  14.140  66.829  1.00  0.00    -0.300 C  
HETATM    5  O   UNL     1      -9.809  13.396  66.561  1.00  0.00    -0.271 OA 
HETATM    6  C   UNL     1      -9.991  12.170  65.822  1.00  0.00    -0.249 C  
HETATM    7  C   UNL     1     -10.674  12.480  64.460  1.00  0.00    -0.330 C  
HETATM    8  H   UNL     1     -13.803  12.850  65.242  1.00  0.00     0.000 HD 
HETATM    9  C   UNL     1     -11.985  13.256  64.640  1.00  0.00    -0.394 C  
HETATM   10  O   UNL     1      -9.816  13.249  63.590  1.00  0.00    -0.522 OA 
HETATM   11  H   UNL     1     -11.543  15.747  64.044  1.00  0.00     0.000 HD 
HETATM   12  C   UNL     1     -11.784  14.491  65.536  1.00  0.00    -0.343 C  
HETATM   13  H   UNL     1     -10.233  13.439  62.758  1.00  0.00     0.000 HD 
HETATM   14  O   UNL     1     -12.992  12.369  65.130  1.00  0.00    -0.607 OA 
HETATM   15  O   UNL     1     -11.070  15.531  64.840  1.00  0.00    -0.409 OA 
BRANCH   6  16
HETATM   16  O   UNL     1     -10.681  11.227  66.645  1.00  0.00    -0.252 OA 
BRANCH  16  17
HETATM   17  C   UNL     1     -10.204   9.957  66.781  1.00  0.00    -0.236 A  
HETATM   18  C   UNL     1      -9.270   7.905  65.963  1.00  0.00    -0.104 A  
HETATM   19  C   UNL     1      -9.548   7.276  67.171  1.00  0.00    -0.203 A  
HETATM   20  O   UNL     1      -8.708   7.157  64.968  1.00  0.00    -0.359 OA 
HETATM   21  C   UNL     1      -9.572   9.247  65.765  1.00  0.00    -0.341 A  
HETATM   22  H   UNL     1      -8.502   6.240  65.103  1.00  0.00     0.000 HD 
HETATM   23  C   UNL     1     -10.146   7.981  68.221  1.00  0.00    -0.227 A  
HETATM   24  C   UNL     1     -10.501   9.321  68.001  1.00  0.00    -0.275 A  
BRANCH  23  25
HETATM   25  C   UNL     1     -10.394   7.245  69.478  1.00  0.00    -0.230 C  
HETATM   26  C   UNL     1      -9.547   6.402  70.091  1.00  0.00    -0.173 C  
BRANCH  26  27
HETATM   27  C   UNL     1      -9.933   5.543  71.234  1.00  0.00    -0.249 A  
HETATM   28  C   UNL     1      -9.302   4.297  71.383  1.00  0.00    -0.210 A  
HETATM   29  C   UNL     1      -9.686   3.408  72.393  1.00  0.00    -0.212 A  
HETATM   30  C   UNL     1     -10.699   3.770  73.274  1.00  0.00    -0.197 A  
HETATM   31  C   UNL     1     -11.302   5.016  73.182  1.00  0.00    -0.397 A  
HETATM   32  O   UNL     1     -11.134   2.919  74.247  1.00  0.00    -0.092 OA 
HETATM   33  H   UNL     1     -11.825   3.166  74.850  1.00  0.00     0.000 HD 
HETATM   34  C   UNL     1     -10.917   5.902  72.169  1.00  0.00    -0.317 A  
ENDBRANCH  26  27
ENDBRANCH  23  25
ENDBRANCH  16  17
ENDBRANCH   6  16
ENDBRANCH   3   4
TORSDOF 5
ENDMDL
MODEL       58
REMARK 921   NORMALIZED FREE ENERGY PREDICTED BY IDOCK:   -6.25 KCAL/MOL
REMARK 922        TOTAL FREE ENERGY PREDICTED BY IDOCK:   -9.16 KCAL/MOL
REMARK 923 INTER-LIGAND FREE ENERGY PREDICTED BY IDOCK:   -8.36 KCAL/MOL
REMARK 924 INTRA-LIGAND FREE ENERGY PREDICTED BY IDOCK:   -0.80 KCAL/MOL
REMARK 927      BINDING AFFINITY PREDICTED BY RF-SCORE:    0.00 PKD
ROOT
HETATM    1  O   UNL     1      -9.815  14.560  65.196  1.00  0.00    -0.507 OA 
HETATM    2  H   UNL     1      -9.518  13.732  64.836  1.00  0.00     0.000 HD 
HETATM    3  C   UNL     1     -10.382  14.398  66.492  1.00  0.00    -0.281 C  
ENDROOT
BRANCH   3   4
HETATM    4  C   UNL     1     -10.865  15.741  67.076  1.00  0.00    -0.273 C  
HETATM    5  O   UNL     1     -11.987  15.581  67.972  1.00  0.00    -0.195 OA 
HETATM    6  C   UNL     1     -11.672  15.002  69.255  1.00  0.00    -0.323 C  
HETATM    7  C   UNL     1     -10.606  15.879  69.974  1.00  0.00    -0.316 C  
HETATM    8  H   UNL     1      -7.822  15.019  68.544  1.00  0.00     0.000 HD 
HETATM    9  C   UNL     1      -9.360  16.091  69.105  1.00  0.00    -0.251 C  
HETATM   10  O   UNL     1     -11.129  17.176  70.331  1.00  0.00    -0.263 OA 
HETATM   11  H   UNL     1      -9.462  18.492  68.113  1.00  0.00     0.000 HD 
HETATM   12  C   UNL     1      -9.738  16.591  67.699  1.00  0.00    -0.239 C  
HETATM   13  H   UNL     1     -10.478  17.712  70.770  1.00  0.00     0.000 HD 
HETATM   14  O   UNL     1      -8.593  14.887  69.082  1.00  0.00    -0.188 OA 
HETATM   15  O   UNL     1     -10.157  17.968  67.729  1.00  0.00    -0.319 OA 
BRANCH   6  16
HETATM   16  O   UNL     1     -11.308  13.633  69.073  1.00  0.00    -0.257 OA 
BRANCH  16  17
HETATM   17  C   UNL     1     -11.841  12.668  69.876  1.00  0.00    -0.294 A  
HETATM   18  C   UNL     1     -13.099  11.884  71.761  1.00  0.00    -0.360 A  
HETATM   19  C   UNL     1     -12.603  10.598  71.580  1.00  0.00    -0.482 A  
HETATM   20  O   UNL     1     -13.933  12.104  72.821  1.00  0.00    -0.373 OA 
HETATM   21  C   UNL     1     -12.744  12.918  70.904  1.00  0.00    -0.291 A  
HETATM   22  H   UNL     1     -14.175  11.397  73.407  1.00  0.00     0.000 HD 
HETATM   23  C   UNL     1     -11.725  10.314  70.528  1.00  0.00    -0.418 A  
HETATM   24  C   UNL     1     -11.324  11.371  69.697  1.00  0.00    -0.347 A  
BRANCH  23  25
HETATM   25  C   UNL     1     -11.255   8.920  70.395  1.00  0.00    -0.259 C  
HETATM   26  C   UNL     1     -11.693   7.859  71.093  1.00  0.00    -0.306 C  
BRANCH  26  27
HETATM   27  C   UNL     1     -11.040   6.530  71.056  1.00  0.00    -0.339 A  
HETATM   28  C   UNL     1     -10.797   5.864  72.268  1.00  0.00    -0.292 A  
HETATM   29  C   UNL     1     -10.107   4.647  72.300  1.00  0.00    -0.250 A  
HETATM   30  C   UNL     1      -9.669   4.078  71.110  1.00  0.00    -0.187 A  
HETATM   31  C   UNL     1      -9.942   4.688  69.894  1.00  0.00    -0.296 A  
HETATM   32  O   UNL     1      -8.957   2.915  71.097  1.00  0.00    -0.081 OA 
HETATM   33  H   UNL     1      -8.658   2.525  70.284  1.00  0.00     0.000 HD 
HETATM   34  C   UNL     1     -10.630   5.907  69.866  1.00  0.00    -0.370 A  
ENDBRANCH  26  27
ENDBRANCH  23  25
ENDBRANCH  16  17
ENDBRANCH   6  16
ENDBRANCH   3   4
TORSDOF 5
ENDMDL
MODEL       59
REMARK 921   NORMALIZED FREE ENERGY PREDICTED BY IDOCK:   -6.25 KCAL/MOL
REMARK 922        TOTAL FREE ENERGY PREDICTED BY IDOCK:   -9.15 KCAL/MOL
REMARK 923 INTER-LIGAND FREE ENERGY PREDICTED BY IDOCK:   -8.13 KCAL/MOL
REMARK 924 INTRA-LIGAND FREE ENERGY PREDICTED BY IDOCK:   -1.02 KCAL/MOL
REMARK 927      BINDING AFFINITY PREDICTED BY RF-SCORE:    0.00 PKD
ROOT
HETATM    1  O   UNL     1      -6.956  17.149  67.003  1.00  0.00    -0.160 OA 
HETATM    2  H   UNL     1      -6.140  16.853  66.618  1.00  0.00     0.000 HD 
HETATM    3  C   UNL     1      -8.063  16.910  66.141  1.00  0.00    -0.260 C  
ENDROOT
BRANCH   3   4
HETATM    4  C   UNL     1      -9.388  17.392  66.767  1.00  0.00    -0.268 C  
HETATM    5  O   UNL     1     -10.540  16.728  66.200  1.00  0.00    -0.294 OA 
HETATM    6  C   UNL     1     -10.715  15.353  66.599  1.00  0.00    -0.309 C  
HETATM    7  C   UNL     1     -10.829  15.271  68.148  1.00  0.00    -0.273 C  
HETATM    8  H   UNL     1      -7.752  15.505  69.154  1.00  0.00     0.000 HD 
HETATM    9  C   UNL     1      -9.636  15.936  68.846  1.00  0.00    -0.230 C  
HETATM   10  O   UNL     1     -12.036  15.897  68.632  1.00  0.00    -0.499 OA 
HETATM   11  H   UNL     1     -10.406  18.252  69.739  1.00  0.00     0.000 HD 
HETATM   12  C   UNL     1      -9.397  17.358  68.310  1.00  0.00    -0.278 C  
HETATM   13  H   UNL     1     -12.107  15.848  69.578  1.00  0.00     0.000 HD 
HETATM   14  O   UNL     1      -8.490  15.092  68.722  1.00  0.00    -0.159 OA 
HETATM   15  O   UNL     1     -10.401  18.273  68.789  1.00  0.00    -0.354 OA 
BRANCH   6  16
HETATM   16  O   UNL     1      -9.670  14.563  66.026  1.00  0.00    -0.298 OA 
BRANCH  16  17
HETATM   17  C   UNL     1      -9.912  13.275  65.649  1.00  0.00    -0.230 A  
HETATM   18  C   UNL     1     -10.681  11.579  64.138  1.00  0.00    -0.368 A  
HETATM   19  C   UNL     1     -10.621  10.627  65.149  1.00  0.00    -0.190 A  
HETATM   20  O   UNL     1     -11.137  11.183  62.913  1.00  0.00    -0.812 OA 
HETATM   21  C   UNL     1     -10.308  12.897  64.370  1.00  0.00    -0.393 A  
HETATM   22  H   UNL     1     -11.392  10.282  62.754  1.00  0.00     0.000 HD 
HETATM   23  C   UNL     1     -10.186  10.975  66.432  1.00  0.00    -0.284 A  
HETATM   24  C   UNL     1      -9.863  12.318  66.679  1.00  0.00    -0.230 A  
BRANCH  23  25
HETATM   25  C   UNL     1     -10.136   9.902  67.446  1.00  0.00    -0.254 C  
HETATM   26  C   UNL     1     -10.319   8.589  67.229  1.00  0.00    -0.372 C  
BRANCH  26  27
HETATM   27  C   UNL     1     -10.458   7.592  68.316  1.00  0.00    -0.219 A  
HETATM   28  C   UNL     1     -10.431   8.039  69.647  1.00  0.00    -0.224 A  
HETATM   29  C   UNL     1     -10.472   7.136  70.715  1.00  0.00    -0.227 A  
HETATM   30  C   UNL     1     -10.557   5.773  70.455  1.00  0.00    -0.294 A  
HETATM   31  C   UNL     1     -10.637   5.308  69.150  1.00  0.00    -0.167 A  
HETATM   32  O   UNL     1     -10.557   4.855  71.463  1.00  0.00    -0.157 OA 
HETATM   33  H   UNL     1     -10.615   3.923  71.286  1.00  0.00     0.000 HD 
HETATM   34  C   UNL     1     -10.594   6.214  68.084  1.00  0.00    -0.328 A  
ENDBRANCH  26  27
ENDBRANCH  23  25
ENDBRANCH  16  17
ENDBRANCH   6  16
ENDBRANCH   3   4
TORSDOF 5
ENDMDL
MODEL       60
REMARK 921   NORMALIZED FREE ENERGY PREDICTED BY IDOCK:   -6.23 KCAL/MOL
REMARK 922        TOTAL FREE ENERGY PREDICTED BY IDOCK:   -9.13 KCAL/MOL
REMARK 923 INTER-LIGAND FREE ENERGY PREDICTED BY IDOCK:   -8.07 KCAL/MOL
REMARK 924 INTRA-LIGAND FREE ENERGY PREDICTED BY IDOCK:   -1.06 KCAL/MOL
REMARK 927      BINDING AFFINITY PREDICTED BY RF-SCORE:    0.00 PKD
ROOT
HETATM    1  O   UNL     1     -11.438   6.247  68.457  1.00  0.00    -0.481 OA 
HETATM    2  H   UNL     1     -12.212   6.272  67.908  1.00  0.00     0.000 HD 
HETATM    3  C   UNL     1     -11.763   6.399  69.834  1.00  0.00    -0.239 C  
ENDROOT
BRANCH   3   4
HETATM    4  C   UNL     1     -10.505   6.359  70.726  1.00  0.00    -0.222 C  
HETATM    5  O   UNL     1      -9.440   7.190  70.215  1.00  0.00    -0.162 OA 
HETATM    6  C   UNL     1      -9.643   8.611  70.362  1.00  0.00    -0.173 C  
HETATM    7  C   UNL     1      -9.838   8.955  71.866  1.00  0.00    -0.294 C  
HETATM    8  H   UNL     1     -12.925   8.130  72.443  1.00  0.00     0.000 HD 
HETATM    9  C   UNL     1     -10.968   8.133  72.499  1.00  0.00    -0.369 C  
HETATM   10  O   UNL     1      -8.636   8.725  72.631  1.00  0.00    -0.411 OA 
HETATM   11  H   UNL     1      -9.896   6.242  73.924  1.00  0.00     0.000 HD 
HETATM   12  C   UNL     1     -10.791   6.631  72.218  1.00  0.00    -0.229 C  
HETATM   13  H   UNL     1      -8.755   8.935  73.550  1.00  0.00     0.000 HD 
HETATM   14  O   UNL     1     -12.226   8.640  72.050  1.00  0.00    -0.324 OA 
HETATM   15  O   UNL     1      -9.720   6.075  73.005  1.00  0.00    -0.157 OA 
BRANCH   6  16
HETATM   16  O   UNL     1     -10.708   9.022  69.503  1.00  0.00    -0.229 OA 
BRANCH  16  17
HETATM   17  C   UNL     1     -10.436   9.670  68.334  1.00  0.00    -0.223 A  
HETATM   18  C   UNL     1      -9.780   9.776  66.030  1.00  0.00    -0.255 A  
HETATM   19  C   UNL     1      -9.626  11.155  66.119  1.00  0.00    -0.239 A  
HETATM   20  O   UNL     1      -9.483   9.176  64.839  1.00  0.00    -0.453 OA 
HETATM   21  C   UNL     1     -10.206   9.029  67.121  1.00  0.00    -0.334 A  
HETATM   22  H   UNL     1      -9.191   9.686  64.093  1.00  0.00     0.000 HD 
HETATM   23  C   UNL     1      -9.891  11.826  67.317  1.00  0.00    -0.198 A  
HETATM   24  C   UNL     1     -10.267  11.064  68.434  1.00  0.00    -0.198 A  
BRANCH  23  25
HETATM   25  C   UNL     1      -9.718  13.293  67.325  1.00  0.00    -0.231 C  
HETATM   26  C   UNL     1     -10.595  14.199  67.788  1.00  0.00    -0.243 C  
BRANCH  26  27
HETATM   27  C   UNL     1     -10.448  15.658  67.582  1.00  0.00    -0.283 A  
HETATM   28  C   UNL     1     -10.332  16.490  68.707  1.00  0.00    -0.286 A  
HETATM   29  C   UNL     1     -10.276  17.882  68.577  1.00  0.00    -0.393 A  
HETATM   30  C   UNL     1     -10.322  18.452  67.309  1.00  0.00    -0.392 A  
HETATM   31  C   UNL     1     -10.384  17.651  66.178  1.00  0.00    -0.334 A  
HETATM   32  O   UNL     1     -10.313  19.805  67.136  1.00  0.00    -0.408 OA 
HETATM   33  H   UNL     1     -10.344  20.195  66.271  1.00  0.00     0.000 HD 
HETATM   34  C   UNL     1     -10.441  16.259  66.312  1.00  0.00    -0.314 A  
ENDBRANCH  26  27
ENDBRANCH  23  25
ENDBRANCH  16  17
ENDBRANCH   6  16
ENDBRANCH   3   4
TORSDOF 5
ENDMDL
MODEL       61
REMARK 921   NORMALIZED FREE ENERGY PREDICTED BY IDOCK:   -6.21 KCAL/MOL
REMARK 922        TOTAL FREE ENERGY PREDICTED BY IDOCK:   -9.10 KCAL/MOL
REMARK 923 INTER-LIGAND FREE ENERGY PREDICTED BY IDOCK:   -8.26 KCAL/MOL
REMARK 924 INTRA-LIGAND FREE ENERGY PREDICTED BY IDOCK:   -0.85 KCAL/MOL
REMARK 927      BINDING AFFINITY PREDICTED BY RF-SCORE:    0.00 PKD
ROOT
HETATM    1  O   UNL     1      -5.863  15.010  67.936  1.00  0.00    -0.137 OA 
HETATM    2  H   UNL     1      -5.705  14.115  68.212  1.00  0.00     0.000 HD 
HETATM    3  C   UNL     1      -7.204  15.198  67.496  1.00  0.00    -0.200 C  
ENDROOT
BRANCH   3   4
HETATM    4  C   UNL     1      -7.460  16.651  67.049  1.00  0.00    -0.204 C  
HETATM    5  O   UNL     1      -8.391  16.734  65.947  1.00  0.00    -0.463 OA 
HETATM    6  C   UNL     1      -9.768  16.471  66.284  1.00  0.00    -0.305 C  
HETATM    7  C   UNL     1     -10.235  17.470  67.381  1.00  0.00    -0.337 C  
HETATM    8  H   UNL     1      -8.996  16.235  70.115  1.00  0.00     0.000 HD 
HETATM    9  C   UNL     1      -9.316  17.443  68.608  1.00  0.00    -0.267 C  
HETATM   10  O   UNL     1     -10.283  18.826  66.888  1.00  0.00    -0.341 OA 
HETATM   11  H   UNL     1      -7.782  19.539  68.520  1.00  0.00     0.000 HD 
HETATM   12  C   UNL     1      -7.840  17.601  68.204  1.00  0.00    -0.257 C  
HETATM   13  H   UNL     1     -10.568  19.437  67.557  1.00  0.00     0.000 HD 
HETATM   14  O   UNL     1      -9.566  16.252  69.356  1.00  0.00    -0.240 OA 
HETATM   15  O   UNL     1      -7.548  18.955  67.808  1.00  0.00    -0.229 OA 
BRANCH   6  16
HETATM   16  O   UNL     1      -9.911  15.090  66.622  1.00  0.00    -0.243 OA 
BRANCH  16  17
HETATM   17  C   UNL     1     -10.365  14.199  65.695  1.00  0.00    -0.333 A  
HETATM   18  C   UNL     1     -11.748  13.515  63.859  1.00  0.00    -0.368 A  
HETATM   19  C   UNL     1     -11.398  12.186  64.068  1.00  0.00    -0.468 A  
HETATM   20  O   UNL     1     -12.642  13.791  62.863  1.00  0.00    -0.944 OA 
HETATM   21  C   UNL     1     -11.221  14.529  64.649  1.00  0.00    -0.359 A  
HETATM   22  H   UNL     1     -13.002  13.098  62.323  1.00  0.00     0.000 HD 
HETATM   23  C   UNL     1     -10.506  11.834  65.087  1.00  0.00    -0.330 A  
HETATM   24  C   UNL     1     -10.019  12.854  65.920  1.00  0.00    -0.273 A  
BRANCH  23  25
HETATM   25  C   UNL     1     -10.174  10.403  65.234  1.00  0.00    -0.332 C  
HETATM   26  C   UNL     1     -10.270   9.671  66.356  1.00  0.00    -0.288 C  
BRANCH  26  27
HETATM   27  C   UNL     1      -9.729   8.298  66.485  1.00  0.00    -0.323 A  
HETATM   28  C   UNL     1     -10.455   7.355  67.231  1.00  0.00    -0.385 A  
HETATM   29  C   UNL     1      -9.953   6.069  67.459  1.00  0.00    -0.159 A  
HETATM   30  C   UNL     1      -8.720   5.713  66.923  1.00  0.00    -0.113 A  
HETATM   31  C   UNL     1      -8.007   6.607  66.139  1.00  0.00    -0.110 A  
HETATM   32  O   UNL     1      -8.173   4.485  67.154  1.00  0.00    -0.101 OA 
HETATM   33  H   UNL     1      -7.331   4.241  66.789  1.00  0.00     0.000 HD 
HETATM   34  C   UNL     1      -8.511   7.894  65.916  1.00  0.00    -0.147 A  
ENDBRANCH  26  27
ENDBRANCH  23  25
ENDBRANCH  16  17
ENDBRANCH   6  16
ENDBRANCH   3   4
TORSDOF 5
ENDMDL
MODEL       62
REMARK 921   NORMALIZED FREE ENERGY PREDICTED BY IDOCK:   -6.20 KCAL/MOL
REMARK 922        TOTAL FREE ENERGY PREDICTED BY IDOCK:   -9.09 KCAL/MOL
REMARK 923 INTER-LIGAND FREE ENERGY PREDICTED BY IDOCK:   -8.21 KCAL/MOL
REMARK 924 INTRA-LIGAND FREE ENERGY PREDICTED BY IDOCK:   -0.88 KCAL/MOL
REMARK 927      BINDING AFFINITY PREDICTED BY RF-SCORE:    0.00 PKD
ROOT
HETATM    1  O   UNL     1      -9.037   9.666  66.014  1.00  0.00    -0.152 OA 
HETATM    2  H   UNL     1      -8.315   9.327  66.530  1.00  0.00     0.000 HD 
HETATM    3  C   UNL     1      -9.341  11.014  66.355  1.00  0.00    -0.183 C  
ENDROOT
BRANCH   3   4
HETATM    4  C   UNL     1     -10.514  11.565  65.517  1.00  0.00    -0.275 C  
HETATM    5  O   UNL     1     -11.772  11.507  66.225  1.00  0.00    -0.384 OA 
HETATM    6  C   UNL     1     -11.925  12.470  67.288  1.00  0.00    -0.216 C  
HETATM    7  C   UNL     1     -11.764  13.907  66.715  1.00  0.00    -0.399 C  
HETATM    8  H   UNL     1      -8.550  14.257  66.428  1.00  0.00     0.000 HD 
HETATM    9  C   UNL     1     -10.441  14.076  65.957  1.00  0.00    -0.304 C  
HETATM   10  O   UNL     1     -12.841  14.252  65.817  1.00  0.00    -0.460 OA 
HETATM   11  H   UNL     1     -10.951  14.009  63.409  1.00  0.00     0.000 HD 
HETATM   12  C   UNL     1     -10.248  12.960  64.915  1.00  0.00    -0.275 C  
HETATM   13  H   UNL     1     -12.743  15.129  65.467  1.00  0.00     0.000 HD 
HETATM   14  O   UNL     1      -9.369  14.153  66.897  1.00  0.00    -0.243 OA 
HETATM   15  O   UNL     1     -11.115  13.149  63.780  1.00  0.00    -0.371 OA 
BRANCH   6  16
HETATM   16  O   UNL     1     -11.031  12.138  68.352  1.00  0.00    -0.209 OA 
BRANCH  16  17
HETATM   17  C   UNL     1     -11.463  11.383  69.402  1.00  0.00    -0.310 A  
HETATM   18  C   UNL     1     -12.623  11.030  71.471  1.00  0.00    -0.356 A  
HETATM   19  C   UNL     1     -12.011   9.791  71.623  1.00  0.00    -0.454 A  
HETATM   20  O   UNL     1     -13.463  11.454  72.462  1.00  0.00    -0.505 OA 
HETATM   21  C   UNL     1     -12.376  11.821  70.356  1.00  0.00    -0.362 A  
HETATM   22  H   UNL     1     -13.632  10.913  73.224  1.00  0.00     0.000 HD 
HETATM   23  C   UNL     1     -11.122   9.311  70.656  1.00  0.00    -0.335 A  
HETATM   24  C   UNL     1     -10.830  10.135  69.558  1.00  0.00    -0.289 A  
BRANCH  23  25
HETATM   25  C   UNL     1     -10.526   7.979  70.884  1.00  0.00    -0.223 C  
HETATM   26  C   UNL     1     -10.866   6.835  70.269  1.00  0.00    -0.314 C  
BRANCH  26  27
HETATM   27  C   UNL     1     -10.372   5.503  70.688  1.00  0.00    -0.332 A  
HETATM   28  C   UNL     1      -9.911   4.615  69.703  1.00  0.00    -0.293 A  
HETATM   29  C   UNL     1      -9.513   3.314  70.030  1.00  0.00    -0.231 A  
HETATM   30  C   UNL     1      -9.560   2.898  71.356  1.00  0.00    -0.153 A  
HETATM   31  C   UNL     1      -9.962   3.772  72.356  1.00  0.00    -0.232 A  
HETATM   32  O   UNL     1      -9.221   1.626  71.715  1.00  0.00    -0.075 OA 
HETATM   33  H   UNL     1      -9.253   1.341  72.621  1.00  0.00     0.000 HD 
HETATM   34  C   UNL     1     -10.362   5.072  72.025  1.00  0.00    -0.276 A  
ENDBRANCH  26  27
ENDBRANCH  23  25
ENDBRANCH  16  17
ENDBRANCH   6  16
ENDBRANCH   3   4
TORSDOF 5
ENDMDL
MODEL       63
REMARK 921   NORMALIZED FREE ENERGY PREDICTED BY IDOCK:   -6.17 KCAL/MOL
REMARK 922        TOTAL FREE ENERGY PREDICTED BY IDOCK:   -9.06 KCAL/MOL
REMARK 923 INTER-LIGAND FREE ENERGY PREDICTED BY IDOCK:   -8.01 KCAL/MOL
REMARK 924 INTRA-LIGAND FREE ENERGY PREDICTED BY IDOCK:   -1.05 KCAL/MOL
REMARK 927      BINDING AFFINITY PREDICTED BY RF-SCORE:    0.00 PKD
ROOT
HETATM    1  O   UNL     1      -9.969  12.815  64.162  1.00  0.00    -0.599 OA 
HETATM    2  H   UNL     1      -9.709  11.917  63.993  1.00  0.00     0.000 HD 
HETATM    3  C   UNL     1     -11.185  12.882  64.899  1.00  0.00    -0.300 C  
ENDROOT
BRANCH   3   4
HETATM    4  C   UNL     1     -11.607  14.340  65.173  1.00  0.00    -0.355 C  
HETATM    5  O   UNL     1     -12.445  14.460  66.344  1.00  0.00    -0.389 OA 
HETATM    6  C   UNL     1     -11.766  14.296  67.606  1.00  0.00    -0.389 C  
HETATM    7  C   UNL     1     -10.624  15.346  67.724  1.00  0.00    -0.274 C  
HETATM    8  H   UNL     1      -8.241  14.089  65.914  1.00  0.00     0.000 HD 
HETATM    9  C   UNL     1      -9.664  15.284  66.530  1.00  0.00    -0.268 C  
HETATM   10  O   UNL     1     -11.139  16.692  67.814  1.00  0.00    -0.279 OA 
HETATM   11  H   UNL     1     -10.208  17.273  64.947  1.00  0.00     0.000 HD 
HETATM   12  C   UNL     1     -10.428  15.336  65.195  1.00  0.00    -0.411 C  
HETATM   13  H   UNL     1     -10.442  17.333  67.886  1.00  0.00     0.000 HD 
HETATM   14  O   UNL     1      -8.835  14.127  66.654  1.00  0.00    -0.209 OA 
HETATM   15  O   UNL     1     -10.933  16.659  64.934  1.00  0.00    -0.642 OA 
BRANCH   6  16
HETATM   16  O   UNL     1     -11.353  12.934  67.741  1.00  0.00    -0.264 OA 
BRANCH  16  17
HETATM   17  C   UNL     1     -11.708  12.214  68.843  1.00  0.00    -0.327 A  
HETATM   18  C   UNL     1     -12.660  11.945  71.027  1.00  0.00    -0.283 A  
HETATM   19  C   UNL     1     -12.096  10.679  71.137  1.00  0.00    -0.445 A  
HETATM   20  O   UNL     1     -13.370  12.422  72.093  1.00  0.00    -0.528 OA 
HETATM   21  C   UNL     1     -12.493  12.709  69.879  1.00  0.00     0.002 A  
HETATM   22  H   UNL     1     -13.484  11.899  72.877  1.00  0.00     0.000 HD 
HETATM   23  C   UNL     1     -11.337  10.144  70.090  1.00  0.00    -0.372 A  
HETATM   24  C   UNL     1     -11.122  10.939  68.954  1.00  0.00    -0.307 A  
BRANCH  23  25
HETATM   25  C   UNL     1     -10.784   8.787  70.278  1.00  0.00    -0.249 C  
HETATM   26  C   UNL     1      -9.740   8.252  69.625  1.00  0.00    -0.173 C  
BRANCH  26  27
HETATM   27  C   UNL     1      -9.365   6.822  69.715  1.00  0.00    -0.145 A  
HETATM   28  C   UNL     1      -8.203   6.472  70.422  1.00  0.00    -0.125 A  
HETATM   29  C   UNL     1      -7.754   5.148  70.468  1.00  0.00    -0.071 A  
HETATM   30  C   UNL     1      -8.480   4.157  69.816  1.00  0.00    -0.060 A  
HETATM   31  C   UNL     1      -9.660   4.466  69.154  1.00  0.00    -0.252 A  
HETATM   32  O   UNL     1      -8.058   2.860  69.799  1.00  0.00    -0.042 OA 
HETATM   33  H   UNL     1      -8.553   2.183  69.354  1.00  0.00     0.000 HD 
HETATM   34  C   UNL     1     -10.105   5.793  69.108  1.00  0.00    -0.257 A  
ENDBRANCH  26  27
ENDBRANCH  23  25
ENDBRANCH  16  17
ENDBRANCH   6  16
ENDBRANCH   3   4
TORSDOF 5
ENDMDL
MODEL       64
REMARK 921   NORMALIZED FREE ENERGY PREDICTED BY IDOCK:   -6.15 KCAL/MOL
REMARK 922        TOTAL FREE ENERGY PREDICTED BY IDOCK:   -9.02 KCAL/MOL
REMARK 923 INTER-LIGAND FREE ENERGY PREDICTED BY IDOCK:   -8.00 KCAL/MOL
REMARK 924 INTRA-LIGAND FREE ENERGY PREDICTED BY IDOCK:   -1.02 KCAL/MOL
REMARK 927      BINDING AFFINITY PREDICTED BY RF-SCORE:    0.00 PKD
ROOT
HETATM    1  O   UNL     1     -10.288   4.009  66.065  1.00  0.00    -0.435 OA 
HETATM    2  H   UNL     1     -11.208   4.017  65.828  1.00  0.00     0.000 HD 
HETATM    3  C   UNL     1      -9.767   5.326  66.203  1.00  0.00    -0.161 C  
ENDROOT
BRANCH   3   4
HETATM    4  C   UNL     1      -8.273   5.311  66.588  1.00  0.00    -0.108 C  
HETATM    5  O   UNL     1      -7.841   6.562  67.168  1.00  0.00    -0.105 OA 
HETATM    6  C   UNL     1      -8.306   6.811  68.510  1.00  0.00    -0.120 C  
HETATM    7  C   UNL     1      -7.833   5.661  69.446  1.00  0.00    -0.088 C  
HETATM    8  H   UNL     1      -9.929   3.262  68.822  1.00  0.00     0.000 HD 
HETATM    9  C   UNL     1      -8.263   4.285  68.922  1.00  0.00    -0.075 C  
HETATM   10  O   UNL     1      -6.399   5.651  69.603  1.00  0.00    -0.033 OA 
HETATM   11  H   UNL     1      -6.192   3.144  67.844  1.00  0.00     0.000 HD 
HETATM   12  C   UNL     1      -7.863   4.098  67.448  1.00  0.00    -0.091 C  
HETATM   13  H   UNL     1      -6.110   4.949  70.174  1.00  0.00     0.000 HD 
HETATM   14  O   UNL     1      -9.663   4.114  69.147  1.00  0.00    -0.183 OA 
HETATM   15  O   UNL     1      -6.444   3.891  67.314  1.00  0.00    -0.036 OA 
BRANCH   6  16
HETATM   16  O   UNL     1      -9.718   7.029  68.483  1.00  0.00    -0.139 OA 
BRANCH  16  17
HETATM   17  C   UNL     1     -10.260   8.099  69.131  1.00  0.00    -0.214 A  
HETATM   18  C   UNL     1     -11.464   9.156  70.916  1.00  0.00    -0.296 A  
HETATM   19  C   UNL     1     -11.568  10.328  70.175  1.00  0.00    -0.376 A  
HETATM   20  O   UNL     1     -12.058   9.123  72.145  1.00  0.00    -0.362 OA 
HETATM   21  C   UNL     1     -10.794   8.047  70.415  1.00  0.00    -0.247 A  
HETATM   22  H   UNL     1     -12.517   9.880  72.488  1.00  0.00     0.000 HD 
HETATM   23  C   UNL     1     -11.003  10.418  68.898  1.00  0.00    -0.289 A  
HETATM   24  C   UNL     1     -10.375   9.279  68.371  1.00  0.00    -0.244 A  
BRANCH  23  25
HETATM   25  C   UNL     1     -11.144  11.702  68.183  1.00  0.00    -0.298 C  
HETATM   26  C   UNL     1     -11.742  11.894  66.995  1.00  0.00    -0.304 C  
BRANCH  26  27
HETATM   27  C   UNL     1     -11.670  13.166  66.241  1.00  0.00    -0.424 A  
HETATM   28  C   UNL     1     -12.524  13.346  65.140  1.00  0.00    -0.509 A  
HETATM   29  C   UNL     1     -12.441  14.490  64.339  1.00  0.00    -0.335 A  
HETATM   30  C   UNL     1     -11.509  15.475  64.647  1.00  0.00    -0.324 A  
HETATM   31  C   UNL     1     -10.690  15.347  65.759  1.00  0.00    -0.360 A  
HETATM   32  O   UNL     1     -11.366  16.587  63.870  1.00  0.00    -1.557 OA 
HETATM   33  H   UNL     1     -10.729  17.260  64.080  1.00  0.00     0.000 HD 
HETATM   34  C   UNL     1     -10.773  14.200  66.557  1.00  0.00    -0.289 A  
ENDBRANCH  26  27
ENDBRANCH  23  25
ENDBRANCH  16  17
ENDBRANCH   6  16
ENDBRANCH   3   4
TORSDOF 5
ENDMDL
MODEL       65
REMARK 921   NORMALIZED FREE ENERGY PREDICTED BY IDOCK:   -6.12 KCAL/MOL
REMARK 922        TOTAL FREE ENERGY PREDICTED BY IDOCK:   -9.00 KCAL/MOL
REMARK 923 INTER-LIGAND FREE ENERGY PREDICTED BY IDOCK:   -8.03 KCAL/MOL
REMARK 924 INTRA-LIGAND FREE ENERGY PREDICTED BY IDOCK:   -0.96 KCAL/MOL
REMARK 927      BINDING AFFINITY PREDICTED BY RF-SCORE:    0.00 PKD
ROOT
HETATM    1  O   UNL     1     -12.399  14.557  68.093  1.00  0.00    -0.596 OA 
HETATM    2  H   UNL     1     -12.793  13.909  67.520  1.00  0.00     0.000 HD 
HETATM    3  C   UNL     1     -11.402  15.318  67.420  1.00  0.00    -0.284 C  
ENDROOT
BRANCH   3   4
HETATM    4  C   UNL     1     -10.763  16.369  68.350  1.00  0.00    -0.327 C  
HETATM    5  O   UNL     1      -9.682  15.823  69.139  1.00  0.00    -0.216 OA 
HETATM    6  C   UNL     1      -8.466  15.553  68.414  1.00  0.00    -0.163 C  
HETATM    7  C   UNL     1      -7.956  16.863  67.746  1.00  0.00    -0.180 C  
HETATM    8  H   UNL     1      -9.837  17.160  65.117  1.00  0.00     0.000 HD 
HETATM    9  C   UNL     1      -9.032  17.512  66.866  1.00  0.00    -0.251 C  
HETATM   10  O   UNL     1      -7.533  17.836  68.724  1.00  0.00    -0.265 OA 
HETATM   11  H   UNL     1     -10.025  19.536  68.158  1.00  0.00     0.000 HD 
HETATM   12  C   UNL     1     -10.357  17.673  67.631  1.00  0.00    -0.368 C  
HETATM   13  H   UNL     1      -7.222  18.636  68.317  1.00  0.00     0.000 HD 
HETATM   14  O   UNL     1      -9.170  16.757  65.661  1.00  0.00    -0.503 OA 
HETATM   15  O   UNL     1     -10.275  18.733  68.602  1.00  0.00    -0.381 OA 
BRANCH   6  16
HETATM   16  O   UNL     1      -8.688  14.463  67.517  1.00  0.00    -0.175 OA 
BRANCH  16  17
HETATM   17  C   UNL     1      -8.307  13.201  67.863  1.00  0.00    -0.170 A  
HETATM   18  C   UNL     1      -6.814  11.323  67.865  1.00  0.00    -0.068 A  
HETATM   19  C   UNL     1      -7.808  10.511  68.398  1.00  0.00    -0.110 A  
HETATM   20  O   UNL     1      -5.608  10.751  67.575  1.00  0.00    -0.043 OA 
HETATM   21  C   UNL     1      -7.044  12.671  67.616  1.00  0.00    -0.139 A  
HETATM   22  H   UNL     1      -5.451   9.830  67.745  1.00  0.00     0.000 HD 
HETATM   23  C   UNL     1      -9.073  11.032  68.694  1.00  0.00    -0.174 A  
HETATM   24  C   UNL     1      -9.321  12.379  68.390  1.00  0.00    -0.158 A  
BRANCH  23  25
HETATM   25  C   UNL     1     -10.068  10.107  69.273  1.00  0.00    -0.237 C  
HETATM   26  C   UNL     1     -11.135  10.444  70.017  1.00  0.00    -0.379 C  
BRANCH  26  27
HETATM   27  C   UNL     1     -11.975   9.458  70.735  1.00  0.00    -0.298 A  
HETATM   28  C   UNL     1     -11.560   8.117  70.769  1.00  0.00    -0.249 A  
HETATM   29  C   UNL     1     -12.355   7.128  71.358  1.00  0.00    -0.415 A  
HETATM   30  C   UNL     1     -13.571   7.481  71.933  1.00  0.00    -0.239 A  
HETATM   31  C   UNL     1     -13.981   8.806  71.959  1.00  0.00    -0.511 A  
HETATM   32  O   UNL     1     -14.398   6.544  72.481  1.00  0.00    -0.653 OA 
HETATM   33  H   UNL     1     -15.228   6.785  72.874  1.00  0.00     0.000 HD 
HETATM   34  C   UNL     1     -13.184   9.793  71.368  1.00  0.00    -0.482 A  
ENDBRANCH  26  27
ENDBRANCH  23  25
ENDBRANCH  16  17
ENDBRANCH   6  16
ENDBRANCH   3   4
TORSDOF 5
ENDMDL
MODEL       66
REMARK 921   NORMALIZED FREE ENERGY PREDICTED BY IDOCK:   -6.10 KCAL/MOL
REMARK 922        TOTAL FREE ENERGY PREDICTED BY IDOCK:   -8.96 KCAL/MOL
REMARK 923 INTER-LIGAND FREE ENERGY PREDICTED BY IDOCK:   -7.84 KCAL/MOL
REMARK 924 INTRA-LIGAND FREE ENERGY PREDICTED BY IDOCK:   -1.12 KCAL/MOL
REMARK 927      BINDING AFFINITY PREDICTED BY RF-SCORE:    0.00 PKD
ROOT
HETATM    1  O   UNL     1      -9.333  14.933  68.728  1.00  0.00    -0.193 OA 
HETATM    2  H   UNL     1      -9.604  15.583  69.366  1.00  0.00     0.000 HD 
HETATM    3  C   UNL     1     -10.004  15.102  67.485  1.00  0.00    -0.225 C  
ENDROOT
BRANCH   3   4
HETATM    4  C   UNL     1      -9.563  14.047  66.450  1.00  0.00    -0.283 C  
HETATM    5  O   UNL     1      -9.352  12.746  67.043  1.00  0.00    -0.214 OA 
HETATM    6  C   UNL     1     -10.552  12.042  67.423  1.00  0.00    -0.223 C  
HETATM    7  C   UNL     1     -11.465  11.858  66.177  1.00  0.00    -0.288 C  
HETATM    8  H   UNL     1     -12.889  14.755  65.839  1.00  0.00     0.000 HD 
HETATM    9  C   UNL     1     -11.764  13.193  65.484  1.00  0.00    -0.357 C  
HETATM   10  O   UNL     1     -10.872  10.972  65.203  1.00  0.00    -0.221 OA 
HETATM   11  H   UNL     1     -10.286  13.350  63.351  1.00  0.00     0.000 HD 
HETATM   12  C   UNL     1     -10.471  13.979  65.204  1.00  0.00    -0.397 C  
HETATM   13  H   UNL     1     -11.429  10.859  64.441  1.00  0.00     0.000 HD 
HETATM   14  O   UNL     1     -12.705  13.928  66.268  1.00  0.00    -0.399 OA 
HETATM   15  O   UNL     1      -9.727  13.392  64.118  1.00  0.00    -0.005 OA 
BRANCH   6  16
HETATM   16  O   UNL     1     -11.161  12.718  68.525  1.00  0.00    -0.243 OA 
BRANCH  16  17
HETATM   17  C   UNL     1     -11.689  12.005  69.561  1.00  0.00    -0.342 A  
HETATM   18  C   UNL     1     -12.943  11.756  71.590  1.00  0.00    -0.362 A  
HETATM   19  C   UNL     1     -12.439  10.473  71.766  1.00  0.00    -0.362 A  
HETATM   20  O   UNL     1     -13.778  12.251  72.551  1.00  0.00    -0.558 OA 
HETATM   21  C   UNL     1     -12.594  12.520  70.483  1.00  0.00    -0.177 A  
HETATM   22  H   UNL     1     -14.016  11.730  73.308  1.00  0.00     0.000 HD 
HETATM   23  C   UNL     1     -11.559   9.918  70.830  1.00  0.00    -0.430 A  
HETATM   24  C   UNL     1     -11.164  10.711  69.741  1.00  0.00    -0.363 A  
BRANCH  23  25
HETATM   25  C   UNL     1     -11.081   8.543  71.081  1.00  0.00    -0.312 C  
HETATM   26  C   UNL     1     -10.839   7.599  70.155  1.00  0.00    -0.255 C  
BRANCH  26  27
HETATM   27  C   UNL     1     -10.558   6.184  70.486  1.00  0.00    -0.312 A  
HETATM   28  C   UNL     1     -10.721   5.757  71.814  1.00  0.00    -0.305 A  
HETATM   29  C   UNL     1     -10.389   4.454  72.202  1.00  0.00    -0.213 A  
HETATM   30  C   UNL     1      -9.904   3.561  71.254  1.00  0.00    -0.135 A  
HETATM   31  C   UNL     1      -9.783   3.941  69.925  1.00  0.00    -0.235 A  
HETATM   32  O   UNL     1      -9.529   2.295  71.594  1.00  0.00    -0.106 OA 
HETATM   33  H   UNL     1      -9.197   1.684  70.946  1.00  0.00     0.000 HD 
HETATM   34  C   UNL     1     -10.114   5.245  69.540  1.00  0.00    -0.322 A  
ENDBRANCH  26  27
ENDBRANCH  23  25
ENDBRANCH  16  17
ENDBRANCH   6  16
ENDBRANCH   3   4
TORSDOF 5
ENDMDL
MODEL       67
REMARK 921   NORMALIZED FREE ENERGY PREDICTED BY IDOCK:   -6.05 KCAL/MOL
REMARK 922        TOTAL FREE ENERGY PREDICTED BY IDOCK:   -8.91 KCAL/MOL
REMARK 923 INTER-LIGAND FREE ENERGY PREDICTED BY IDOCK:   -8.02 KCAL/MOL
REMARK 924 INTRA-LIGAND FREE ENERGY PREDICTED BY IDOCK:   -0.89 KCAL/MOL
REMARK 927      BINDING AFFINITY PREDICTED BY RF-SCORE:    0.00 PKD
ROOT
HETATM    1  O   UNL     1      -6.756  17.452  69.268  1.00  0.00    -0.241 OA 
HETATM    2  H   UNL     1      -6.588  16.674  69.786  1.00  0.00     0.000 HD 
HETATM    3  C   UNL     1      -7.484  17.150  68.083  1.00  0.00    -0.205 C  
ENDROOT
BRANCH   3   4
HETATM    4  C   UNL     1      -7.757  18.415  67.243  1.00  0.00    -0.223 C  
HETATM    5  O   UNL     1      -8.429  18.116  65.999  1.00  0.00    -0.496 OA 
HETATM    6  C   UNL     1      -9.821  17.755  66.123  1.00  0.00    -0.244 C  
HETATM    7  C   UNL     1     -10.597  18.908  66.822  1.00  0.00    -0.405 C  
HETATM    8  H   UNL     1      -9.884  18.512  69.964  1.00  0.00     0.000 HD 
HETATM    9  C   UNL     1      -9.967  19.287  68.169  1.00  0.00    -0.391 C  
HETATM   10  O   UNL     1     -10.649  20.096  66.003  1.00  0.00    -0.395 OA 
HETATM   11  H   UNL     1      -8.631  21.494  67.848  1.00  0.00     0.000 HD 
HETATM   12  C   UNL     1      -8.457  19.544  68.027  1.00  0.00    -0.321 C  
HETATM   13  H   UNL     1     -11.122  20.800  66.430  1.00  0.00     0.000 HD 
HETATM   14  O   UNL     1     -10.274  18.277  69.131  1.00  0.00    -0.331 OA 
HETATM   15  O   UNL     1      -8.200  20.798  67.365  1.00  0.00    -0.306 OA 
BRANCH   6  16
HETATM   16  O   UNL     1      -9.918  16.483  66.765  1.00  0.00    -0.256 OA 
BRANCH  16  17
HETATM   17  C   UNL     1     -10.222  15.369  66.040  1.00  0.00    -0.324 A  
HETATM   18  C   UNL     1     -11.431  14.151  64.364  1.00  0.00    -0.332 A  
HETATM   19  C   UNL     1     -10.938  12.948  64.858  1.00  0.00    -0.327 A  
HETATM   20  O   UNL     1     -12.304  14.101  63.315  1.00  0.00    -1.140 OA 
HETATM   21  C   UNL     1     -11.062  15.365  64.930  1.00  0.00    -0.435 A  
HETATM   22  H   UNL     1     -12.556  13.271  62.928  1.00  0.00     0.000 HD 
HETATM   23  C   UNL     1     -10.060  12.931  65.947  1.00  0.00    -0.295 A  
HETATM   24  C   UNL     1      -9.732  14.153  66.553  1.00  0.00    -0.307 A  
BRANCH  23  25
HETATM   25  C   UNL     1      -9.570  11.614  66.402  1.00  0.00    -0.236 C  
HETATM   26  C   UNL     1      -8.303  11.170  66.348  1.00  0.00    -0.167 C  
BRANCH  26  27
HETATM   27  C   UNL     1      -7.915   9.769  66.631  1.00  0.00    -0.112 A  
HETATM   28  C   UNL     1      -6.551   9.435  66.636  1.00  0.00    -0.068 A  
HETATM   29  C   UNL     1      -6.130   8.112  66.813  1.00  0.00    -0.053 A  
HETATM   30  C   UNL     1      -7.077   7.113  67.002  1.00  0.00    -0.090 A  
HETATM   31  C   UNL     1      -8.429   7.422  67.054  1.00  0.00    -0.118 A  
HETATM   32  O   UNL     1      -6.715   5.805  67.136  1.00  0.00    -0.057 OA 
HETATM   33  H   UNL     1      -7.362   5.121  67.266  1.00  0.00     0.000 HD 
HETATM   34  C   UNL     1      -8.847   8.746  66.874  1.00  0.00    -0.142 A  
ENDBRANCH  26  27
ENDBRANCH  23  25
ENDBRANCH  16  17
ENDBRANCH   6  16
ENDBRANCH   3   4
TORSDOF 5
ENDMDL
MODEL       68
REMARK 921   NORMALIZED FREE ENERGY PREDICTED BY IDOCK:   -6.04 KCAL/MOL
REMARK 922        TOTAL FREE ENERGY PREDICTED BY IDOCK:   -8.89 KCAL/MOL
REMARK 923 INTER-LIGAND FREE ENERGY PREDICTED BY IDOCK:   -8.07 KCAL/MOL
REMARK 924 INTRA-LIGAND FREE ENERGY PREDICTED BY IDOCK:   -0.81 KCAL/MOL
REMARK 927      BINDING AFFINITY PREDICTED BY RF-SCORE:    0.00 PKD
ROOT
HETATM    1  O   UNL     1      -9.931  14.194  65.036  1.00  0.00    -0.562 OA 
HETATM    2  H   UNL     1      -9.543  13.414  64.659  1.00  0.00     0.000 HD 
HETATM    3  C   UNL     1     -10.239  14.016  66.414  1.00  0.00    -0.291 C  
ENDROOT
BRANCH   3   4
HETATM    4  C   UNL     1     -10.869  15.284  67.026  1.00  0.00    -0.321 C  
HETATM    5  O   UNL     1     -11.968  14.980  67.915  1.00  0.00    -0.291 OA 
HETATM    6  C   UNL     1     -11.592  14.411  69.186  1.00  0.00    -0.307 C  
HETATM    7  C   UNL     1     -10.631  15.383  69.928  1.00  0.00    -0.303 C  
HETATM    8  H   UNL     1      -7.767  14.871  68.489  1.00  0.00     0.000 HD 
HETATM    9  C   UNL     1      -9.415  15.753  69.069  1.00  0.00    -0.247 C  
HETATM   10  O   UNL     1     -11.295  16.606  70.312  1.00  0.00    -0.465 OA 
HETATM   11  H   UNL     1      -9.782  18.149  68.131  1.00  0.00     0.000 HD 
HETATM   12  C   UNL     1      -9.845  16.239  67.673  1.00  0.00    -0.238 C  
HETATM   13  H   UNL     1     -10.709  17.201  70.765  1.00  0.00     0.000 HD 
HETATM   14  O   UNL     1      -8.519  14.642  69.021  1.00  0.00    -0.157 OA 
HETATM   15  O   UNL     1     -10.414  17.561  67.733  1.00  0.00    -0.354 OA 
BRANCH   6  16
HETATM   16  O   UNL     1     -11.077  13.095  68.974  1.00  0.00    -0.249 OA 
BRANCH  16  17
HETATM   17  C   UNL     1     -11.572  12.042  69.686  1.00  0.00    -0.301 A  
HETATM   18  C   UNL     1     -12.767  11.043  71.509  1.00  0.00    -0.415 A  
HETATM   19  C   UNL     1     -12.251   9.793  71.186  1.00  0.00    -0.453 A  
HETATM   20  O   UNL     1     -13.579  11.135  72.604  1.00  0.00    -0.352 OA 
HETATM   21  C   UNL     1     -12.454  12.166  70.754  1.00  0.00    -0.362 A  
HETATM   22  H   UNL     1     -13.793  10.367  73.120  1.00  0.00     0.000 HD 
HETATM   23  C   UNL     1     -11.394   9.636  70.091  1.00  0.00    -0.275 A  
HETATM   24  C   UNL     1     -11.034  10.781  69.363  1.00  0.00    -0.305 A  
BRANCH  23  25
HETATM   25  C   UNL     1     -10.901   8.274  69.806  1.00  0.00    -0.186 C  
HETATM   26  C   UNL     1     -10.167   7.895  68.746  1.00  0.00    -0.218 C  
BRANCH  26  27
HETATM   27  C   UNL     1      -9.879   6.481  68.415  1.00  0.00    -0.137 A  
HETATM   28  C   UNL     1      -9.641   6.137  67.074  1.00  0.00    -0.153 A  
HETATM   29  C   UNL     1      -9.448   4.805  66.691  1.00  0.00    -0.161 A  
HETATM   30  C   UNL     1      -9.477   3.805  67.656  1.00  0.00    -0.185 A  
HETATM   31  C   UNL     1      -9.658   4.122  68.995  1.00  0.00    -0.232 A  
HETATM   32  O   UNL     1      -9.335   2.490  67.323  1.00  0.00    -0.301 OA 
HETATM   33  H   UNL     1      -9.355   1.806  67.983  1.00  0.00     0.000 HD 
HETATM   34  C   UNL     1      -9.853   5.455  69.375  1.00  0.00    -0.252 A  
ENDBRANCH  26  27
ENDBRANCH  23  25
ENDBRANCH  16  17
ENDBRANCH   6  16
ENDBRANCH   3   4
TORSDOF 5
ENDMDL
MODEL       69
REMARK 921   NORMALIZED FREE ENERGY PREDICTED BY IDOCK:   -6.00 KCAL/MOL
REMARK 922        TOTAL FREE ENERGY PREDICTED BY IDOCK:   -8.83 KCAL/MOL
REMARK 923 INTER-LIGAND FREE ENERGY PREDICTED BY IDOCK:   -7.77 KCAL/MOL
REMARK 924 INTRA-LIGAND FREE ENERGY PREDICTED BY IDOCK:   -1.06 KCAL/MOL
REMARK 927      BINDING AFFINITY PREDICTED BY RF-SCORE:    0.00 PKD
ROOT
HETATM    1  O   UNL     1     -11.315   9.725  69.112  1.00  0.00    -0.430 OA 
HETATM    2  H   UNL     1     -11.275  10.439  69.738  1.00  0.00     0.000 HD 
HETATM    3  C   UNL     1     -10.197   8.853  69.237  1.00  0.00    -0.209 C  
ENDROOT
BRANCH   3   4
HETATM    4  C   UNL     1     -10.261   7.694  68.221  1.00  0.00    -0.195 C  
HETATM    5  O   UNL     1     -10.723   8.124  66.921  1.00  0.00    -0.309 OA 
HETATM    6  C   UNL     1      -9.776   8.897  66.156  1.00  0.00    -0.268 C  
HETATM    7  C   UNL     1      -8.474   8.071  65.952  1.00  0.00    -0.143 C  
HETATM    8  H   UNL     1      -6.922   8.379  68.786  1.00  0.00     0.000 HD 
HETATM    9  C   UNL     1      -7.892   7.582  67.284  1.00  0.00    -0.118 C  
HETATM   10  O   UNL     1      -8.695   6.918  65.111  1.00  0.00    -0.348 OA 
HETATM   11  H   UNL     1      -8.466   5.061  67.545  1.00  0.00     0.000 HD 
HETATM   12  C   UNL     1      -8.959   6.870  68.133  1.00  0.00    -0.123 C  
HETATM   13  H   UNL     1      -7.900   6.413  64.986  1.00  0.00     0.000 HD 
HETATM   14  O   UNL     1      -7.282   8.682  67.961  1.00  0.00    -0.084 OA 
HETATM   15  O   UNL     1      -9.268   5.568  67.600  1.00  0.00    -0.111 OA 
BRANCH   6  16
HETATM   16  O   UNL     1      -9.595  10.168  66.784  1.00  0.00    -0.166 OA 
BRANCH  16  17
HETATM   17  C   UNL     1      -9.956  11.312  66.136  1.00  0.00    -0.228 A  
HETATM   18  C   UNL     1     -10.768  12.560  64.256  1.00  0.00    -0.369 A  
HETATM   19  C   UNL     1     -10.363  13.750  64.849  1.00  0.00    -0.420 A  
HETATM   20  O   UNL     1     -11.329  12.625  63.012  1.00  0.00    -0.753 OA 
HETATM   21  C   UNL     1     -10.591  11.341  64.898  1.00  0.00    -0.364 A  
HETATM   22  H   UNL     1     -11.449  13.458  62.572  1.00  0.00     0.000 HD 
HETATM   23  C   UNL     1      -9.760  13.749  66.111  1.00  0.00    -0.280 A  
HETATM   24  C   UNL     1      -9.531  12.513  66.734  1.00  0.00    -0.231 A  
BRANCH  23  25
HETATM   25  C   UNL     1      -9.373  15.057  66.679  1.00  0.00    -0.290 C  
HETATM   26  C   UNL     1      -8.818  16.084  66.014  1.00  0.00    -0.314 C  
BRANCH  26  27
HETATM   27  C   UNL     1      -8.269  17.287  66.681  1.00  0.00    -0.296 A  
HETATM   28  C   UNL     1      -7.215  17.979  66.061  1.00  0.00    -0.316 A  
HETATM   29  C   UNL     1      -6.601  19.071  66.684  1.00  0.00    -0.205 A  
HETATM   30  C   UNL     1      -7.050  19.489  67.931  1.00  0.00    -0.260 A  
HETATM   31  C   UNL     1      -8.123  18.856  68.542  1.00  0.00    -0.383 A  
HETATM   32  O   UNL     1      -6.454  20.521  68.594  1.00  0.00    -0.308 OA 
HETATM   33  H   UNL     1      -6.761  20.807  69.446  1.00  0.00     0.000 HD 
HETATM   34  C   UNL     1      -8.735  17.763  67.918  1.00  0.00    -0.251 A  
ENDBRANCH  26  27
ENDBRANCH  23  25
ENDBRANCH  16  17
ENDBRANCH   6  16
ENDBRANCH   3   4
TORSDOF 5
ENDMDL
MODEL       70
REMARK 921   NORMALIZED FREE ENERGY PREDICTED BY IDOCK:   -5.97 KCAL/MOL
REMARK 922        TOTAL FREE ENERGY PREDICTED BY IDOCK:   -8.79 KCAL/MOL
REMARK 923 INTER-LIGAND FREE ENERGY PREDICTED BY IDOCK:   -7.92 KCAL/MOL
REMARK 924 INTRA-LIGAND FREE ENERGY PREDICTED BY IDOCK:   -0.87 KCAL/MOL
REMARK 927      BINDING AFFINITY PREDICTED BY RF-SCORE:    0.00 PKD
ROOT
HETATM    1  O   UNL     1      -7.611  10.911  67.257  1.00  0.00    -0.097 OA 
HETATM    2  H   UNL     1      -6.955  11.047  67.929  1.00  0.00     0.000 HD 
HETATM    3  C   UNL     1      -8.845  10.464  67.808  1.00  0.00    -0.128 C  
ENDROOT
BRANCH   3   4
HETATM    4  C   UNL     1      -9.911  10.242  66.715  1.00  0.00    -0.209 C  
HETATM    5  O   UNL     1     -11.256  10.424  67.212  1.00  0.00    -0.284 OA 
HETATM    6  C   UNL     1     -11.637  11.791  67.470  1.00  0.00    -0.291 C  
HETATM    7  C   UNL     1     -11.490  12.627  66.167  1.00  0.00    -0.365 C  
HETATM    8  H   UNL     1      -8.302  13.212  65.990  1.00  0.00     0.000 HD 
HETATM    9  C   UNL     1     -10.082  12.514  65.569  1.00  0.00    -0.265 C  
HETATM   10  O   UNL     1     -12.438  12.219  65.157  1.00  0.00    -0.563 OA 
HETATM   11  H   UNL     1     -10.190  10.897  63.537  1.00  0.00     0.000 HD 
HETATM   12  C   UNL     1      -9.655  11.043  65.422  1.00  0.00    -0.225 C  
HETATM   13  H   UNL     1     -12.349  12.730  64.361  1.00  0.00     0.000 HD 
HETATM   14  O   UNL     1      -9.174  13.283  66.360  1.00  0.00    -0.218 OA 
HETATM   15  O   UNL     1     -10.348  10.404  64.333  1.00  0.00    -0.304 OA 
BRANCH   6  16
HETATM   16  O   UNL     1     -10.895  12.279  68.590  1.00  0.00    -0.221 OA 
BRANCH  16  17
HETATM   17  C   UNL     1     -11.227  13.468  69.168  1.00  0.00    -0.260 A  
HETATM   18  C   UNL     1     -12.699  14.968  70.323  1.00  0.00    -0.275 A  
HETATM   19  C   UNL     1     -11.863  16.040  70.034  1.00  0.00    -0.241 A  
HETATM   20  O   UNL     1     -13.855  15.224  71.005  1.00  0.00    -0.660 OA 
HETATM   21  C   UNL     1     -12.380  13.678  69.917  1.00  0.00    -0.310 A  
HETATM   22  H   UNL     1     -14.073  16.106  71.283  1.00  0.00     0.000 HD 
HETATM   23  C   UNL     1     -10.677  15.847  69.317  1.00  0.00    -0.259 A  
HETATM   24  C   UNL     1     -10.384  14.553  68.859  1.00  0.00    -0.237 A  
BRANCH  23  25
HETATM   25  C   UNL     1      -9.837  17.034  69.064  1.00  0.00    -0.240 C  
HETATM   26  C   UNL     1      -9.415  17.474  67.867  1.00  0.00    -0.277 C  
BRANCH  26  27
HETATM   27  C   UNL     1      -8.410  18.550  67.699  1.00  0.00    -0.268 A  
HETATM   28  C   UNL     1      -8.000  18.892  66.400  1.00  0.00    -0.300 A  
HETATM   29  C   UNL     1      -6.993  19.839  66.185  1.00  0.00    -0.263 A  
HETATM   30  C   UNL     1      -6.399  20.465  67.275  1.00  0.00    -0.215 A  
HETATM   31  C   UNL     1      -6.822  20.184  68.566  1.00  0.00    -0.309 A  
HETATM   32  O   UNL     1      -5.385  21.363  67.114  1.00  0.00    -0.250 OA 
HETATM   33  H   UNL     1      -4.979  21.792  67.859  1.00  0.00     0.000 HD 
HETATM   34  C   UNL     1      -7.828  19.234  68.778  1.00  0.00    -0.388 A  
ENDBRANCH  26  27
ENDBRANCH  23  25
ENDBRANCH  16  17
ENDBRANCH   6  16
ENDBRANCH   3   4
TORSDOF 5
ENDMDL
MODEL       71
REMARK 921   NORMALIZED FREE ENERGY PREDICTED BY IDOCK:   -5.94 KCAL/MOL
REMARK 922        TOTAL FREE ENERGY PREDICTED BY IDOCK:   -8.75 KCAL/MOL
REMARK 923 INTER-LIGAND FREE ENERGY PREDICTED BY IDOCK:   -7.80 KCAL/MOL
REMARK 924 INTRA-LIGAND FREE ENERGY PREDICTED BY IDOCK:   -0.95 KCAL/MOL
REMARK 927      BINDING AFFINITY PREDICTED BY RF-SCORE:    0.00 PKD
ROOT
HETATM    1  O   UNL     1     -10.781  14.942  70.114  1.00  0.00    -0.413 OA 
HETATM    2  H   UNL     1     -11.646  14.592  70.291  1.00  0.00     0.000 HD 
HETATM    3  C   UNL     1     -10.844  16.144  69.354  1.00  0.00    -0.320 C  
ENDROOT
BRANCH   3   4
HETATM    4  C   UNL     1      -9.439  16.712  69.067  1.00  0.00    -0.236 C  
HETATM    5  O   UNL     1      -8.554  15.728  68.486  1.00  0.00    -0.168 OA 
HETATM    6  C   UNL     1      -8.827  15.391  67.111  1.00  0.00    -0.213 C  
HETATM    7  C   UNL     1      -8.755  16.675  66.236  1.00  0.00    -0.324 C  
HETATM    8  H   UNL     1     -11.606  18.129  66.780  1.00  0.00     0.000 HD 
HETATM    9  C   UNL     1      -9.680  17.779  66.763  1.00  0.00    -0.309 C  
HETATM   10  O   UNL     1      -7.415  17.208  66.172  1.00  0.00    -0.296 OA 
HETATM   11  H   UNL     1      -8.221  19.539  68.001  1.00  0.00     0.000 HD 
HETATM   12  C   UNL     1      -9.452  18.030  68.264  1.00  0.00    -0.302 C  
HETATM   13  H   UNL     1      -7.370  17.992  65.638  1.00  0.00     0.000 HD 
HETATM   14  O   UNL     1     -11.034  17.446  66.453  1.00  0.00    -0.018 OA 
HETATM   15  O   UNL     1      -8.212  18.727  68.495  1.00  0.00    -0.328 OA 
BRANCH   6  16
HETATM   16  O   UNL     1     -10.064  14.679  67.041  1.00  0.00    -0.245 OA 
BRANCH  16  17
HETATM   17  C   UNL     1     -10.068  13.324  66.891  1.00  0.00    -0.250 A  
HETATM   18  C   UNL     1     -10.101  11.296  65.610  1.00  0.00    -0.247 A  
HETATM   19  C   UNL     1     -10.380  10.557  66.754  1.00  0.00    -0.301 A  
HETATM   20  O   UNL     1     -10.028  10.628  64.421  1.00  0.00    -0.304 OA 
HETATM   21  C   UNL     1      -9.921  12.672  65.670  1.00  0.00    -0.253 A  
HETATM   22  H   UNL     1     -10.152   9.688  64.380  1.00  0.00     0.000 HD 
HETATM   23  C   UNL     1     -10.492  11.186  68.000  1.00  0.00    -0.217 A  
HETATM   24  C   UNL     1     -10.365  12.582  68.050  1.00  0.00    -0.226 A  
BRANCH  23  25
HETATM   25  C   UNL     1     -10.775  10.328  69.169  1.00  0.00    -0.259 C  
HETATM   26  C   UNL     1      -9.940   9.437  69.728  1.00  0.00    -0.217 C  
BRANCH  26  27
HETATM   27  C   UNL     1     -10.355   8.468  70.767  1.00  0.00    -0.238 A  
HETATM   28  C   UNL     1      -9.818   8.593  72.058  1.00  0.00    -0.396 A  
HETATM   29  C   UNL     1     -10.107   7.656  73.057  1.00  0.00    -0.362 A  
HETATM   30  C   UNL     1     -10.954   6.591  72.771  1.00  0.00    -0.253 A  
HETATM   31  C   UNL     1     -11.540   6.473  71.519  1.00  0.00    -0.366 A  
HETATM   32  O   UNL     1     -11.230   5.632  73.701  1.00  0.00    -0.446 OA 
HETATM   33  H   UNL     1     -11.809   4.905  73.505  1.00  0.00     0.000 HD 
HETATM   34  C   UNL     1     -11.246   7.410  70.521  1.00  0.00    -0.296 A  
ENDBRANCH  26  27
ENDBRANCH  23  25
ENDBRANCH  16  17
ENDBRANCH   6  16
ENDBRANCH   3   4
TORSDOF 5
ENDMDL
MODEL       72
REMARK 921   NORMALIZED FREE ENERGY PREDICTED BY IDOCK:   -5.94 KCAL/MOL
REMARK 922        TOTAL FREE ENERGY PREDICTED BY IDOCK:   -8.75 KCAL/MOL
REMARK 923 INTER-LIGAND FREE ENERGY PREDICTED BY IDOCK:   -7.92 KCAL/MOL
REMARK 924 INTRA-LIGAND FREE ENERGY PREDICTED BY IDOCK:   -0.83 KCAL/MOL
REMARK 927      BINDING AFFINITY PREDICTED BY RF-SCORE:    0.00 PKD
ROOT
HETATM    1  O   UNL     1      -6.184   7.118  72.077  1.00  0.00    -0.041 OA 
HETATM    2  H   UNL     1      -5.946   7.564  71.273  1.00  0.00     0.000 HD 
HETATM    3  C   UNL     1      -7.154   6.101  71.850  1.00  0.00    -0.086 C  
ENDROOT
BRANCH   3   4
HETATM    4  C   UNL     1      -7.540   5.379  73.157  1.00  0.00    -0.096 C  
HETATM    5  O   UNL     1      -8.505   6.123  73.934  1.00  0.00    -0.119 OA 
HETATM    6  C   UNL     1      -9.846   6.132  73.404  1.00  0.00    -0.167 C  
HETATM    7  C   UNL     1     -10.363   4.671  73.271  1.00  0.00    -0.181 C  
HETATM    8  H   UNL     1      -8.953   3.608  70.548  1.00  0.00     0.000 HD 
HETATM    9  C   UNL     1      -9.411   3.801  72.441  1.00  0.00    -0.128 C  
HETATM   10  O   UNL     1     -10.535   4.042  74.559  1.00  0.00    -0.217 OA 
HETATM   11  H   UNL     1      -8.058   2.295  74.071  1.00  0.00     0.000 HD 
HETATM   12  C   UNL     1      -7.965   3.909  72.954  1.00  0.00    -0.079 C  
HETATM   13  H   UNL     1     -10.851   3.149  74.478  1.00  0.00     0.000 HD 
HETATM   14  O   UNL     1      -9.542   4.147  71.061  1.00  0.00    -0.156 OA 
HETATM   15  O   UNL     1      -7.796   3.201  74.196  1.00  0.00    -0.063 OA 
BRANCH   6  16
HETATM   16  O   UNL     1      -9.866   6.894  72.196  1.00  0.00    -0.151 OA 
BRANCH  16  17
HETATM   17  C   UNL     1     -10.760   7.912  72.041  1.00  0.00    -0.241 A  
HETATM   18  C   UNL     1     -12.887   8.978  72.343  1.00  0.00    -0.385 A  
HETATM   19  C   UNL     1     -12.566   9.931  71.383  1.00  0.00    -0.497 A  
HETATM   20  O   UNL     1     -14.125   9.042  72.916  1.00  0.00    -1.009 OA 
HETATM   21  C   UNL     1     -11.986   7.981  72.696  1.00  0.00    -0.334 A  
HETATM   22  H   UNL     1     -14.741   9.723  72.675  1.00  0.00     0.000 HD 
HETATM   23  C   UNL     1     -11.322   9.906  70.741  1.00  0.00    -0.430 A  
HETATM   24  C   UNL     1     -10.435   8.866  71.058  1.00  0.00    -0.316 A  
BRANCH  23  25
HETATM   25  C   UNL     1     -11.052  10.962  69.745  1.00  0.00    -0.328 C  
HETATM   26  C   UNL     1     -11.938  11.845  69.255  1.00  0.00    -0.342 C  
BRANCH  26  27
HETATM   27  C   UNL     1     -11.652  12.742  68.113  1.00  0.00    -0.380 A  
HETATM   28  C   UNL     1     -11.311  12.171  66.876  1.00  0.00    -0.402 A  
HETATM   29  C   UNL     1     -10.947  12.969  65.785  1.00  0.00    -0.299 A  
HETATM   30  C   UNL     1     -10.939  14.352  65.923  1.00  0.00    -0.312 A  
HETATM   31  C   UNL     1     -11.323  14.944  67.117  1.00  0.00    -0.348 A  
HETATM   32  O   UNL     1     -10.552  15.167  64.900  1.00  0.00    -0.433 OA 
HETATM   33  H   UNL     1     -10.547  16.112  64.993  1.00  0.00     0.000 HD 
HETATM   34  C   UNL     1     -11.684  14.144  68.208  1.00  0.00    -0.383 A  
ENDBRANCH  26  27
ENDBRANCH  23  25
ENDBRANCH  16  17
ENDBRANCH   6  16
ENDBRANCH   3   4
TORSDOF 5
ENDMDL
MODEL       73
REMARK 921   NORMALIZED FREE ENERGY PREDICTED BY IDOCK:   -5.88 KCAL/MOL
REMARK 922        TOTAL FREE ENERGY PREDICTED BY IDOCK:   -8.67 KCAL/MOL
REMARK 923 INTER-LIGAND FREE ENERGY PREDICTED BY IDOCK:   -7.56 KCAL/MOL
REMARK 924 INTRA-LIGAND FREE ENERGY PREDICTED BY IDOCK:   -1.12 KCAL/MOL
REMARK 927      BINDING AFFINITY PREDICTED BY RF-SCORE:    0.00 PKD
ROOT
HETATM    1  O   UNL     1      -7.118   4.622  68.251  1.00  0.00    -0.055 OA 
HETATM    2  H   UNL     1      -6.346   5.134  68.461  1.00  0.00     0.000 HD 
HETATM    3  C   UNL     1      -7.193   4.324  66.861  1.00  0.00    -0.068 C  
ENDROOT
BRANCH   3   4
HETATM    4  C   UNL     1      -8.447   3.494  66.522  1.00  0.00    -0.108 C  
HETATM    5  O   UNL     1      -9.623   3.960  67.220  1.00  0.00    -0.193 OA 
HETATM    6  C   UNL     1     -10.172   5.204  66.737  1.00  0.00    -0.253 C  
HETATM    7  C   UNL     1     -10.534   5.063  65.231  1.00  0.00     0.243 C  
HETATM    8  H   UNL     1      -7.673   5.373  63.728  1.00  0.00     0.000 HD 
HETATM    9  C   UNL     1      -9.337   4.588  64.397  1.00  0.00    -0.098 C  
HETATM   10  O   UNL     1     -11.620   4.135  65.023  1.00  0.00    -0.840 OA 
HETATM   11  H   UNL     1      -9.670   2.067  63.861  1.00  0.00     0.000 HD 
HETATM   12  C   UNL     1      -8.695   3.330  65.008  1.00  0.00    -0.115 C  
HETATM   13  H   UNL     1     -11.841   4.048  64.103  1.00  0.00     0.000 HD 
HETATM   14  O   UNL     1      -8.414   5.668  64.244  1.00  0.00    -0.122 OA 
HETATM   15  O   UNL     1      -9.518   2.168  64.794  1.00  0.00    -0.133 OA 
BRANCH   6  16
HETATM   16  O   UNL     1      -9.268   6.265  67.047  1.00  0.00    -0.119 OA 
BRANCH  16  17
HETATM   17  C   UNL     1      -9.651   7.273  67.882  1.00  0.00    -0.139 A  
HETATM   18  C   UNL     1     -10.349   8.178  69.990  1.00  0.00    -0.215 A  
HETATM   19  C   UNL     1     -10.708   9.373  69.378  1.00  0.00    -0.234 A  
HETATM   20  O   UNL     1     -10.571   8.055  71.333  1.00  0.00    -0.211 OA 
HETATM   21  C   UNL     1      -9.800   7.132  69.258  1.00  0.00    -0.161 A  
HETATM   22  H   UNL     1     -10.946   8.770  71.833  1.00  0.00     0.000 HD 
HETATM   23  C   UNL     1     -10.529   9.552  68.002  1.00  0.00    -0.279 A  
HETATM   24  C   UNL     1     -10.026   8.476  67.255  1.00  0.00    -0.289 A  
BRANCH  23  25
HETATM   25  C   UNL     1     -10.921  10.857  67.431  1.00  0.00    -0.353 C  
HETATM   26  C   UNL     1     -11.013  11.163  66.126  1.00  0.00    -0.203 C  
BRANCH  26  27
HETATM   27  C   UNL     1     -11.213  12.541  65.623  1.00  0.00    -0.352 A  
HETATM   28  C   UNL     1     -12.036  12.736  64.502  1.00  0.00    -0.478 A  
HETATM   29  C   UNL     1     -12.193  14.004  63.931  1.00  0.00    -0.336 A  
HETATM   30  C   UNL     1     -11.535  15.093  64.492  1.00  0.00    -0.316 A  
HETATM   31  C   UNL     1     -10.758  14.937  65.630  1.00  0.00    -0.352 A  
HETATM   32  O   UNL     1     -11.626  16.339  63.944  1.00  0.00    -1.489 OA 
HETATM   33  H   UNL     1     -11.177  17.083  64.326  1.00  0.00     0.000 HD 
HETATM   34  C   UNL     1     -10.601  13.667  66.198  1.00  0.00    -0.291 A  
ENDBRANCH  26  27
ENDBRANCH  23  25
ENDBRANCH  16  17
ENDBRANCH   6  16
ENDBRANCH   3   4
TORSDOF 5
ENDMDL
MODEL       74
REMARK 921   NORMALIZED FREE ENERGY PREDICTED BY IDOCK:   -5.87 KCAL/MOL
REMARK 922        TOTAL FREE ENERGY PREDICTED BY IDOCK:   -8.67 KCAL/MOL
REMARK 923 INTER-LIGAND FREE ENERGY PREDICTED BY IDOCK:   -7.84 KCAL/MOL
REMARK 924 INTRA-LIGAND FREE ENERGY PREDICTED BY IDOCK:   -0.82 KCAL/MOL
REMARK 927      BINDING AFFINITY PREDICTED BY RF-SCORE:    0.00 PKD
ROOT
HETATM    1  O   UNL     1     -10.950  15.262  64.343  1.00  0.00    -0.657 OA 
HETATM    2  H   UNL     1     -10.901  14.374  64.009  1.00  0.00     0.000 HD 
HETATM    3  C   UNL     1     -10.024  15.479  65.402  1.00  0.00    -0.304 C  
ENDROOT
BRANCH   3   4
HETATM    4  C   UNL     1     -10.104  16.921  65.943  1.00  0.00    -0.283 C  
HETATM    5  O   UNL     1     -10.804  16.998  67.205  1.00  0.00    -0.252 OA 
HETATM    6  C   UNL     1     -10.080  16.485  68.343  1.00  0.00    -0.255 C  
HETATM    7  C   UNL     1      -8.736  17.254  68.493  1.00  0.00    -0.273 C  
HETATM    8  H   UNL     1      -6.822  15.888  66.255  1.00  0.00     0.000 HD 
HETATM    9  C   UNL     1      -7.906  17.213  67.204  1.00  0.00    -0.184 C  
HETATM   10  O   UNL     1      -8.944  18.638  68.847  1.00  0.00    -0.284 OA 
HETATM   11  H   UNL     1      -8.136  19.515  66.018  1.00  0.00     0.000 HD 
HETATM   12  C   UNL     1      -8.743  17.647  65.987  1.00  0.00    -0.016 C  
HETATM   13  H   UNL     1      -8.123  19.108  68.939  1.00  0.00     0.000 HD 
HETATM   14  O   UNL     1      -7.335  15.913  67.054  1.00  0.00    -0.207 OA 
HETATM   15  O   UNL     1      -8.974  19.068  65.991  1.00  0.00    -0.456 OA 
BRANCH   6  16
HETATM   16  O   UNL     1      -9.956  15.067  68.218  1.00  0.00    -0.218 OA 
BRANCH  16  17
HETATM   17  C   UNL     1     -10.827  14.242  68.867  1.00  0.00    -0.257 A  
HETATM   18  C   UNL     1     -12.409  13.700  70.586  1.00  0.00    -0.368 A  
HETATM   19  C   UNL     1     -12.332  12.352  70.256  1.00  0.00    -0.264 A  
HETATM   20  O   UNL     1     -13.210  14.057  71.633  1.00  0.00    -0.333 OA 
HETATM   21  C   UNL     1     -11.681  14.654  69.885  1.00  0.00    -0.349 A  
HETATM   22  H   UNL     1     -13.707  13.405  72.112  1.00  0.00     0.000 HD 
HETATM   23  C   UNL     1     -11.511  11.920  69.208  1.00  0.00    -0.366 A  
HETATM   24  C   UNL     1     -10.734  12.877  68.538  1.00  0.00    -0.275 A  
BRANCH  23  25
HETATM   25  C   UNL     1     -11.496  10.473  68.911  1.00  0.00    -0.292 C  
HETATM   26  C   UNL     1     -10.565   9.586  69.300  1.00  0.00    -0.236 C  
BRANCH  26  27
HETATM   27  C   UNL     1     -10.503   8.194  68.799  1.00  0.00    -0.198 A  
HETATM   28  C   UNL     1     -10.568   7.140  69.725  1.00  0.00    -0.250 A  
HETATM   29  C   UNL     1     -10.427   5.809  69.319  1.00  0.00    -0.358 A  
HETATM   30  C   UNL     1     -10.237   5.522  67.972  1.00  0.00    -0.181 A  
HETATM   31  C   UNL     1     -10.222   6.540  67.029  1.00  0.00    -0.277 A  
HETATM   32  O   UNL     1     -10.054   4.242  67.536  1.00  0.00    -0.097 OA 
HETATM   33  H   UNL     1      -9.924   4.046  66.615  1.00  0.00     0.000 HD 
HETATM   34  C   UNL     1     -10.359   7.871  67.439  1.00  0.00    -0.349 A  
ENDBRANCH  26  27
ENDBRANCH  23  25
ENDBRANCH  16  17
ENDBRANCH   6  16
ENDBRANCH   3   4
TORSDOF 5
ENDMDL
MODEL       75
REMARK 921   NORMALIZED FREE ENERGY PREDICTED BY IDOCK:   -5.85 KCAL/MOL
REMARK 922        TOTAL FREE ENERGY PREDICTED BY IDOCK:   -8.64 KCAL/MOL
REMARK 923 INTER-LIGAND FREE ENERGY PREDICTED BY IDOCK:   -7.69 KCAL/MOL
REMARK 924 INTRA-LIGAND FREE ENERGY PREDICTED BY IDOCK:   -0.96 KCAL/MOL
REMARK 927      BINDING AFFINITY PREDICTED BY RF-SCORE:    0.00 PKD
ROOT
HETATM    1  O   UNL     1      -8.542   3.985  68.317  1.00  0.00    -0.091 OA 
HETATM    2  H   UNL     1      -8.482   3.539  69.154  1.00  0.00     0.000 HD 
HETATM    3  C   UNL     1      -9.863   4.447  68.059  1.00  0.00    -0.072 C  
ENDROOT
BRANCH   3   4
HETATM    4  C   UNL     1      -9.960   5.170  66.700  1.00  0.00    -0.210 C  
HETATM    5  O   UNL     1     -10.854   6.305  66.741  1.00  0.00    -0.326 OA 
HETATM    6  C   UNL     1     -10.353   7.456  67.450  1.00  0.00    -0.270 C  
HETATM    7  C   UNL     1      -9.016   7.923  66.807  1.00  0.00    -0.145 C  
HETATM    8  H   UNL     1      -6.829   5.840  67.998  1.00  0.00     0.000 HD 
HETATM    9  C   UNL     1      -7.988   6.787  66.736  1.00  0.00    -0.108 C  
HETATM   10  O   UNL     1      -9.211   8.433  65.471  1.00  0.00    -0.388 OA 
HETATM   11  H   UNL     1      -7.905   5.920  64.287  1.00  0.00     0.000 HD 
HETATM   12  C   UNL     1      -8.591   5.529  66.086  1.00  0.00    -0.129 C  
HETATM   13  H   UNL     1      -8.394   8.718  65.077  1.00  0.00     0.000 HD 
HETATM   14  O   UNL     1      -7.465   6.544  68.043  1.00  0.00    -0.090 OA 
HETATM   15  O   UNL     1      -8.749   5.699  64.665  1.00  0.00    -0.091 OA 
BRANCH   6  16
HETATM   16  O   UNL     1     -10.281   7.152  68.844  1.00  0.00    -0.175 OA 
BRANCH  16  17
HETATM   17  C   UNL     1     -10.830   7.999  69.761  1.00  0.00    -0.194 A  
HETATM   18  C   UNL     1     -12.103   8.517  71.727  1.00  0.00    -0.333 A  
HETATM   19  C   UNL     1     -12.136   9.861  71.373  1.00  0.00    -0.501 A  
HETATM   20  O   UNL     1     -12.764   8.139  72.861  1.00  0.00    -0.601 OA 
HETATM   21  C   UNL     1     -11.435   7.584  70.944  1.00  0.00    -0.303 A  
HETATM   22  H   UNL     1     -13.220   8.777  73.396  1.00  0.00     0.000 HD 
HETATM   23  C   UNL     1     -11.499  10.308  70.209  1.00  0.00    -0.395 A  
HETATM   24  C   UNL     1     -10.873   9.356  69.390  1.00  0.00    -0.208 A  
BRANCH  23  25
HETATM   25  C   UNL     1     -11.567  11.753  69.911  1.00  0.00    -0.351 C  
HETATM   26  C   UNL     1     -11.583  12.318  68.693  1.00  0.00    -0.372 C  
BRANCH  26  27
HETATM   27  C   UNL     1     -11.447  13.775  68.466  1.00  0.00    -0.342 A  
HETATM   28  C   UNL     1     -11.151  14.230  67.171  1.00  0.00    -0.318 A  
HETATM   29  C   UNL     1     -10.927  15.588  66.914  1.00  0.00    -0.268 A  
HETATM   30  C   UNL     1     -11.015  16.504  67.956  1.00  0.00    -0.320 A  
HETATM   31  C   UNL     1     -11.357  16.088  69.234  1.00  0.00    -0.356 A  
HETATM   32  O   UNL     1     -10.764  17.830  67.760  1.00  0.00    -0.390 OA 
HETATM   33  H   UNL     1     -10.823  18.457  68.472  1.00  0.00     0.000 HD 
HETATM   34  C   UNL     1     -11.578  14.729  69.488  1.00  0.00    -0.339 A  
ENDBRANCH  26  27
ENDBRANCH  23  25
ENDBRANCH  16  17
ENDBRANCH   6  16
ENDBRANCH   3   4
TORSDOF 5
ENDMDL
MODEL       76
REMARK 921   NORMALIZED FREE ENERGY PREDICTED BY IDOCK:   -5.77 KCAL/MOL
REMARK 922        TOTAL FREE ENERGY PREDICTED BY IDOCK:   -8.54 KCAL/MOL
REMARK 923 INTER-LIGAND FREE ENERGY PREDICTED BY IDOCK:   -7.86 KCAL/MOL
REMARK 924 INTRA-LIGAND FREE ENERGY PREDICTED BY IDOCK:   -0.68 KCAL/MOL
REMARK 927      BINDING AFFINITY PREDICTED BY RF-SCORE:    0.00 PKD
ROOT
HETATM    1  O   UNL     1     -12.227  12.060  69.151  1.00  0.00    -0.210 OA 
HETATM    2  H   UNL     1     -12.657  11.235  69.346  1.00  0.00     0.000 HD 
HETATM    3  C   UNL     1     -11.735  12.096  67.816  1.00  0.00    -0.320 C  
ENDROOT
BRANCH   3   4
HETATM    4  C   UNL     1     -11.037  13.435  67.502  1.00  0.00    -0.274 C  
HETATM    5  O   UNL     1      -9.885  13.268  66.645  1.00  0.00    -0.261 OA 
HETATM    6  C   UNL     1     -10.182  12.964  65.267  1.00  0.00    -0.278 C  
HETATM    7  C   UNL     1     -11.067  14.092  64.664  1.00  0.00    -0.382 C  
HETATM    8  H   UNL     1     -14.036  13.414  65.787  1.00  0.00     0.000 HD 
HETATM    9  C   UNL     1     -12.332  14.333  65.497  1.00  0.00    -0.408 C  
HETATM   10  O   UNL     1     -10.352  15.342  64.566  1.00  0.00    -0.515 OA 
HETATM   11  H   UNL     1     -11.983  16.493  66.899  1.00  0.00     0.000 HD 
HETATM   12  C   UNL     1     -11.993  14.530  66.984  1.00  0.00    -0.345 C  
HETATM   13  H   UNL     1     -10.892  16.032  64.198  1.00  0.00     0.000 HD 
HETATM   14  O   UNL     1     -13.253  13.264  65.271  1.00  0.00    -0.625 OA 
HETATM   15  O   UNL     1     -11.394  15.818  67.218  1.00  0.00    -0.212 OA 
BRANCH   6  16
HETATM   16  O   UNL     1     -10.737  11.650  65.188  1.00  0.00    -0.282 OA 
BRANCH  16  17
HETATM   17  C   UNL     1      -9.919  10.559  65.153  1.00  0.00    -0.309 A  
HETATM   18  C   UNL     1      -8.460   8.992  64.073  1.00  0.00    -0.163 A  
HETATM   19  C   UNL     1      -8.527   8.145  65.173  1.00  0.00    -0.134 A  
HETATM   20  O   UNL     1      -7.728   8.583  62.995  1.00  0.00    -0.113 OA 
HETATM   21  C   UNL     1      -9.131  10.209  64.061  1.00  0.00    -0.289 A  
HETATM   22  H   UNL     1      -7.269   7.751  63.003  1.00  0.00     0.000 HD 
HETATM   23  C   UNL     1      -9.280   8.496  66.299  1.00  0.00    -0.262 A  
HETATM   24  C   UNL     1     -10.002   9.699  66.263  1.00  0.00    -0.335 A  
BRANCH  23  25
HETATM   25  C   UNL     1      -9.287   7.548  67.432  1.00  0.00    -0.164 C  
HETATM   26  C   UNL     1     -10.370   7.014  68.021  1.00  0.00    -0.234 C  
BRANCH  26  27
HETATM   27  C   UNL     1     -10.316   6.233  69.278  1.00  0.00    -0.266 A  
HETATM   28  C   UNL     1     -10.962   6.742  70.416  1.00  0.00    -0.330 A  
HETATM   29  C   UNL     1     -10.873   6.092  71.651  1.00  0.00    -0.314 A  
HETATM   30  C   UNL     1     -10.144   4.912  71.751  1.00  0.00    -0.202 A  
HETATM   31  C   UNL     1      -9.540   4.359  70.631  1.00  0.00    -0.262 A  
HETATM   32  O   UNL     1      -9.996   4.266  72.943  1.00  0.00    -0.137 OA 
HETATM   33  H   UNL     1      -9.498   3.459  73.012  1.00  0.00     0.000 HD 
HETATM   34  C   UNL     1      -9.629   5.014  69.397  1.00  0.00    -0.236 A  
ENDBRANCH  26  27
ENDBRANCH  23  25
ENDBRANCH  16  17
ENDBRANCH   6  16
ENDBRANCH   3   4
TORSDOF 5
ENDMDL
MODEL       77
REMARK 921   NORMALIZED FREE ENERGY PREDICTED BY IDOCK:   -5.76 KCAL/MOL
REMARK 922        TOTAL FREE ENERGY PREDICTED BY IDOCK:   -8.53 KCAL/MOL
REMARK 923 INTER-LIGAND FREE ENERGY PREDICTED BY IDOCK:   -7.45 KCAL/MOL
REMARK 924 INTRA-LIGAND FREE ENERGY PREDICTED BY IDOCK:   -1.08 KCAL/MOL
REMARK 927      BINDING AFFINITY PREDICTED BY RF-SCORE:    0.00 PKD
ROOT
HETATM    1  O   UNL     1      -6.732   7.011  64.846  1.00  0.00    -0.045 OA 
HETATM    2  H   UNL     1      -6.434   6.199  65.239  1.00  0.00     0.000 HD 
HETATM    3  C   UNL     1      -8.070   7.319  65.224  1.00  0.00    -0.134 C  
ENDROOT
BRANCH   3   4
HETATM    4  C   UNL     1      -8.554   8.637  64.585  1.00  0.00    -0.089 C  
HETATM    5  O   UNL     1      -9.666   9.220  65.300  1.00  0.00    -0.216 OA 
HETATM    6  C   UNL     1      -9.335   9.820  66.570  1.00  0.00    -0.162 C  
HETATM    7  C   UNL     1      -8.267  10.931  66.357  1.00  0.00    -0.163 C  
HETATM    8  H   UNL     1      -5.492   9.273  66.055  1.00  0.00     0.000 HD 
HETATM    9  C   UNL     1      -7.030  10.402  65.619  1.00  0.00    -0.132 C  
HETATM   10  O   UNL     1      -8.792  12.046  65.607  1.00  0.00    -0.412 OA 
HETATM   11  H   UNL     1      -7.155  11.205  63.150  1.00  0.00     0.000 HD 
HETATM   12  C   UNL     1      -7.425   9.658  64.331  1.00  0.00    -0.125 C  
HETATM   13  H   UNL     1      -8.140  12.725  65.477  1.00  0.00     0.000 HD 
HETATM   14  O   UNL     1      -6.257   9.600  66.513  1.00  0.00    -0.062 OA 
HETATM   15  O   UNL     1      -7.851  10.576  63.306  1.00  0.00    -0.131 OA 
BRANCH   6  16
HETATM   16  O   UNL     1      -8.965   8.792  67.490  1.00  0.00    -0.133 OA 
BRANCH  16  17
HETATM   17  C   UNL     1      -9.707   8.576  68.614  1.00  0.00    -0.164 A  
HETATM   18  C   UNL     1     -10.850   7.201  70.212  1.00  0.00    -0.249 A  
HETATM   19  C   UNL     1     -11.474   8.319  70.754  1.00  0.00    -0.268 A  
HETATM   20  O   UNL     1     -11.164   5.979  70.734  1.00  0.00    -0.303 OA 
HETATM   21  C   UNL     1      -9.950   7.320  69.161  1.00  0.00    -0.170 A  
HETATM   22  H   UNL     1     -11.779   5.897  71.453  1.00  0.00     0.000 HD 
HETATM   23  C   UNL     1     -11.214   9.597  70.247  1.00  0.00    -0.324 A  
HETATM   24  C   UNL     1     -10.348   9.710  69.149  1.00  0.00    -0.219 A  
BRANCH  23  25
HETATM   25  C   UNL     1     -11.906  10.734  70.887  1.00  0.00    -0.400 C  
HETATM   26  C   UNL     1     -12.116  11.947  70.349  1.00  0.00    -0.421 C  
BRANCH  26  27
HETATM   27  C   UNL     1     -12.634  13.103  71.117  1.00  0.00    -0.403 A  
HETATM   28  C   UNL     1     -12.154  14.386  70.810  1.00  0.00    -0.408 A  
HETATM   29  C   UNL     1     -12.542  15.503  71.558  1.00  0.00    -0.484 A  
HETATM   30  C   UNL     1     -13.432  15.343  72.614  1.00  0.00    -0.529 A  
HETATM   31  C   UNL     1     -13.962  14.095  72.906  1.00  0.00     0.045 A  
HETATM   32  O   UNL     1     -13.805  16.397  73.395  1.00  0.00    -0.725 OA 
HETATM   33  H   UNL     1     -14.413  16.288  74.117  1.00  0.00     0.000 HD 
HETATM   34  C   UNL     1     -13.570  12.979  72.157  1.00  0.00    -0.618 A  
ENDBRANCH  26  27
ENDBRANCH  23  25
ENDBRANCH  16  17
ENDBRANCH   6  16
ENDBRANCH   3   4
TORSDOF 5
ENDMDL
MODEL       78
REMARK 921   NORMALIZED FREE ENERGY PREDICTED BY IDOCK:   -5.72 KCAL/MOL
REMARK 922        TOTAL FREE ENERGY PREDICTED BY IDOCK:   -8.47 KCAL/MOL
REMARK 923 INTER-LIGAND FREE ENERGY PREDICTED BY IDOCK:   -7.35 KCAL/MOL
REMARK 924 INTRA-LIGAND FREE ENERGY PREDICTED BY IDOCK:   -1.12 KCAL/MOL
REMARK 927      BINDING AFFINITY PREDICTED BY RF-SCORE:    0.00 PKD
ROOT
HETATM    1  O   UNL     1      -9.069   4.979  68.290  1.00  0.00    -0.109 OA 
HETATM    2  H   UNL     1      -9.105   4.602  67.418  1.00  0.00     0.000 HD 
HETATM    3  C   UNL     1      -8.652   6.339  68.260  1.00  0.00    -0.117 C  
ENDROOT
BRANCH   3   4
HETATM    4  C   UNL     1      -8.595   6.950  69.675  1.00  0.00    -0.134 C  
HETATM    5  O   UNL     1      -8.717   8.390  69.660  1.00  0.00    -0.131 OA 
HETATM    6  C   UNL     1     -10.038   8.892  69.369  1.00  0.00    -0.202 C  
HETATM    7  C   UNL     1     -11.048   8.337  70.414  1.00  0.00    -0.235 C  
HETATM    8  H   UNL     1     -11.624   5.312  69.386  1.00  0.00     0.000 HD 
HETATM    9  C   UNL     1     -11.007   6.805  70.491  1.00  0.00    -0.280 C  
HETATM   10  O   UNL     1     -10.795   8.858  71.736  1.00  0.00    -0.317 OA 
HETATM   11  H   UNL     1      -9.694   6.135  72.632  1.00  0.00     0.000 HD 
HETATM   12  C   UNL     1      -9.568   6.293  70.677  1.00  0.00    -0.172 C  
HETATM   13  H   UNL     1     -11.411   8.519  72.375  1.00  0.00     0.000 HD 
HETATM   14  O   UNL     1     -11.649   6.260  69.337  1.00  0.00    -0.403 OA 
HETATM   15  O   UNL     1      -9.095   6.540  72.015  1.00  0.00    -0.141 OA 
BRANCH   6  16
HETATM   16  O   UNL     1     -10.357   8.605  68.006  1.00  0.00    -0.214 OA 
BRANCH  16  17
HETATM   17  C   UNL     1     -10.283   9.587  67.063  1.00  0.00    -0.255 A  
HETATM   18  C   UNL     1      -9.738  10.458  64.895  1.00  0.00    -0.309 A  
HETATM   19  C   UNL     1      -9.919  11.758  65.353  1.00  0.00    -0.284 A  
HETATM   20  O   UNL     1      -9.338  10.286  63.601  1.00  0.00    -0.257 OA 
HETATM   21  C   UNL     1      -9.940   9.367  65.732  1.00  0.00    -0.278 A  
HETATM   22  H   UNL     1      -9.200  11.032  63.029  1.00  0.00     0.000 HD 
HETATM   23  C   UNL     1     -10.304  12.002  66.676  1.00  0.00    -0.237 A  
HETATM   24  C   UNL     1     -10.453  10.902  67.535  1.00  0.00    -0.252 A  
BRANCH  23  25
HETATM   25  C   UNL     1     -10.490  13.410  67.080  1.00  0.00    -0.257 C  
HETATM   26  C   UNL     1     -10.134  14.497  66.375  1.00  0.00    -0.293 C  
BRANCH  26  27
HETATM   27  C   UNL     1     -10.163  15.872  66.924  1.00  0.00    -0.277 A  
HETATM   28  C   UNL     1     -10.071  16.045  68.315  1.00  0.00    -0.229 A  
HETATM   29  C   UNL     1     -10.178  17.313  68.896  1.00  0.00    -0.349 A  
HETATM   30  C   UNL     1     -10.363  18.425  68.081  1.00  0.00    -0.366 A  
HETATM   31  C   UNL     1     -10.405  18.289  66.701  1.00  0.00    -0.400 A  
HETATM   32  O   UNL     1     -10.515  19.674  68.607  1.00  0.00    -0.522 OA 
HETATM   33  H   UNL     1     -10.641  20.434  68.050  1.00  0.00     0.000 HD 
HETATM   34  C   UNL     1     -10.300  17.018  66.123  1.00  0.00    -0.326 A  
ENDBRANCH  26  27
ENDBRANCH  23  25
ENDBRANCH  16  17
ENDBRANCH   6  16
ENDBRANCH   3   4
TORSDOF 5
ENDMDL
MODEL       79
REMARK 921   NORMALIZED FREE ENERGY PREDICTED BY IDOCK:   -5.67 KCAL/MOL
REMARK 922        TOTAL FREE ENERGY PREDICTED BY IDOCK:   -8.40 KCAL/MOL
REMARK 923 INTER-LIGAND FREE ENERGY PREDICTED BY IDOCK:   -7.33 KCAL/MOL
REMARK 924 INTRA-LIGAND FREE ENERGY PREDICTED BY IDOCK:   -1.07 KCAL/MOL
REMARK 927      BINDING AFFINITY PREDICTED BY RF-SCORE:    0.00 PKD
ROOT
HETATM    1  O   UNL     1      -7.689  14.526  69.635  1.00  0.00    -0.371 OA 
HETATM    2  H   UNL     1      -6.903  14.044  69.406  1.00  0.00     0.000 HD 
HETATM    3  C   UNL     1      -8.043  15.466  68.627  1.00  0.00    -0.156 C  
ENDROOT
BRANCH   3   4
HETATM    4  C   UNL     1      -9.319  16.249  68.998  1.00  0.00    -0.254 C  
HETATM    5  O   UNL     1     -10.057  16.686  67.835  1.00  0.00    -0.254 OA 
HETATM    6  C   UNL     1     -10.760  15.645  67.126  1.00  0.00    -0.314 C  
HETATM    7  C   UNL     1     -11.758  14.942  68.089  1.00  0.00    -0.318 C  
HETATM    8  H   UNL     1      -9.873  12.937  69.811  1.00  0.00     0.000 HD 
HETATM    9  C   UNL     1     -11.063  14.422  69.354  1.00  0.00    -0.261 C  
HETATM   10  O   UNL     1     -12.825  15.825  68.496  1.00  0.00     0.346 OA 
HETATM   11  H   UNL     1     -11.609  16.049  71.306  1.00  0.00     0.000 HD 
HETATM   12  C   UNL     1     -10.220  15.524  70.020  1.00  0.00    -0.273 C  
HETATM   13  H   UNL     1     -13.435  15.396  69.085  1.00  0.00     0.000 HD 
HETATM   14  O   UNL     1     -10.303  13.258  69.027  1.00  0.00    -0.115 OA 
HETATM   15  O   UNL     1     -11.055  16.496  70.677  1.00  0.00    -0.289 OA 
BRANCH   6  16
HETATM   16  O   UNL     1      -9.809  14.780  66.502  1.00  0.00    -0.250 OA 
BRANCH  16  17
HETATM   17  C   UNL     1     -10.219  13.851  65.592  1.00  0.00    -0.328 A  
HETATM   18  C   UNL     1     -11.471  13.104  63.687  1.00  0.00    -0.323 A  
HETATM   19  C   UNL     1     -11.192  11.779  64.001  1.00  0.00    -0.461 A  
HETATM   20  O   UNL     1     -12.267  13.350  62.605  1.00  0.00    -0.695 OA 
HETATM   21  C   UNL     1     -10.972  14.146  64.459  1.00  0.00    -0.340 A  
HETATM   22  H   UNL     1     -12.609  12.638  62.077  1.00  0.00     0.000 HD 
HETATM   23  C   UNL     1     -10.403  11.460  65.112  1.00  0.00    -0.344 A  
HETATM   24  C   UNL     1      -9.946  12.510  65.922  1.00  0.00    -0.269 A  
BRANCH  23  25
HETATM   25  C   UNL     1     -10.140  10.029  65.368  1.00  0.00    -0.317 C  
HETATM   26  C   UNL     1     -10.317   9.380  66.531  1.00  0.00    -0.268 C  
BRANCH  26  27
HETATM   27  C   UNL     1      -9.844   7.998  66.775  1.00  0.00    -0.327 A  
HETATM   28  C   UNL     1     -10.780   7.022  67.154  1.00  0.00    -0.433 A  
HETATM   29  C   UNL     1     -10.379   5.722  67.481  1.00  0.00    -0.274 A  
HETATM   30  C   UNL     1      -9.032   5.386  67.415  1.00  0.00    -0.108 A  
HETATM   31  C   UNL     1      -8.092   6.315  66.992  1.00  0.00    -0.109 A  
HETATM   32  O   UNL     1      -8.591   4.143  67.764  1.00  0.00    -0.097 OA 
HETATM   33  H   UNL     1      -7.670   3.912  67.718  1.00  0.00     0.000 HD 
HETATM   34  C   UNL     1      -8.497   7.616  66.669  1.00  0.00    -0.130 A  
ENDBRANCH  26  27
ENDBRANCH  23  25
ENDBRANCH  16  17
ENDBRANCH   6  16
ENDBRANCH   3   4
TORSDOF 5
ENDMDL
MODEL       80
REMARK 921   NORMALIZED FREE ENERGY PREDICTED BY IDOCK:   -5.61 KCAL/MOL
REMARK 922        TOTAL FREE ENERGY PREDICTED BY IDOCK:   -8.33 KCAL/MOL
REMARK 923 INTER-LIGAND FREE ENERGY PREDICTED BY IDOCK:   -7.21 KCAL/MOL
REMARK 924 INTRA-LIGAND FREE ENERGY PREDICTED BY IDOCK:   -1.12 KCAL/MOL
REMARK 927      BINDING AFFINITY PREDICTED BY RF-SCORE:    0.00 PKD
ROOT
HETATM    1  O   UNL     1      -9.716   2.813  66.801  1.00  0.00    -0.402 OA 
HETATM    2  H   UNL     1     -10.569   2.395  66.780  1.00  0.00     0.000 HD 
HETATM    3  C   UNL     1      -9.819   4.228  66.685  1.00  0.00    -0.214 C  
ENDROOT
BRANCH   3   4
HETATM    4  C   UNL     1      -8.434   4.906  66.719  1.00  0.00    -0.106 C  
HETATM    5  O   UNL     1      -8.508   6.295  67.112  1.00  0.00    -0.109 OA 
HETATM    6  C   UNL     1      -8.786   6.525  68.508  1.00  0.00    -0.122 C  
HETATM    7  C   UNL     1      -7.691   5.841  69.376  1.00  0.00    -0.092 C  
HETATM    8  H   UNL     1      -8.570   2.716  69.388  1.00  0.00     0.000 HD 
HETATM    9  C   UNL     1      -7.548   4.350  69.045  1.00  0.00    -0.055 C  
HETATM   10  O   UNL     1      -6.400   6.463  69.202  1.00  0.00    -0.032 OA 
HETATM   11  H   UNL     1      -5.416   4.042  67.591  1.00  0.00     0.000 HD 
HETATM   12  C   UNL     1      -7.379   4.127  67.532  1.00  0.00    -0.068 C  
HETATM   13  H   UNL     1      -5.731   6.046  69.732  1.00  0.00     0.000 HD 
HETATM   14  O   UNL     1      -8.659   3.639  69.594  1.00  0.00    -0.062 OA 
HETATM   15  O   UNL     1      -6.066   4.522  67.090  1.00  0.00    -0.029 OA 
BRANCH   6  16
HETATM   16  O   UNL     1     -10.126   6.119  68.792  1.00  0.00    -0.149 OA 
BRANCH  16  17
HETATM   17  C   UNL     1     -10.723   6.488  69.961  1.00  0.00    -0.249 A  
HETATM   18  C   UNL     1     -11.983   6.082  71.961  1.00  0.00    -0.176 A  
HETATM   19  C   UNL     1     -12.144   7.448  72.158  1.00  0.00    -0.289 A  
HETATM   20  O   UNL     1     -12.577   5.233  72.852  1.00  0.00    -0.395 OA 
HETATM   21  C   UNL     1     -11.256   5.592  70.882  1.00  0.00    -0.106 A  
HETATM   22  H   UNL     1     -13.073   5.568  73.589  1.00  0.00     0.000 HD 
HETATM   23  C   UNL     1     -11.582   8.369  71.267  1.00  0.00    -0.326 A  
HETATM   24  C   UNL     1     -10.896   7.872  70.148  1.00  0.00    -0.243 A  
BRANCH  23  25
HETATM   25  C   UNL     1     -11.786   9.803  71.554  1.00  0.00    -0.450 C  
HETATM   26  C   UNL     1     -12.578  10.650  70.875  1.00  0.00    -0.503 C  
BRANCH  26  27
HETATM   27  C   UNL     1     -12.581  12.115  71.089  1.00  0.00    -0.360 A  
HETATM   28  C   UNL     1     -11.801  12.921  70.244  1.00  0.00    -0.291 A  
HETATM   29  C   UNL     1     -11.698  14.301  70.452  1.00  0.00    -0.329 A  
HETATM   30  C   UNL     1     -12.392  14.887  71.504  1.00  0.00    -0.339 A  
HETATM   31  C   UNL     1     -13.212  14.123  72.322  1.00  0.00    -0.540 A  
HETATM   32  O   UNL     1     -12.289  16.221  71.770  1.00  0.00    -0.583 OA 
HETATM   33  H   UNL     1     -12.763  16.623  72.488  1.00  0.00     0.000 HD 
HETATM   34  C   UNL     1     -13.310  12.742  72.113  1.00  0.00    -0.593 A  
ENDBRANCH  26  27
ENDBRANCH  23  25
ENDBRANCH  16  17
ENDBRANCH   6  16
ENDBRANCH   3   4
TORSDOF 5
ENDMDL
MODEL       81
REMARK 921   NORMALIZED FREE ENERGY PREDICTED BY IDOCK:   -5.57 KCAL/MOL
REMARK 922        TOTAL FREE ENERGY PREDICTED BY IDOCK:   -8.28 KCAL/MOL
REMARK 923 INTER-LIGAND FREE ENERGY PREDICTED BY IDOCK:   -7.24 KCAL/MOL
REMARK 924 INTRA-LIGAND FREE ENERGY PREDICTED BY IDOCK:   -1.04 KCAL/MOL
REMARK 927      BINDING AFFINITY PREDICTED BY RF-SCORE:    0.00 PKD
ROOT
HETATM    1  O   UNL     1     -10.246   2.744  64.731  1.00  0.00    -0.368 OA 
HETATM    2  H   UNL     1     -11.192   2.670  64.777  1.00  0.00     0.000 HD 
HETATM    3  C   UNL     1      -9.833   4.083  64.481  1.00  0.00    -0.186 C  
ENDROOT
BRANCH   3   4
HETATM    4  C   UNL     1      -8.297   4.202  64.407  1.00  0.00    -0.101 C  
HETATM    5  O   UNL     1      -7.828   5.520  64.769  1.00  0.00    -0.093 OA 
HETATM    6  C   UNL     1      -7.902   5.834  66.174  1.00  0.00    -0.101 C  
HETATM    7  C   UNL     1      -7.078   4.794  66.985  1.00  0.00    -0.072 C  
HETATM    8  H   UNL     1      -9.042   2.213  67.132  1.00  0.00     0.000 HD 
HETATM    9  C   UNL     1      -7.517   3.355  66.683  1.00  0.00    -0.076 C  
HETATM   10  O   UNL     1      -5.664   4.896  66.711  1.00  0.00    -0.016 OA 
HETATM   11  H   UNL     1      -5.756   2.285  65.099  1.00  0.00     0.000 HD 
HETATM   12  C   UNL     1      -7.548   3.088  65.168  1.00  0.00    -0.080 C  
HETATM   13  H   UNL     1      -5.160   4.260  67.206  1.00  0.00     0.000 HD 
HETATM   14  O   UNL     1      -8.770   3.104  67.320  1.00  0.00    -0.105 OA 
HETATM   15  O   UNL     1      -6.217   2.971  64.630  1.00  0.00    -0.022 OA 
BRANCH   6  16
HETATM   16  O   UNL     1      -9.274   5.950  66.556  1.00  0.00    -0.137 OA 
BRANCH  16  17
HETATM   17  C   UNL     1      -9.688   6.999  67.323  1.00  0.00    -0.149 A  
HETATM   18  C   UNL     1     -10.713   7.986  69.253  1.00  0.00    -0.129 A  
HETATM   19  C   UNL     1     -10.741   9.227  68.626  1.00  0.00    -0.180 A  
HETATM   20  O   UNL     1     -11.255   7.891  70.503  1.00  0.00    -0.265 OA 
HETATM   21  C   UNL     1     -10.170   6.874  68.622  1.00  0.00    -0.181 A  
HETATM   22  H   UNL     1     -11.626   8.651  70.935  1.00  0.00     0.000 HD 
HETATM   23  C   UNL     1     -10.224   9.385  67.335  1.00  0.00    -0.298 A  
HETATM   24  C   UNL     1      -9.727   8.249  66.678  1.00  0.00    -0.321 A  
BRANCH  23  25
HETATM   25  C   UNL     1     -10.277  10.738  66.745  1.00  0.00    -0.279 C  
HETATM   26  C   UNL     1     -11.349  11.546  66.693  1.00  0.00    -0.285 C  
BRANCH  26  27
HETATM   27  C   UNL     1     -11.389  12.802  65.910  1.00  0.00    -0.363 A  
HETATM   28  C   UNL     1     -10.657  13.908  66.372  1.00  0.00    -0.280 A  
HETATM   29  C   UNL     1     -10.725  15.145  65.721  1.00  0.00    -0.359 A  
HETATM   30  C   UNL     1     -11.517  15.277  64.586  1.00  0.00    -0.354 A  
HETATM   31  C   UNL     1     -12.209  14.187  64.078  1.00  0.00    -0.369 A  
HETATM   32  O   UNL     1     -11.646  16.473  63.944  1.00  0.00    -1.598 OA 
HETATM   33  H   UNL     1     -12.187  16.564  63.168  1.00  0.00     0.000 HD 
HETATM   34  C   UNL     1     -12.141  12.952  64.733  1.00  0.00    -0.474 A  
ENDBRANCH  26  27
ENDBRANCH  23  25
ENDBRANCH  16  17
ENDBRANCH   6  16
ENDBRANCH   3   4
TORSDOF 5
ENDMDL
MODEL       82
REMARK 921   NORMALIZED FREE ENERGY PREDICTED BY IDOCK:   -5.56 KCAL/MOL
REMARK 922        TOTAL FREE ENERGY PREDICTED BY IDOCK:   -8.26 KCAL/MOL
REMARK 923 INTER-LIGAND FREE ENERGY PREDICTED BY IDOCK:   -7.85 KCAL/MOL
REMARK 924 INTRA-LIGAND FREE ENERGY PREDICTED BY IDOCK:   -0.41 KCAL/MOL
REMARK 927      BINDING AFFINITY PREDICTED BY RF-SCORE:    0.00 PKD
ROOT
HETATM    1  O   UNL     1     -10.979  12.098  63.026  1.00  0.00    -0.674 OA 
HETATM    2  H   UNL     1     -10.286  11.702  62.510  1.00  0.00     0.000 HD 
HETATM    3  C   UNL     1     -11.025  11.563  64.344  1.00  0.00    -0.324 C  
ENDROOT
BRANCH   3   4
HETATM    4  C   UNL     1     -12.150  12.206  65.181  1.00  0.00    -0.218 C  
HETATM    5  O   UNL     1     -12.004  11.944  66.595  1.00  0.00    -0.601 OA 
HETATM    6  C   UNL     1     -10.942  12.669  67.249  1.00  0.00    -0.256 C  
HETATM    7  C   UNL     1     -11.167  14.197  67.066  1.00  0.00    -0.318 C  
HETATM    8  H   UNL     1     -10.127  14.765  64.044  1.00  0.00     0.000 HD 
HETATM    9  C   UNL     1     -11.315  14.581  65.589  1.00  0.00    -0.336 C  
HETATM   10  O   UNL     1     -12.343  14.656  67.767  1.00  0.00    -0.602 OA 
HETATM   11  H   UNL     1     -13.836  14.992  65.106  1.00  0.00     0.000 HD 
HETATM   12  C   UNL     1     -12.367  13.705  64.887  1.00  0.00    -0.406 C  
HETATM   13  H   UNL     1     -12.480  15.589  67.656  1.00  0.00     0.000 HD 
HETATM   14  O   UNL     1     -10.034  14.527  64.959  1.00  0.00    -0.341 OA 
HETATM   15  O   UNL     1     -13.702  14.069  65.288  1.00  0.00    -0.258 OA 
BRANCH   6  16
HETATM   16  O   UNL     1      -9.685  12.180  66.779  1.00  0.00    -0.199 OA 
BRANCH  16  17
HETATM   17  C   UNL     1      -8.536  12.487  67.446  1.00  0.00    -0.181 A  
HETATM   18  C   UNL     1      -6.483  11.952  68.565  1.00  0.00    -0.057 A  
HETATM   19  C   UNL     1      -6.393  13.248  69.057  1.00  0.00    -0.098 A  
HETATM   20  O   UNL     1      -5.515  11.061  68.931  1.00  0.00    -0.041 OA 
HETATM   21  C   UNL     1      -7.535  11.568  67.742  1.00  0.00    -0.101 A  
HETATM   22  H   UNL     1      -4.796  11.323  69.493  1.00  0.00     0.000 HD 
HETATM   23  C   UNL     1      -7.366  14.202  68.739  1.00  0.00    -0.128 A  
HETATM   24  C   UNL     1      -8.457  13.798  67.954  1.00  0.00    -0.176 A  
BRANCH  23  25
HETATM   25  C   UNL     1      -7.189  15.561  69.290  1.00  0.00    -0.196 C  
HETATM   26  C   UNL     1      -6.243  16.448  68.940  1.00  0.00    -0.145 C  
BRANCH  26  27
HETATM   27  C   UNL     1      -5.997  17.712  69.672  1.00  0.00    -0.254 A  
HETATM   28  C   UNL     1      -5.333  17.656  70.908  1.00  0.00    -0.187 A  
HETATM   29  C   UNL     1      -5.149  18.806  71.684  1.00  0.00    -0.205 A  
HETATM   30  C   UNL     1      -5.616  20.029  71.215  1.00  0.00    -0.342 A  
HETATM   31  C   UNL     1      -6.228  20.121  69.973  1.00  0.00    -0.384 A  
HETATM   32  O   UNL     1      -5.496  21.168  71.956  1.00  0.00    -0.511 OA 
HETATM   33  H   UNL     1      -5.815  22.004  71.636  1.00  0.00     0.000 HD 
HETATM   34  C   UNL     1      -6.413  18.968  69.201  1.00  0.00    -0.315 A  
ENDBRANCH  26  27
ENDBRANCH  23  25
ENDBRANCH  16  17
ENDBRANCH   6  16
ENDBRANCH   3   4
TORSDOF 5
ENDMDL
MODEL       83
REMARK 921   NORMALIZED FREE ENERGY PREDICTED BY IDOCK:   -5.53 KCAL/MOL
REMARK 922        TOTAL FREE ENERGY PREDICTED BY IDOCK:   -8.23 KCAL/MOL
REMARK 923 INTER-LIGAND FREE ENERGY PREDICTED BY IDOCK:   -7.36 KCAL/MOL
REMARK 924 INTRA-LIGAND FREE ENERGY PREDICTED BY IDOCK:   -0.86 KCAL/MOL
REMARK 927      BINDING AFFINITY PREDICTED BY RF-SCORE:    0.00 PKD
ROOT
HETATM    1  O   UNL     1      -8.014   9.376  71.206  1.00  0.00    -0.328 OA 
HETATM    2  H   UNL     1      -7.408  10.071  71.434  1.00  0.00     0.000 HD 
HETATM    3  C   UNL     1      -8.859   9.747  70.123  1.00  0.00    -0.188 C  
ENDROOT
BRANCH   3   4
HETATM    4  C   UNL     1      -9.843   8.619  69.753  1.00  0.00    -0.183 C  
HETATM    5  O   UNL     1     -11.002   9.108  69.043  1.00  0.00    -0.143 OA 
HETATM    6  C   UNL     1     -10.764   9.507  67.678  1.00  0.00    -0.250 C  
HETATM    7  C   UNL     1     -10.184   8.306  66.878  1.00  0.00    -0.318 C  
HETATM    8  H   UNL     1      -7.056   8.251  67.744  1.00  0.00     0.000 HD 
HETATM    9  C   UNL     1      -8.931   7.725  67.545  1.00  0.00    -0.123 C  
HETATM   10  O   UNL     1     -11.148   7.241  66.733  1.00  0.00    -0.539 OA 
HETATM   11  H   UNL     1      -9.603   5.526  68.758  1.00  0.00     0.000 HD 
HETATM   12  C   UNL     1      -9.180   7.425  69.034  1.00  0.00    -0.146 C  
HETATM   13  H   UNL     1     -10.794   6.507  66.244  1.00  0.00     0.000 HD 
HETATM   14  O   UNL     1      -7.831   8.611  67.330  1.00  0.00    -0.097 OA 
HETATM   15  O   UNL     1     -10.012   6.261  69.201  1.00  0.00    -0.142 OA 
BRANCH   6  16
HETATM   16  O   UNL     1      -9.957  10.686  67.670  1.00  0.00    -0.164 OA 
BRANCH  16  17
HETATM   17  C   UNL     1     -10.482  11.876  67.259  1.00  0.00    -0.222 A  
HETATM   18  C   UNL     1     -11.945  13.246  65.943  1.00  0.00    -0.419 A  
HETATM   19  C   UNL     1     -11.237  14.385  66.309  1.00  0.00    -0.338 A  
HETATM   20  O   UNL     1     -12.989  13.396  65.074  1.00  0.00    -0.720 OA 
HETATM   21  C   UNL     1     -11.592  11.994  66.428  1.00  0.00    -0.381 A  
HETATM   22  H   UNL     1     -13.230  14.252  64.742  1.00  0.00     0.000 HD 
HETATM   23  C   UNL     1     -10.142  14.296  67.176  1.00  0.00    -0.254 A  
HETATM   24  C   UNL     1      -9.753  13.023  67.622  1.00  0.00    -0.212 A  
BRANCH  23  25
HETATM   25  C   UNL     1      -9.452  15.553  67.529  1.00  0.00    -0.208 C  
HETATM   26  C   UNL     1      -8.185  15.677  67.956  1.00  0.00    -0.146 C  
BRANCH  26  27
HETATM   27  C   UNL     1      -7.620  16.940  68.486  1.00  0.00    -0.221 A  
HETATM   28  C   UNL     1      -8.473  18.044  68.645  1.00  0.00    -0.277 A  
HETATM   29  C   UNL     1      -7.979  19.286  69.060  1.00  0.00    -0.299 A  
HETATM   30  C   UNL     1      -6.623  19.426  69.334  1.00  0.00    -0.329 A  
HETATM   31  C   UNL     1      -5.768  18.338  69.235  1.00  0.00    -0.224 A  
HETATM   32  O   UNL     1      -6.091  20.627  69.701  1.00  0.00    -0.327 OA 
HETATM   33  H   UNL     1      -5.165  20.723  69.888  1.00  0.00     0.000 HD 
HETATM   34  C   UNL     1      -6.265  17.097  68.818  1.00  0.00    -0.166 A  
ENDBRANCH  26  27
ENDBRANCH  23  25
ENDBRANCH  16  17
ENDBRANCH   6  16
ENDBRANCH   3   4
TORSDOF 5
ENDMDL
MODEL       84
REMARK 921   NORMALIZED FREE ENERGY PREDICTED BY IDOCK:   -5.53 KCAL/MOL
REMARK 922        TOTAL FREE ENERGY PREDICTED BY IDOCK:   -8.22 KCAL/MOL
REMARK 923 INTER-LIGAND FREE ENERGY PREDICTED BY IDOCK:   -7.10 KCAL/MOL
REMARK 924 INTRA-LIGAND FREE ENERGY PREDICTED BY IDOCK:   -1.12 KCAL/MOL
REMARK 927      BINDING AFFINITY PREDICTED BY RF-SCORE:    0.00 PKD
ROOT
HETATM    1  O   UNL     1     -12.348  15.707  68.805  1.00  0.00    -0.570 OA 
HETATM    2  H   UNL     1     -13.114  15.823  69.355  1.00  0.00     0.000 HD 
HETATM    3  C   UNL     1     -11.513  14.656  69.279  1.00  0.00    -0.291 C  
ENDROOT
BRANCH   3   4
HETATM    4  C   UNL     1     -10.269  14.467  68.386  1.00  0.00    -0.239 C  
HETATM    5  O   UNL     1      -9.769  13.112  68.416  1.00  0.00    -0.227 OA 
HETATM    6  C   UNL     1     -10.571  12.145  67.706  1.00  0.00    -0.204 C  
HETATM    7  C   UNL     1     -10.705  12.574  66.216  1.00  0.00    -0.260 C  
HETATM    8  H   UNL     1     -12.984  14.884  66.290  1.00  0.00     0.000 HD 
HETATM    9  C   UNL     1     -11.250  14.001  66.078  1.00  0.00    -0.310 C  
HETATM   10  O   UNL     1      -9.441  12.509  65.522  1.00  0.00    -0.437 OA 
HETATM   11  H   UNL     1      -9.266  15.574  65.492  1.00  0.00     0.000 HD 
HETATM   12  C   UNL     1     -10.452  14.990  66.946  1.00  0.00    -0.279 C  
HETATM   13  H   UNL     1      -9.522  12.771  64.612  1.00  0.00     0.000 HD 
HETATM   14  O   UNL     1     -12.647  14.000  66.375  1.00  0.00    -0.428 OA 
HETATM   15  O   UNL     1      -9.154  15.252  66.379  1.00  0.00    -0.276 OA 
BRANCH   6  16
HETATM   16  O   UNL     1     -11.808  11.965  68.398  1.00  0.00    -0.329 OA 
BRANCH  16  17
HETATM   17  C   UNL     1     -11.934  10.979  69.332  1.00  0.00    -0.337 A  
HETATM   18  C   UNL     1     -12.700  10.066  71.413  1.00  0.00    -0.415 A  
HETATM   19  C   UNL     1     -11.847   8.978  71.270  1.00  0.00    -0.379 A  
HETATM   20  O   UNL     1     -13.456  10.141  72.549  1.00  0.00    -0.614 OA 
HETATM   21  C   UNL     1     -12.769  11.058  70.443  1.00  0.00    -0.297 A  
HETATM   22  H   UNL     1     -13.409   9.463  73.212  1.00  0.00     0.000 HD 
HETATM   23  C   UNL     1     -11.029   8.857  70.142  1.00  0.00    -0.245 A  
HETATM   24  C   UNL     1     -11.058   9.887  69.189  1.00  0.00    -0.197 A  
BRANCH  23  25
HETATM   25  C   UNL     1     -10.162   7.663  70.058  1.00  0.00    -0.213 C  
HETATM   26  C   UNL     1      -8.945   7.519  70.607  1.00  0.00    -0.154 C  
BRANCH  26  27
HETATM   27  C   UNL     1      -8.047   6.378  70.315  1.00  0.00    -0.120 A  
HETATM   28  C   UNL     1      -6.841   6.271  71.026  1.00  0.00    -0.066 A  
HETATM   29  C   UNL     1      -5.914   5.264  70.734  1.00  0.00    -0.021 A  
HETATM   30  C   UNL     1      -6.200   4.343  69.732  1.00  0.00    -0.027 A  
HETATM   31  C   UNL     1      -7.407   4.394  69.050  1.00  0.00    -0.055 A  
HETATM   32  O   UNL     1      -5.309   3.370  69.385  1.00  0.00    -0.011 OA 
HETATM   33  H   UNL     1      -5.503   2.740  68.701  1.00  0.00     0.000 HD 
HETATM   34  C   UNL     1      -8.330   5.404  69.344  1.00  0.00    -0.096 A  
ENDBRANCH  26  27
ENDBRANCH  23  25
ENDBRANCH  16  17
ENDBRANCH   6  16
ENDBRANCH   3   4
TORSDOF 5
ENDMDL
MODEL       85
REMARK 921   NORMALIZED FREE ENERGY PREDICTED BY IDOCK:   -5.47 KCAL/MOL
REMARK 922        TOTAL FREE ENERGY PREDICTED BY IDOCK:   -8.15 KCAL/MOL
REMARK 923 INTER-LIGAND FREE ENERGY PREDICTED BY IDOCK:   -7.10 KCAL/MOL
REMARK 924 INTRA-LIGAND FREE ENERGY PREDICTED BY IDOCK:   -1.04 KCAL/MOL
REMARK 927      BINDING AFFINITY PREDICTED BY RF-SCORE:    0.00 PKD
ROOT
HETATM    1  O   UNL     1      -6.086   9.716  68.179  1.00  0.00    -0.053 OA 
HETATM    2  H   UNL     1      -5.604  10.528  68.074  1.00  0.00     0.000 HD 
HETATM    3  C   UNL     1      -5.862   8.826  67.091  1.00  0.00    -0.043 C  
ENDROOT
BRANCH   3   4
HETATM    4  C   UNL     1      -6.645   7.507  67.262  1.00  0.00    -0.062 C  
HETATM    5  O   UNL     1      -8.049   7.729  67.519  1.00  0.00    -0.120 OA 
HETATM    6  C   UNL     1      -8.819   8.176  66.384  1.00  0.00    -0.155 C  
HETATM    7  C   UNL     1      -8.702   7.137  65.233  1.00  0.00     0.096 C  
HETATM    8  H   UNL     1      -5.801   7.776  63.922  1.00  0.00     0.000 HD 
HETATM    9  C   UNL     1      -7.239   6.847  64.871  1.00  0.00    -0.078 C  
HETATM   10  O   UNL     1      -9.335   5.885  65.572  1.00  0.00    -0.361 OA 
HETATM   11  H   UNL     1      -6.589   4.549  65.899  1.00  0.00     0.000 HD 
HETATM   12  C   UNL     1      -6.414   6.494  66.121  1.00  0.00    -0.043 C  
HETATM   13  H   UNL     1      -9.263   5.249  64.870  1.00  0.00     0.000 HD 
HETATM   14  O   UNL     1      -6.707   7.956  64.145  1.00  0.00    -0.060 OA 
HETATM   15  O   UNL     1      -6.732   5.174  66.601  1.00  0.00    -0.057 OA 
BRANCH   6  16
HETATM   16  O   UNL     1      -8.420   9.505  66.043  1.00  0.00    -0.120 OA 
BRANCH  16  17
HETATM   17  C   UNL     1      -9.341  10.511  66.009  1.00  0.00    -0.178 A  
HETATM   18  C   UNL     1     -10.484  12.354  64.985  1.00  0.00    -0.294 A  
HETATM   19  C   UNL     1     -11.048  12.705  66.206  1.00  0.00    -0.330 A  
HETATM   20  O   UNL     1     -10.760  13.142  63.904  1.00  0.00    -0.501 OA 
HETATM   21  C   UNL     1      -9.650  11.249  64.871  1.00  0.00    -0.266 A  
HETATM   22  H   UNL     1     -11.330  13.898  63.982  1.00  0.00     0.000 HD 
HETATM   23  C   UNL     1     -10.784  11.954  67.357  1.00  0.00    -0.271 A  
HETATM   24  C   UNL     1      -9.898  10.871  67.251  1.00  0.00    -0.202 A  
BRANCH  23  25
HETATM   25  C   UNL     1     -11.435  12.383  68.611  1.00  0.00    -0.348 C  
HETATM   26  C   UNL     1     -11.922  13.606  68.881  1.00  0.00    -0.392 C  
BRANCH  26  27
HETATM   27  C   UNL     1     -12.376  14.026  70.227  1.00  0.00    -0.425 A  
HETATM   28  C   UNL     1     -12.312  15.387  70.565  1.00  0.00    -0.452 A  
HETATM   29  C   UNL     1     -12.646  15.831  71.849  1.00  0.00    -0.522 A  
HETATM   30  C   UNL     1     -13.065  14.910  72.803  1.00  0.00    -0.462 A  
HETATM   31  C   UNL     1     -13.187  13.567  72.480  1.00  0.00    -0.551 A  
HETATM   32  O   UNL     1     -13.360  15.292  74.079  1.00  0.00    -0.502 OA 
HETATM   33  H   UNL     1     -13.647  14.663  74.731  1.00  0.00     0.000 HD 
HETATM   34  C   UNL     1     -12.849  13.126  71.195  1.00  0.00    -0.349 A  
ENDBRANCH  26  27
ENDBRANCH  23  25
ENDBRANCH  16  17
ENDBRANCH   6  16
ENDBRANCH   3   4
TORSDOF 5
ENDMDL
MODEL       86
REMARK 921   NORMALIZED FREE ENERGY PREDICTED BY IDOCK:   -5.47 KCAL/MOL
REMARK 922        TOTAL FREE ENERGY PREDICTED BY IDOCK:   -8.14 KCAL/MOL
REMARK 923 INTER-LIGAND FREE ENERGY PREDICTED BY IDOCK:   -7.13 KCAL/MOL
REMARK 924 INTRA-LIGAND FREE ENERGY PREDICTED BY IDOCK:   -1.01 KCAL/MOL
REMARK 927      BINDING AFFINITY PREDICTED BY RF-SCORE:    0.00 PKD
ROOT
HETATM    1  O   UNL     1      -7.214  18.147  66.166  1.00  0.00    -0.246 OA 
HETATM    2  H   UNL     1      -6.403  17.928  65.723  1.00  0.00     0.000 HD 
HETATM    3  C   UNL     1      -8.258  17.239  65.834  1.00  0.00     0.008 C  
ENDROOT
BRANCH   3   4
HETATM    4  C   UNL     1      -9.576  17.595  66.553  1.00  0.00    -0.292 C  
HETATM    5  O   UNL     1     -10.452  16.455  66.694  1.00  0.00    -0.295 OA 
HETATM    6  C   UNL     1     -10.042  15.481  67.676  1.00  0.00    -0.243 C  
HETATM    7  C   UNL     1      -9.919  16.165  69.067  1.00  0.00    -0.242 C  
HETATM    8  H   UNL     1      -7.057  17.690  68.916  1.00  0.00     0.000 HD 
HETATM    9  C   UNL     1      -8.987  17.383  69.026  1.00  0.00    -0.062 C  
HETATM   10  O   UNL     1     -11.201  16.600  69.568  1.00  0.00    -0.304 OA 
HETATM   11  H   UNL     1     -10.456  19.528  69.022  1.00  0.00     0.000 HD 
HETATM   12  C   UNL     1      -9.374  18.343  67.887  1.00  0.00    -0.280 C  
HETATM   13  H   UNL     1     -11.126  17.018  70.418  1.00  0.00     0.000 HD 
HETATM   14  O   UNL     1      -7.634  16.935  68.943  1.00  0.00    -0.227 OA 
HETATM   15  O   UNL     1     -10.580  19.067  68.201  1.00  0.00    -0.354 OA 
BRANCH   6  16
HETATM   16  O   UNL     1      -8.859  14.824  67.217  1.00  0.00    -0.182 OA 
BRANCH  16  17
HETATM   17  C   UNL     1      -8.565  13.563  67.643  1.00  0.00    -0.185 A  
HETATM   18  C   UNL     1      -7.182  11.610  67.807  1.00  0.00    -0.101 A  
HETATM   19  C   UNL     1      -8.242  10.882  68.335  1.00  0.00    -0.133 A  
HETATM   20  O   UNL     1      -5.999  10.958  67.603  1.00  0.00    -0.043 OA 
HETATM   21  C   UNL     1      -7.325  12.953  67.481  1.00  0.00    -0.154 A  
HETATM   22  H   UNL     1      -5.901  10.041  67.826  1.00  0.00     0.000 HD 
HETATM   23  C   UNL     1      -9.487  11.485  68.545  1.00  0.00    -0.175 A  
HETATM   24  C   UNL     1      -9.646  12.826  68.163  1.00  0.00    -0.223 A  
BRANCH  23  25
HETATM   25  C   UNL     1     -10.558  10.647  69.123  1.00  0.00    -0.256 C  
HETATM   26  C   UNL     1     -10.640  10.220  70.394  1.00  0.00    -0.212 C  
BRANCH  26  27
HETATM   27  C   UNL     1     -11.628   9.219  70.857  1.00  0.00    -0.364 A  
HETATM   28  C   UNL     1     -12.881   9.666  71.307  1.00  0.00    -0.438 A  
HETATM   29  C   UNL     1     -13.821   8.774  71.835  1.00  0.00    -0.491 A  
HETATM   30  C   UNL     1     -13.516   7.419  71.902  1.00  0.00    -0.229 A  
HETATM   31  C   UNL     1     -12.306   6.944  71.417  1.00  0.00    -0.421 A  
HETATM   32  O   UNL     1     -14.385   6.520  72.447  1.00  0.00    -0.701 OA 
HETATM   33  H   UNL     1     -14.177   5.594  72.493  1.00  0.00     0.000 HD 
HETATM   34  C   UNL     1     -11.367   7.839  70.891  1.00  0.00    -0.288 A  
ENDBRANCH  26  27
ENDBRANCH  23  25
ENDBRANCH  16  17
ENDBRANCH   6  16
ENDBRANCH   3   4
TORSDOF 5
ENDMDL
MODEL       87
REMARK 921   NORMALIZED FREE ENERGY PREDICTED BY IDOCK:   -5.45 KCAL/MOL
REMARK 922        TOTAL FREE ENERGY PREDICTED BY IDOCK:   -8.13 KCAL/MOL
REMARK 923 INTER-LIGAND FREE ENERGY PREDICTED BY IDOCK:   -6.95 KCAL/MOL
REMARK 924 INTRA-LIGAND FREE ENERGY PREDICTED BY IDOCK:   -1.18 KCAL/MOL
REMARK 927      BINDING AFFINITY PREDICTED BY RF-SCORE:    0.00 PKD
ROOT
HETATM    1  O   UNL     1      -9.555   5.104  66.956  1.00  0.00    -0.130 OA 
HETATM    2  H   UNL     1      -9.475   4.284  67.430  1.00  0.00     0.000 HD 
HETATM    3  C   UNL     1      -8.315   5.508  66.388  1.00  0.00    -0.111 C  
ENDROOT
BRANCH   3   4
HETATM    4  C   UNL     1      -8.445   6.839  65.619  1.00  0.00    -0.138 C  
HETATM    5  O   UNL     1      -9.252   7.807  66.325  1.00  0.00    -0.178 OA 
HETATM    6  C   UNL     1      -8.628   8.401  67.482  1.00  0.00    -0.129 C  
HETATM    7  C   UNL     1      -7.305   9.100  67.058  1.00  0.00    -0.090 C  
HETATM    8  H   UNL     1      -5.200   6.643  66.787  1.00  0.00     0.000 HD 
HETATM    9  C   UNL     1      -6.366   8.142  66.313  1.00  0.00    -0.046 C  
HETATM   10  O   UNL     1      -7.546  10.240  66.207  1.00  0.00    -0.106 OA 
HETATM   11  H   UNL     1      -6.498   8.687  63.775  1.00  0.00     0.000 HD 
HETATM   12  C   UNL     1      -7.095   7.429  65.161  1.00  0.00    -0.064 C  
HETATM   13  H   UNL     1      -6.738  10.667  65.948  1.00  0.00     0.000 HD 
HETATM   14  O   UNL     1      -5.780   7.236  67.249  1.00  0.00    -0.027 OA 
HETATM   15  O   UNL     1      -7.330   8.324  64.057  1.00  0.00    -0.093 OA 
BRANCH   6  16
HETATM   16  O   UNL     1      -8.491   7.409  68.500  1.00  0.00    -0.125 OA 
BRANCH  16  17
HETATM   17  C   UNL     1      -9.338   7.399  69.568  1.00  0.00    -0.156 A  
HETATM   18  C   UNL     1     -10.621   6.335  71.293  1.00  0.00    -0.236 A  
HETATM   19  C   UNL     1     -11.306   7.519  71.538  1.00  0.00    -0.283 A  
HETATM   20  O   UNL     1     -10.973   5.231  72.018  1.00  0.00    -0.208 OA 
HETATM   21  C   UNL     1      -9.622   6.269  70.330  1.00  0.00    -0.183 A  
HETATM   22  H   UNL     1     -11.655   5.276  72.676  1.00  0.00     0.000 HD 
HETATM   23  C   UNL     1     -11.010   8.678  70.813  1.00  0.00    -0.286 A  
HETATM   24  C   UNL     1     -10.040   8.596  69.802  1.00  0.00    -0.199 A  
BRANCH  23  25
HETATM   25  C   UNL     1     -11.773   9.899  71.144  1.00  0.00    -0.478 C  
HETATM   26  C   UNL     1     -11.792  11.044  70.442  1.00  0.00    -0.460 C  
BRANCH  26  27
HETATM   27  C   UNL     1     -12.414  12.294  70.935  1.00  0.00    -0.371 A  
HETATM   28  C   UNL     1     -12.130  13.497  70.269  1.00  0.00    -0.425 A  
HETATM   29  C   UNL     1     -12.620  14.720  70.741  1.00  0.00    -0.412 A  
HETATM   30  C   UNL     1     -13.416  14.743  71.880  1.00  0.00    -0.371 A  
HETATM   31  C   UNL     1     -13.757  13.564  72.527  1.00  0.00    -0.664 A  
HETATM   32  O   UNL     1     -13.882  15.916  72.399  1.00  0.00    -0.467 OA 
HETATM   33  H   UNL     1     -14.426  15.932  73.178  1.00  0.00     0.000 HD 
HETATM   34  C   UNL     1     -13.262  12.343  72.054  1.00  0.00    -0.514 A  
ENDBRANCH  26  27
ENDBRANCH  23  25
ENDBRANCH  16  17
ENDBRANCH   6  16
ENDBRANCH   3   4
TORSDOF 5
ENDMDL
MODEL       88
REMARK 921   NORMALIZED FREE ENERGY PREDICTED BY IDOCK:   -5.34 KCAL/MOL
REMARK 922        TOTAL FREE ENERGY PREDICTED BY IDOCK:   -7.98 KCAL/MOL
REMARK 923 INTER-LIGAND FREE ENERGY PREDICTED BY IDOCK:   -7.09 KCAL/MOL
REMARK 924 INTRA-LIGAND FREE ENERGY PREDICTED BY IDOCK:   -0.90 KCAL/MOL
REMARK 927      BINDING AFFINITY PREDICTED BY RF-SCORE:    0.00 PKD
ROOT
HETATM    1  O   UNL     1      -9.462   9.307  64.504  1.00  0.00    -0.426 OA 
HETATM    2  H   UNL     1     -10.127   9.729  63.973  1.00  0.00     0.000 HD 
HETATM    3  C   UNL     1      -9.508   9.748  65.856  1.00  0.00    -0.226 C  
ENDROOT
BRANCH   3   4
HETATM    4  C   UNL     1      -8.427   9.063  66.717  1.00  0.00    -0.119 C  
HETATM    5  O   UNL     1      -8.241   9.717  67.992  1.00  0.00    -0.108 OA 
HETATM    6  C   UNL     1      -9.300   9.512  68.949  1.00  0.00    -0.149 C  
HETATM    7  C   UNL     1      -9.475   7.990  69.214  1.00  0.00    -0.155 C  
HETATM    8  H   UNL     1     -11.166   6.958  66.642  1.00  0.00     0.000 HD 
HETATM    9  C   UNL     1      -9.700   7.205  67.915  1.00  0.00    -0.138 C  
HETATM   10  O   UNL     1      -8.329   7.425  69.885  1.00  0.00    -0.130 OA 
HETATM   11  H   UNL     1      -7.479   6.001  67.300  1.00  0.00     0.000 HD 
HETATM   12  C   UNL     1      -8.623   7.540  66.868  1.00  0.00    -0.124 C  
HETATM   13  H   UNL     1      -8.435   6.495  70.046  1.00  0.00     0.000 HD 
HETATM   14  O   UNL     1     -11.028   7.444  67.446  1.00  0.00    -0.243 OA 
HETATM   15  O   UNL     1      -7.359   6.940  67.208  1.00  0.00    -0.086 OA 
BRANCH   6  16
HETATM   16  O   UNL     1     -10.475  10.188  68.497  1.00  0.00    -0.177 OA 
BRANCH  16  17
HETATM   17  C   UNL     1     -10.874  11.347  69.095  1.00  0.00    -0.213 A  
HETATM   18  C   UNL     1     -12.297  12.670  70.501  1.00  0.00    -0.268 A  
HETATM   19  C   UNL     1     -11.740  13.838  69.995  1.00  0.00    -0.327 A  
HETATM   20  O   UNL     1     -13.304  12.786  71.416  1.00  0.00    -0.231 OA 
HETATM   21  C   UNL     1     -11.857  11.422  70.077  1.00  0.00    -0.440 A  
HETATM   22  H   UNL     1     -13.605  13.639  71.706  1.00  0.00     0.000 HD 
HETATM   23  C   UNL     1     -10.722  13.787  69.037  1.00  0.00    -0.209 A  
HETATM   24  C   UNL     1     -10.317  12.528  68.568  1.00  0.00    -0.233 A  
BRANCH  23  25
HETATM   25  C   UNL     1     -10.173  15.073  68.561  1.00  0.00    -0.227 C  
HETATM   26  C   UNL     1     -10.850  16.048  67.932  1.00  0.00    -0.333 C  
BRANCH  26  27
HETATM   27  C   UNL     1     -10.200  17.220  67.302  1.00  0.00    -0.320 A  
HETATM   28  C   UNL     1      -8.845  17.128  66.946  1.00  0.00    -0.255 A  
HETATM   29  C   UNL     1      -8.157  18.230  66.427  1.00  0.00    -0.285 A  
HETATM   30  C   UNL     1      -8.830  19.433  66.246  1.00  0.00    -0.351 A  
HETATM   31  C   UNL     1     -10.181  19.536  66.540  1.00  0.00    -0.568 A  
HETATM   32  O   UNL     1      -8.188  20.544  65.782  1.00  0.00    -0.522 OA 
HETATM   33  H   UNL     1      -8.648  21.367  65.658  1.00  0.00     0.000 HD 
HETATM   34  C   UNL     1     -10.867  18.433  67.062  1.00  0.00    -0.222 A  
ENDBRANCH  26  27
ENDBRANCH  23  25
ENDBRANCH  16  17
ENDBRANCH   6  16
ENDBRANCH   3   4
TORSDOF 5
ENDMDL
MODEL       89
REMARK 921   NORMALIZED FREE ENERGY PREDICTED BY IDOCK:   -5.32 KCAL/MOL
REMARK 922        TOTAL FREE ENERGY PREDICTED BY IDOCK:   -7.96 KCAL/MOL
REMARK 923 INTER-LIGAND FREE ENERGY PREDICTED BY IDOCK:   -6.96 KCAL/MOL
REMARK 924 INTRA-LIGAND FREE ENERGY PREDICTED BY IDOCK:   -0.99 KCAL/MOL
REMARK 927      BINDING AFFINITY PREDICTED BY RF-SCORE:    0.00 PKD
ROOT
HETATM    1  O   UNL     1     -11.079  14.211  64.179  1.00  0.00    -0.596 OA 
HETATM    2  H   UNL     1     -11.516  13.610  63.587  1.00  0.00     0.000 HD 
HETATM    3  C   UNL     1     -11.808  14.382  65.390  1.00  0.00    -0.366 C  
ENDROOT
BRANCH   3   4
HETATM    4  C   UNL     1     -11.098  15.357  66.351  1.00  0.00    -0.230 C  
HETATM    5  O   UNL     1     -11.564  15.228  67.712  1.00  0.00    -0.335 OA 
HETATM    6  C   UNL     1     -11.122  14.041  68.403  1.00  0.00    -0.253 C  
HETATM    7  C   UNL     1      -9.567  13.999  68.423  1.00  0.00    -0.222 C  
HETATM    8  H   UNL     1      -8.795  12.944  65.452  1.00  0.00     0.000 HD 
HETATM    9  C   UNL     1      -8.973  14.111  67.013  1.00  0.00    -0.237 C  
HETATM   10  O   UNL     1      -9.010  15.060  69.228  1.00  0.00    -0.289 OA 
HETATM   11  H   UNL     1      -8.079  16.531  66.699  1.00  0.00     0.000 HD 
HETATM   12  C   UNL     1      -9.558  15.316  66.255  1.00  0.00    -0.303 C  
HETATM   13  H   UNL     1      -8.061  15.035  69.240  1.00  0.00     0.000 HD 
HETATM   14  O   UNL     1      -9.162  12.873  66.325  1.00  0.00    -0.190 OA 
HETATM   15  O   UNL     1      -9.027  16.557  66.758  1.00  0.00    -0.206 OA 
BRANCH   6  16
HETATM   16  O   UNL     1     -11.752  12.899  67.820  1.00  0.00    -0.330 OA 
BRANCH  16  17
HETATM   17  C   UNL     1     -11.597  11.666  68.383  1.00  0.00    -0.312 A  
HETATM   18  C   UNL     1     -11.390  10.150  70.229  1.00  0.00    -0.315 A  
HETATM   19  C   UNL     1     -10.971   9.137  69.373  1.00  0.00    -0.108 A  
HETATM   20  O   UNL     1     -11.442   9.875  71.566  1.00  0.00    -0.365 OA 
HETATM   21  C   UNL     1     -11.726  11.407  69.744  1.00  0.00    -0.418 A  
HETATM   22  H   UNL     1     -11.212   9.016  71.898  1.00  0.00     0.000 HD 
HETATM   23  C   UNL     1     -10.873   9.363  67.996  1.00  0.00    -0.197 A  
HETATM   24  C   UNL     1     -11.159  10.649  67.514  1.00  0.00    -0.367 A  
BRANCH  23  25
HETATM   25  C   UNL     1     -10.436   8.231  67.153  1.00  0.00    -0.386 C  
HETATM   26  C   UNL     1      -9.200   7.707  67.096  1.00  0.00    -0.158 C  
BRANCH  26  27
HETATM   27  C   UNL     1      -8.781   6.710  66.085  1.00  0.00    -0.154 A  
HETATM   28  C   UNL     1      -8.241   7.167  64.872  1.00  0.00    -0.073 A  
HETATM   29  C   UNL     1      -7.907   6.275  63.846  1.00  0.00    -0.112 A  
HETATM   30  C   UNL     1      -8.098   4.912  64.037  1.00  0.00    -0.116 A  
HETATM   31  C   UNL     1      -8.580   4.429  65.246  1.00  0.00    -0.124 A  
HETATM   32  O   UNL     1      -7.825   4.010  63.051  1.00  0.00    -0.067 OA 
HETATM   33  H   UNL     1      -7.955   3.078  63.181  1.00  0.00     0.000 HD 
HETATM   34  C   UNL     1      -8.915   5.324  66.269  1.00  0.00    -0.133 A  
ENDBRANCH  26  27
ENDBRANCH  23  25
ENDBRANCH  16  17
ENDBRANCH   6  16
ENDBRANCH   3   4
TORSDOF 5
ENDMDL
MODEL       90
REMARK 921   NORMALIZED FREE ENERGY PREDICTED BY IDOCK:   -5.26 KCAL/MOL
REMARK 922        TOTAL FREE ENERGY PREDICTED BY IDOCK:   -7.88 KCAL/MOL
REMARK 923 INTER-LIGAND FREE ENERGY PREDICTED BY IDOCK:   -6.95 KCAL/MOL
REMARK 924 INTRA-LIGAND FREE ENERGY PREDICTED BY IDOCK:   -0.93 KCAL/MOL
REMARK 927      BINDING AFFINITY PREDICTED BY RF-SCORE:    0.00 PKD
ROOT
HETATM    1  O   UNL     1      -8.450  18.173  66.217  1.00  0.00    -0.383 OA 
HETATM    2  H   UNL     1      -8.948  18.331  65.423  1.00  0.00     0.000 HD 
HETATM    3  C   UNL     1      -9.297  17.886  67.323  1.00  0.00    -0.258 C  
ENDROOT
BRANCH   3   4
HETATM    4  C   UNL     1      -8.488  17.631  68.611  1.00  0.00    -0.266 C  
HETATM    5  O   UNL     1      -9.159  16.723  69.513  1.00  0.00     0.014 OA 
HETATM    6  C   UNL     1      -9.164  15.340  69.103  1.00  0.00    -0.234 C  
HETATM    7  C   UNL     1      -7.700  14.845  68.925  1.00  0.00    -0.148 C  
HETATM    8  H   UNL     1      -6.839  16.034  66.030  1.00  0.00     0.000 HD 
HETATM    9  C   UNL     1      -6.906  15.738  67.964  1.00  0.00    -0.129 C  
HETATM   10  O   UNL     1      -6.991  14.799  70.181  1.00  0.00    -0.296 OA 
HETATM   11  H   UNL     1      -5.343  17.261  69.375  1.00  0.00     0.000 HD 
HETATM   12  C   UNL     1      -7.023  17.222  68.356  1.00  0.00    -0.202 C  
HETATM   13  H   UNL     1      -6.097  14.497  70.073  1.00  0.00     0.000 HD 
HETATM   14  O   UNL     1      -7.331  15.480  66.624  1.00  0.00    -0.104 OA 
HETATM   15  O   UNL     1      -6.246  17.513  69.533  1.00  0.00    -0.238 OA 
BRANCH   6  16
HETATM   16  O   UNL     1      -9.996  15.199  67.950  1.00  0.00    -0.219 OA 
BRANCH  16  17
HETATM   17  C   UNL     1     -10.558  13.992  67.653  1.00  0.00    -0.249 A  
HETATM   18  C   UNL     1     -11.956  12.521  66.375  1.00  0.00    -0.318 A  
HETATM   19  C   UNL     1     -11.858  11.544  67.359  1.00  0.00    -0.108 A  
HETATM   20  O   UNL     1     -12.740  12.256  65.288  1.00  0.00    -0.543 OA 
HETATM   21  C   UNL     1     -11.294  13.736  66.500  1.00  0.00    -0.336 A  
HETATM   22  H   UNL     1     -13.192  11.425  65.202  1.00  0.00     0.000 HD 
HETATM   23  C   UNL     1     -11.091  11.764  68.509  1.00  0.00    -0.288 A  
HETATM   24  C   UNL     1     -10.468  13.012  68.659  1.00  0.00    -0.236 A  
BRANCH  23  25
HETATM   25  C   UNL     1     -11.025  10.671  69.500  1.00  0.00    -0.321 C  
HETATM   26  C   UNL     1     -10.603   9.415  69.278  1.00  0.00    -0.239 C  
BRANCH  26  27
HETATM   27  C   UNL     1     -10.754   8.316  70.259  1.00  0.00    -0.237 A  
HETATM   28  C   UNL     1     -11.732   8.436  71.260  1.00  0.00    -0.325 A  
HETATM   29  C   UNL     1     -11.863   7.471  72.264  1.00  0.00    -0.331 A  
HETATM   30  C   UNL     1     -11.020   6.365  72.263  1.00  0.00    -0.254 A  
HETATM   31  C   UNL     1     -10.081   6.195  71.256  1.00  0.00    -0.227 A  
HETATM   32  O   UNL     1     -11.084   5.420  73.245  1.00  0.00    -0.286 OA 
HETATM   33  H   UNL     1     -10.509   4.664  73.245  1.00  0.00     0.000 HD 
HETATM   34  C   UNL     1      -9.951   7.164  70.255  1.00  0.00    -0.191 A  
ENDBRANCH  26  27
ENDBRANCH  23  25
ENDBRANCH  16  17
ENDBRANCH   6  16
ENDBRANCH   3   4
TORSDOF 5
ENDMDL
MODEL       91
REMARK 921   NORMALIZED FREE ENERGY PREDICTED BY IDOCK:   -5.25 KCAL/MOL
REMARK 922        TOTAL FREE ENERGY PREDICTED BY IDOCK:   -7.86 KCAL/MOL
REMARK 923 INTER-LIGAND FREE ENERGY PREDICTED BY IDOCK:   -6.75 KCAL/MOL
REMARK 924 INTRA-LIGAND FREE ENERGY PREDICTED BY IDOCK:   -1.11 KCAL/MOL
REMARK 927      BINDING AFFINITY PREDICTED BY RF-SCORE:    0.00 PKD
ROOT
HETATM    1  O   UNL     1      -8.519  10.444  62.882  1.00  0.00    -0.160 OA 
HETATM    2  H   UNL     1      -9.183  10.447  62.201  1.00  0.00     0.000 HD 
HETATM    3  C   UNL     1      -8.650   9.317  63.741  1.00  0.00    -0.192 C  
ENDROOT
BRANCH   3   4
HETATM    4  C   UNL     1      -7.574   9.312  64.845  1.00  0.00    -0.108 C  
HETATM    5  O   UNL     1      -7.361  10.624  65.413  1.00  0.00    -0.116 OA 
HETATM    6  C   UNL     1      -8.413  11.098  66.278  1.00  0.00    -0.168 C  
HETATM    7  C   UNL     1      -8.615  10.096  67.450  1.00  0.00    -0.122 C  
HETATM    8  H   UNL     1     -10.354   7.702  66.116  1.00  0.00     0.000 HD 
HETATM    9  C   UNL     1      -8.869   8.670  66.946  1.00  0.00    -0.132 C  
HETATM   10  O   UNL     1      -7.473  10.062  68.331  1.00  0.00    -0.080 OA 
HETATM   11  H   UNL     1      -6.680   7.301  67.247  1.00  0.00     0.000 HD 
HETATM   12  C   UNL     1      -7.798   8.238  65.930  1.00  0.00    -0.093 C  
HETATM   13  H   UNL     1      -7.595   9.450  69.047  1.00  0.00     0.000 HD 
HETATM   14  O   UNL     1     -10.198   8.585  66.428  1.00  0.00    -0.273 OA 
HETATM   15  O   UNL     1      -6.542   7.963  66.579  1.00  0.00    -0.052 OA 
BRANCH   6  16
HETATM   16  O   UNL     1      -9.580  11.358  65.494  1.00  0.00    -0.218 OA 
BRANCH  16  17
HETATM   17  C   UNL     1     -10.312  12.488  65.707  1.00  0.00    -0.265 A  
HETATM   18  C   UNL     1     -12.317  13.803  65.638  1.00  0.00    -0.482 A  
HETATM   19  C   UNL     1     -11.592  14.955  65.921  1.00  0.00    -0.228 A  
HETATM   20  O   UNL     1     -13.661  13.930  65.429  1.00  0.00    -0.571 OA 
HETATM   21  C   UNL     1     -11.693  12.565  65.552  1.00  0.00    -0.457 A  
HETATM   22  H   UNL     1     -14.087  14.776  65.488  1.00  0.00     0.000 HD 
HETATM   23  C   UNL     1     -10.208  14.896  66.122  1.00  0.00    -0.314 A  
HETATM   24  C   UNL     1      -9.572  13.653  65.979  1.00  0.00    -0.186 A  
BRANCH  23  25
HETATM   25  C   UNL     1      -9.513  16.162  66.433  1.00  0.00    -0.323 C  
HETATM   26  C   UNL     1      -8.231  16.298  66.809  1.00  0.00    -0.294 C  
BRANCH  26  27
HETATM   27  C   UNL     1      -7.655  17.570  67.302  1.00  0.00    -0.217 A  
HETATM   28  C   UNL     1      -6.456  18.032  66.733  1.00  0.00    -0.218 A  
HETATM   29  C   UNL     1      -5.821  19.181  67.216  1.00  0.00    -0.174 A  
HETATM   30  C   UNL     1      -6.394  19.888  68.268  1.00  0.00    -0.260 A  
HETATM   31  C   UNL     1      -7.604  19.483  68.813  1.00  0.00    -0.386 A  
HETATM   32  O   UNL     1      -5.789  20.989  68.798  1.00  0.00    -0.349 OA 
HETATM   33  H   UNL     1      -6.180  21.473  69.516  1.00  0.00     0.000 HD 
HETATM   34  C   UNL     1      -8.236  18.332  68.329  1.00  0.00    -0.312 A  
ENDBRANCH  26  27
ENDBRANCH  23  25
ENDBRANCH  16  17
ENDBRANCH   6  16
ENDBRANCH   3   4
TORSDOF 5
ENDMDL
MODEL       92
REMARK 921   NORMALIZED FREE ENERGY PREDICTED BY IDOCK:   -5.20 KCAL/MOL
REMARK 922        TOTAL FREE ENERGY PREDICTED BY IDOCK:   -7.81 KCAL/MOL
REMARK 923 INTER-LIGAND FREE ENERGY PREDICTED BY IDOCK:   -6.87 KCAL/MOL
REMARK 924 INTRA-LIGAND FREE ENERGY PREDICTED BY IDOCK:   -0.94 KCAL/MOL
REMARK 927      BINDING AFFINITY PREDICTED BY RF-SCORE:    0.00 PKD
ROOT
HETATM    1  O   UNL     1      -6.968  16.955  68.748  1.00  0.00    -0.181 OA 
HETATM    2  H   UNL     1      -6.766  16.358  69.459  1.00  0.00     0.000 HD 
HETATM    3  C   UNL     1      -7.370  16.259  67.573  1.00  0.00    -0.151 C  
ENDROOT
BRANCH   3   4
HETATM    4  C   UNL     1      -7.697  17.228  66.419  1.00  0.00    -0.311 C  
HETATM    5  O   UNL     1      -8.758  16.737  65.570  1.00  0.00    -0.315 OA 
HETATM    6  C   UNL     1     -10.080  16.789  66.145  1.00  0.00    -0.345 C  
HETATM    7  C   UNL     1     -10.420  18.256  66.536  1.00  0.00    -0.356 C  
HETATM    8  H   UNL     1      -8.837  18.685  69.337  1.00  0.00     0.000 HD 
HETATM    9  C   UNL     1      -9.356  18.864  67.458  1.00  0.00    -0.294 C  
HETATM   10  O   UNL     1     -10.545  19.106  65.377  1.00  0.00    -0.508 OA 
HETATM   11  H   UNL     1      -7.871  20.459  66.042  1.00  0.00     0.000 HD 
HETATM   12  C   UNL     1      -7.943  18.681  66.876  1.00  0.00    -0.242 C  
HETATM   13  H   UNL     1     -10.753  20.002  65.615  1.00  0.00     0.000 HD 
HETATM   14  O   UNL     1      -9.496  18.309  68.767  1.00  0.00    -0.319 OA 
HETATM   15  O   UNL     1      -7.720  19.564  65.760  1.00  0.00    -0.384 OA 
BRANCH   6  16
HETATM   16  O   UNL     1     -10.163  15.843  67.213  1.00  0.00    -0.265 OA 
BRANCH  16  17
HETATM   17  C   UNL     1     -10.274  14.511  66.942  1.00  0.00    -0.264 A  
HETATM   18  C   UNL     1     -11.052  12.624  65.683  1.00  0.00    -0.292 A  
HETATM   19  C   UNL     1     -10.657  11.761  66.699  1.00  0.00    -0.275 A  
HETATM   20  O   UNL     1     -11.667  12.084  64.590  1.00  0.00    -0.335 OA 
HETATM   21  C   UNL     1     -10.845  13.994  65.784  1.00  0.00    -0.291 A  
HETATM   22  H   UNL     1     -11.809  11.147  64.521  1.00  0.00     0.000 HD 
HETATM   23  C   UNL     1     -10.043  12.254  67.856  1.00  0.00    -0.200 A  
HETATM   24  C   UNL     1      -9.885  13.643  67.980  1.00  0.00    -0.244 A  
BRANCH  23  25
HETATM   25  C   UNL     1      -9.639  11.271  68.881  1.00  0.00    -0.119 C  
HETATM   26  C   UNL     1      -8.532  10.510  68.867  1.00  0.00    -0.152 C  
BRANCH  26  27
HETATM   27  C   UNL     1      -8.289   9.402  69.819  1.00  0.00    -0.161 A  
HETATM   28  C   UNL     1      -9.191   9.215  70.879  1.00  0.00    -0.326 A  
HETATM   29  C   UNL     1      -8.967   8.239  71.857  1.00  0.00    -0.249 A  
HETATM   30  C   UNL     1      -7.840   7.430  71.769  1.00  0.00    -0.090 A  
HETATM   31  C   UNL     1      -6.961   7.558  70.704  1.00  0.00    -0.051 A  
HETATM   32  O   UNL     1      -7.559   6.495  72.722  1.00  0.00    -0.096 OA 
HETATM   33  H   UNL     1      -6.790   5.941  72.662  1.00  0.00     0.000 HD 
HETATM   34  C   UNL     1      -7.187   8.537  69.729  1.00  0.00    -0.052 A  
ENDBRANCH  26  27
ENDBRANCH  23  25
ENDBRANCH  16  17
ENDBRANCH   6  16
ENDBRANCH   3   4
TORSDOF 5
ENDMDL
MODEL       93
REMARK 921   NORMALIZED FREE ENERGY PREDICTED BY IDOCK:   -5.17 KCAL/MOL
REMARK 922        TOTAL FREE ENERGY PREDICTED BY IDOCK:   -7.77 KCAL/MOL
REMARK 923 INTER-LIGAND FREE ENERGY PREDICTED BY IDOCK:   -6.97 KCAL/MOL
REMARK 924 INTRA-LIGAND FREE ENERGY PREDICTED BY IDOCK:   -0.80 KCAL/MOL
REMARK 927      BINDING AFFINITY PREDICTED BY RF-SCORE:    0.00 PKD
ROOT
HETATM    1  O   UNL     1     -13.627   7.085  70.832  1.00  0.00    -0.467 OA 
HETATM    2  H   UNL     1     -14.177   7.860  70.841  1.00  0.00     0.000 HD 
HETATM    3  C   UNL     1     -12.248   7.414  70.955  1.00  0.00    -0.282 C  
ENDROOT
BRANCH   3   4
HETATM    4  C   UNL     1     -11.357   6.155  70.940  1.00  0.00    -0.287 C  
HETATM    5  O   UNL     1     -10.652   5.994  69.688  1.00  0.00    -0.237 OA 
HETATM    6  C   UNL     1      -9.561   6.913  69.474  1.00  0.00    -0.148 C  
HETATM    7  C   UNL     1      -8.527   6.771  70.628  1.00  0.00    -0.137 C  
HETATM    8  H   UNL     1      -9.873   8.437  73.067  1.00  0.00     0.000 HD 
HETATM    9  C   UNL     1      -9.179   6.946  72.005  1.00  0.00    -0.140 C  
HETATM   10  O   UNL     1      -7.869   5.486  70.605  1.00  0.00    -0.090 OA 
HETATM   11  H   UNL     1      -9.458   4.595  73.077  1.00  0.00     0.000 HD 
HETATM   12  C   UNL     1     -10.415   6.043  72.157  1.00  0.00    -0.206 C  
HETATM   13  H   UNL     1      -7.238   5.399  71.310  1.00  0.00     0.000 HD 
HETATM   14  O   UNL     1      -9.469   8.329  72.214  1.00  0.00    -0.215 OA 
HETATM   15  O   UNL     1     -10.037   4.664  72.327  1.00  0.00    -0.177 OA 
BRANCH   6  16
HETATM   16  O   UNL     1     -10.087   8.229  69.291  1.00  0.00    -0.189 OA 
BRANCH  16  17
HETATM   17  C   UNL     1      -9.978   8.849  68.081  1.00  0.00    -0.176 A  
HETATM   18  C   UNL     1      -9.266   9.010  65.797  1.00  0.00    -0.232 A  
HETATM   19  C   UNL     1      -9.576  10.365  65.777  1.00  0.00    -0.269 A  
HETATM   20  O   UNL     1      -8.722   8.463  64.670  1.00  0.00    -0.388 OA 
HETATM   21  C   UNL     1      -9.483   8.240  66.932  1.00  0.00    -0.240 A  
HETATM   22  H   UNL     1      -8.573   8.990  63.894  1.00  0.00     0.000 HD 
HETATM   23  C   UNL     1     -10.113  10.991  66.908  1.00  0.00    -0.248 A  
HETATM   24  C   UNL     1     -10.280  10.224  68.071  1.00  0.00    -0.200 A  
BRANCH  23  25
HETATM   25  C   UNL     1     -10.430  12.429  66.801  1.00  0.00    -0.242 C  
HETATM   26  C   UNL     1      -9.585  13.452  67.012  1.00  0.00    -0.244 C  
BRANCH  26  27
HETATM   27  C   UNL     1     -10.016  14.866  67.087  1.00  0.00    -0.231 A  
HETATM   28  C   UNL     1      -9.482  15.784  66.168  1.00  0.00    -0.375 A  
HETATM   29  C   UNL     1      -9.787  17.147  66.245  1.00  0.00    -0.306 A  
HETATM   30  C   UNL     1     -10.647  17.600  67.238  1.00  0.00    -0.296 A  
HETATM   31  C   UNL     1     -11.231  16.708  68.126  1.00  0.00    -0.202 A  
HETATM   32  O   UNL     1     -10.940  18.925  67.377  1.00  0.00    -0.437 OA 
HETATM   33  H   UNL     1     -11.527  19.235  68.056  1.00  0.00     0.000 HD 
HETATM   34  C   UNL     1     -10.922  15.345  68.048  1.00  0.00    -0.307 A  
ENDBRANCH  26  27
ENDBRANCH  23  25
ENDBRANCH  16  17
ENDBRANCH   6  16
ENDBRANCH   3   4
TORSDOF 5
ENDMDL
MODEL       94
REMARK 921   NORMALIZED FREE ENERGY PREDICTED BY IDOCK:   -5.17 KCAL/MOL
REMARK 922        TOTAL FREE ENERGY PREDICTED BY IDOCK:   -7.76 KCAL/MOL
REMARK 923 INTER-LIGAND FREE ENERGY PREDICTED BY IDOCK:   -6.62 KCAL/MOL
REMARK 924 INTRA-LIGAND FREE ENERGY PREDICTED BY IDOCK:   -1.15 KCAL/MOL
REMARK 927      BINDING AFFINITY PREDICTED BY RF-SCORE:    0.00 PKD
ROOT
HETATM    1  O   UNL     1      -6.144  19.973  66.338  1.00  0.00    -0.166 OA 
HETATM    2  H   UNL     1      -5.243  19.781  66.107  1.00  0.00     0.000 HD 
HETATM    3  C   UNL     1      -7.050  19.056  65.734  1.00  0.00    -0.253 C  
ENDROOT
BRANCH   3   4
HETATM    4  C   UNL     1      -8.513  19.369  66.109  1.00  0.00    -0.291 C  
HETATM    5  O   UNL     1      -9.348  18.189  66.103  1.00  0.00    -0.471 OA 
HETATM    6  C   UNL     1      -9.137  17.280  67.202  1.00  0.00    -0.227 C  
HETATM    7  C   UNL     1      -9.373  18.026  68.547  1.00  0.00    -0.304 C  
HETATM    8  H   UNL     1      -6.625  19.698  68.984  1.00  0.00     0.000 HD 
HETATM    9  C   UNL     1      -8.512  19.291  68.658  1.00  0.00    -0.368 C  
HETATM   10  O   UNL     1     -10.755  18.411  68.713  1.00  0.00    -0.315 OA 
HETATM   11  H   UNL     1     -10.030  21.350  68.202  1.00  0.00     0.000 HD 
HETATM   12  C   UNL     1      -8.663  20.181  67.412  1.00  0.00    -0.344 C  
HETATM   13  H   UNL     1     -10.899  18.866  69.534  1.00  0.00     0.000 HD 
HETATM   14  O   UNL     1      -7.158  18.915  68.915  1.00  0.00    -0.303 OA 
HETATM   15  O   UNL     1      -9.939  20.850  67.400  1.00  0.00    -0.397 OA 
BRANCH   6  16
HETATM   16  O   UNL     1      -7.852  16.671  67.065  1.00  0.00    -0.163 OA 
BRANCH  16  17
HETATM   17  C   UNL     1      -7.540  15.557  67.787  1.00  0.00    -0.145 A  
HETATM   18  C   UNL     1      -6.184  14.273  69.292  1.00  0.00    -0.108 A  
HETATM   19  C   UNL     1      -6.878  13.116  68.958  1.00  0.00    -0.090 A  
HETATM   20  O   UNL     1      -5.148  14.164  70.176  1.00  0.00    -0.089 OA 
HETATM   21  C   UNL     1      -6.521  15.499  68.733  1.00  0.00    -0.107 A  
HETATM   22  H   UNL     1      -4.918  13.326  70.558  1.00  0.00     0.000 HD 
HETATM   23  C   UNL     1      -7.933  13.156  68.040  1.00  0.00    -0.156 A  
HETATM   24  C   UNL     1      -8.236  14.385  67.434  1.00  0.00    -0.215 A  
BRANCH  23  25
HETATM   25  C   UNL     1      -8.629  11.886  67.751  1.00  0.00    -0.154 C  
HETATM   26  C   UNL     1      -8.818  10.866  68.603  1.00  0.00    -0.158 C  
BRANCH  26  27
HETATM   27  C   UNL     1      -9.342   9.543  68.192  1.00  0.00    -0.141 A  
HETATM   28  C   UNL     1      -9.372   9.226  66.824  1.00  0.00    -0.202 A  
HETATM   29  C   UNL     1      -9.935   8.028  66.371  1.00  0.00    -0.215 A  
HETATM   30  C   UNL     1     -10.459   7.127  67.291  1.00  0.00    -0.301 A  
HETATM   31  C   UNL     1     -10.395   7.392  68.652  1.00  0.00    -0.215 A  
HETATM   32  O   UNL     1     -11.054   5.967  66.892  1.00  0.00    -0.535 OA 
HETATM   33  H   UNL     1     -11.412   5.351  67.521  1.00  0.00     0.000 HD 
HETATM   34  C   UNL     1      -9.834   8.593  69.102  1.00  0.00    -0.185 A  
ENDBRANCH  26  27
ENDBRANCH  23  25
ENDBRANCH  16  17
ENDBRANCH   6  16
ENDBRANCH   3   4
TORSDOF 5
ENDMDL
MODEL       95
REMARK 921   NORMALIZED FREE ENERGY PREDICTED BY IDOCK:   -5.13 KCAL/MOL
REMARK 922        TOTAL FREE ENERGY PREDICTED BY IDOCK:   -7.71 KCAL/MOL
REMARK 923 INTER-LIGAND FREE ENERGY PREDICTED BY IDOCK:   -6.71 KCAL/MOL
REMARK 924 INTRA-LIGAND FREE ENERGY PREDICTED BY IDOCK:   -1.00 KCAL/MOL
REMARK 927      BINDING AFFINITY PREDICTED BY RF-SCORE:    0.00 PKD
ROOT
HETATM    1  O   UNL     1     -11.482  15.303  69.487  1.00  0.00    -0.264 OA 
HETATM    2  H   UNL     1     -12.032  14.539  69.355  1.00  0.00     0.000 HD 
HETATM    3  C   UNL     1     -11.532  16.189  68.375  1.00  0.00    -0.298 C  
ENDROOT
BRANCH   3   4
HETATM    4  C   UNL     1     -10.639  17.428  68.590  1.00  0.00    -0.318 C  
HETATM    5  O   UNL     1      -9.260  17.077  68.840  1.00  0.00    -0.264 OA 
HETATM    6  C   UNL     1      -8.528  16.603  67.691  1.00  0.00    -0.192 C  
HETATM    7  C   UNL     1      -8.551  17.687  66.576  1.00  0.00    -0.259 C  
HETATM    8  H   UNL     1     -11.492  17.346  65.243  1.00  0.00     0.000 HD 
HETATM    9  C   UNL     1      -9.982  18.114  66.223  1.00  0.00    -0.342 C  
HETATM   10  O   UNL     1      -7.814  18.868  66.957  1.00  0.00    -0.236 OA 
HETATM   11  H   UNL     1     -10.434  20.423  67.328  1.00  0.00     0.000 HD 
HETATM   12  C   UNL     1     -10.778  18.495  67.484  1.00  0.00    -0.377 C  
HETATM   13  H   UNL     1      -7.828  19.530  66.277  1.00  0.00     0.000 HD 
HETATM   14  O   UNL     1     -10.606  17.081  65.460  1.00  0.00    -0.542 OA 
HETATM   15  O   UNL     1     -10.349  19.766  68.009  1.00  0.00    -0.427 OA 
BRANCH   6  16
HETATM   16  O   UNL     1      -9.039  15.326  67.306  1.00  0.00    -0.186 OA 
BRANCH  16  17
HETATM   17  C   UNL     1      -8.387  14.186  67.673  1.00  0.00    -0.182 A  
HETATM   18  C   UNL     1      -6.534  12.955  68.571  1.00  0.00    -0.083 A  
HETATM   19  C   UNL     1      -7.068  11.766  68.089  1.00  0.00    -0.079 A  
HETATM   20  O   UNL     1      -5.330  12.901  69.214  1.00  0.00    -0.072 OA 
HETATM   21  C   UNL     1      -7.195  14.164  68.390  1.00  0.00    -0.109 A  
HETATM   22  H   UNL     1      -4.879  12.075  69.337  1.00  0.00     0.000 HD 
HETATM   23  C   UNL     1      -8.286  11.757  67.400  1.00  0.00    -0.159 A  
HETATM   24  C   UNL     1      -8.924  12.986  67.170  1.00  0.00    -0.223 A  
BRANCH  23  25
HETATM   25  C   UNL     1      -8.792  10.451  66.934  1.00  0.00    -0.141 C  
HETATM   26  C   UNL     1      -9.157   9.413  67.705  1.00  0.00    -0.131 C  
BRANCH  26  27
HETATM   27  C   UNL     1      -9.461   8.065  67.171  1.00  0.00    -0.207 A  
HETATM   28  C   UNL     1     -10.622   7.411  67.614  1.00  0.00    -0.309 A  
HETATM   29  C   UNL     1     -10.916   6.104  67.210  1.00  0.00    -0.418 A  
HETATM   30  C   UNL     1     -10.051   5.446  66.343  1.00  0.00    -0.204 A  
HETATM   31  C   UNL     1      -8.925   6.088  65.849  1.00  0.00    -0.144 A  
HETATM   32  O   UNL     1     -10.276   4.158  65.956  1.00  0.00    -0.390 OA 
HETATM   33  H   UNL     1      -9.685   3.708  65.363  1.00  0.00     0.000 HD 
HETATM   34  C   UNL     1      -8.632   7.395  66.257  1.00  0.00    -0.148 A  
ENDBRANCH  26  27
ENDBRANCH  23  25
ENDBRANCH  16  17
ENDBRANCH   6  16
ENDBRANCH   3   4
TORSDOF 5
ENDMDL
MODEL       96
REMARK 921   NORMALIZED FREE ENERGY PREDICTED BY IDOCK:   -4.95 KCAL/MOL
REMARK 922        TOTAL FREE ENERGY PREDICTED BY IDOCK:   -7.48 KCAL/MOL
REMARK 923 INTER-LIGAND FREE ENERGY PREDICTED BY IDOCK:   -6.75 KCAL/MOL
REMARK 924 INTRA-LIGAND FREE ENERGY PREDICTED BY IDOCK:   -0.73 KCAL/MOL
REMARK 927      BINDING AFFINITY PREDICTED BY RF-SCORE:    0.00 PKD
ROOT
HETATM    1  O   UNL     1     -11.270  16.846  68.257  1.00  0.00    -0.303 OA 
HETATM    2  H   UNL     1     -11.381  16.945  69.196  1.00  0.00     0.000 HD 
HETATM    3  C   UNL     1     -10.019  16.250  67.933  1.00  0.00    -0.241 C  
ENDROOT
BRANCH   3   4
HETATM    4  C   UNL     1      -9.841  16.089  66.410  1.00  0.00    -0.288 C  
HETATM    5  O   UNL     1      -8.935  15.016  66.070  1.00  0.00    -0.223 OA 
HETATM    6  C   UNL     1      -9.456  13.685  66.268  1.00  0.00    -0.191 C  
HETATM    7  C   UNL     1     -10.751  13.503  65.426  1.00  0.00    -0.304 C  
HETATM    8  H   UNL     1     -13.026  15.003  67.190  1.00  0.00     0.000 HD 
HETATM    9  C   UNL     1     -11.789  14.591  65.730  1.00  0.00    -0.327 C  
HETATM   10  O   UNL     1     -10.479  13.530  64.008  1.00  0.00    -0.544 OA 
HETATM   11  H   UNL     1     -11.755  16.313  63.784  1.00  0.00     0.000 HD 
HETATM   12  C   UNL     1     -11.171  15.996  65.633  1.00  0.00     0.058 C  
HETATM   13  H   UNL     1     -11.270  13.419  63.493  1.00  0.00     0.000 HD 
HETATM   14  O   UNL     1     -12.384  14.329  67.002  1.00  0.00    -0.386 OA 
HETATM   15  O   UNL     1     -10.936  16.370  64.262  1.00  0.00    -0.788 OA 
BRANCH   6  16
HETATM   16  O   UNL     1      -9.606  13.446  67.669  1.00  0.00    -0.207 OA 
BRANCH  16  17
HETATM   17  C   UNL     1     -10.180  12.290  68.110  1.00  0.00    -0.212 A  
HETATM   18  C   UNL     1     -11.348  10.936  69.709  1.00  0.00    -0.301 A  
HETATM   19  C   UNL     1     -11.036   9.788  68.990  1.00  0.00    -0.193 A  
HETATM   20  O   UNL     1     -12.047  10.791  70.873  1.00  0.00    -0.331 OA 
HETATM   21  C   UNL     1     -10.946  12.191  69.267  1.00  0.00    -0.168 A  
HETATM   22  H   UNL     1     -12.321   9.934  71.175  1.00  0.00     0.000 HD 
HETATM   23  C   UNL     1     -10.301   9.867  67.802  1.00  0.00    -0.268 A  
HETATM   24  C   UNL     1      -9.849  11.129  67.387  1.00  0.00    -0.195 A  
BRANCH  23  25
HETATM   25  C   UNL     1     -10.024   8.603  67.090  1.00  0.00    -0.297 C  
HETATM   26  C   UNL     1      -8.828   8.178  66.652  1.00  0.00    -0.164 C  
BRANCH  26  27
HETATM   27  C   UNL     1      -8.651   7.002  65.770  1.00  0.00    -0.138 A  
HETATM   28  C   UNL     1      -8.000   7.175  64.537  1.00  0.00    -0.104 A  
HETATM   29  C   UNL     1      -7.881   6.119  63.627  1.00  0.00    -0.112 A  
HETATM   30  C   UNL     1      -8.401   4.872  63.954  1.00  0.00    -0.127 A  
HETATM   31  C   UNL     1      -9.002   4.660  65.186  1.00  0.00    -0.150 A  
HETATM   32  O   UNL     1      -8.345   3.826  63.080  1.00  0.00    -0.087 OA 
HETATM   33  H   UNL     1      -8.700   2.974  63.303  1.00  0.00     0.000 HD 
HETATM   34  C   UNL     1      -9.123   5.719  66.094  1.00  0.00    -0.161 A  
ENDBRANCH  26  27
ENDBRANCH  23  25
ENDBRANCH  16  17
ENDBRANCH   6  16
ENDBRANCH   3   4
TORSDOF 5
ENDMDL
MODEL       97
REMARK 921   NORMALIZED FREE ENERGY PREDICTED BY IDOCK:   -4.88 KCAL/MOL
REMARK 922        TOTAL FREE ENERGY PREDICTED BY IDOCK:   -7.38 KCAL/MOL
REMARK 923 INTER-LIGAND FREE ENERGY PREDICTED BY IDOCK:   -6.32 KCAL/MOL
REMARK 924 INTRA-LIGAND FREE ENERGY PREDICTED BY IDOCK:   -1.06 KCAL/MOL
REMARK 927      BINDING AFFINITY PREDICTED BY RF-SCORE:    0.00 PKD
ROOT
HETATM    1  O   UNL     1     -12.202  13.492  63.438  1.00  0.00    -0.842 OA 
HETATM    2  H   UNL     1     -12.113  13.347  62.503  1.00  0.00     0.000 HD 
HETATM    3  C   UNL     1     -11.979  12.298  64.180  1.00  0.00    -0.432 C  
ENDROOT
BRANCH   3   4
HETATM    4  C   UNL     1     -12.125  12.533  65.698  1.00  0.00    -0.400 C  
HETATM    5  O   UNL     1     -11.344  11.601  66.478  1.00  0.00    -0.328 OA 
HETATM    6  C   UNL     1      -9.919  11.826  66.461  1.00  0.00    -0.204 C  
HETATM    7  C   UNL     1      -9.613  13.260  66.981  1.00  0.00    -0.243 C  
HETATM    8  H   UNL     1     -10.266  15.154  64.427  1.00  0.00     0.000 HD 
HETATM    9  C   UNL     1     -10.385  14.330  66.198  1.00  0.00    -0.299 C  
HETATM   10  O   UNL     1      -9.941  13.407  68.379  1.00  0.00    -0.235 OA 
HETATM   11  H   UNL     1     -12.384  15.121  67.659  1.00  0.00     0.000 HD 
HETATM   12  C   UNL     1     -11.885  13.996  66.127  1.00  0.00    -0.407 C  
HETATM   13  H   UNL     1      -9.754  14.282  68.698  1.00  0.00     0.000 HD 
HETATM   14  O   UNL     1      -9.787  14.491  64.911  1.00  0.00    -0.200 OA 
HETATM   15  O   UNL     1     -12.531  14.220  67.395  1.00  0.00    -0.204 OA 
BRANCH   6  16
HETATM   16  O   UNL     1      -9.416  11.535  65.156  1.00  0.00    -0.225 OA 
BRANCH  16  17
HETATM   17  C   UNL     1      -8.727  10.380  64.929  1.00  0.00    -0.184 A  
HETATM   18  C   UNL     1      -7.551   8.806  63.553  1.00  0.00    -0.117 A  
HETATM   19  C   UNL     1      -7.606   7.855  64.564  1.00  0.00    -0.111 A  
HETATM   20  O   UNL     1      -6.971   8.448  62.369  1.00  0.00    -0.094 OA 
HETATM   21  C   UNL     1      -8.086  10.076  63.731  1.00  0.00    -0.158 A  
HETATM   22  H   UNL     1      -6.606   7.580  62.247  1.00  0.00     0.000 HD 
HETATM   23  C   UNL     1      -8.208   8.152  65.792  1.00  0.00    -0.126 A  
HETATM   24  C   UNL     1      -8.797   9.415  65.951  1.00  0.00    -0.193 A  
BRANCH  23  25
HETATM   25  C   UNL     1      -8.212   7.091  66.820  1.00  0.00    -0.111 C  
HETATM   26  C   UNL     1      -9.291   6.566  67.423  1.00  0.00    -0.125 C  
BRANCH  26  27
HETATM   27  C   UNL     1      -9.213   5.654  68.587  1.00  0.00    -0.134 A  
HETATM   28  C   UNL     1     -10.309   5.585  69.464  1.00  0.00    -0.357 A  
HETATM   29  C   UNL     1     -10.259   4.806  70.625  1.00  0.00    -0.250 A  
HETATM   30  C   UNL     1      -9.111   4.075  70.909  1.00  0.00    -0.113 A  
HETATM   31  C   UNL     1      -8.035   4.083  70.034  1.00  0.00    -0.052 A  
HETATM   32  O   UNL     1      -9.003   3.335  72.050  1.00  0.00    -0.094 OA 
HETATM   33  H   UNL     1      -8.219   2.835  72.245  1.00  0.00     0.000 HD 
HETATM   34  C   UNL     1      -8.087   4.865  68.874  1.00  0.00    -0.083 A  
ENDBRANCH  26  27
ENDBRANCH  23  25
ENDBRANCH  16  17
ENDBRANCH   6  16
ENDBRANCH   3   4
TORSDOF 5
ENDMDL
MODEL       98
REMARK 921   NORMALIZED FREE ENERGY PREDICTED BY IDOCK:   -4.87 KCAL/MOL
REMARK 922        TOTAL FREE ENERGY PREDICTED BY IDOCK:   -7.37 KCAL/MOL
REMARK 923 INTER-LIGAND FREE ENERGY PREDICTED BY IDOCK:   -6.30 KCAL/MOL
REMARK 924 INTRA-LIGAND FREE ENERGY PREDICTED BY IDOCK:   -1.08 KCAL/MOL
REMARK 927      BINDING AFFINITY PREDICTED BY RF-SCORE:    0.00 PKD
ROOT
HETATM    1  O   UNL     1      -5.216   9.575  69.214  1.00  0.00    -0.036 OA 
HETATM    2  H   UNL     1      -5.185  10.214  69.917  1.00  0.00     0.000 HD 
HETATM    3  C   UNL     1      -5.745  10.134  68.016  1.00  0.00    -0.038 C  
ENDROOT
BRANCH   3   4
HETATM    4  C   UNL     1      -5.795   9.096  66.876  1.00  0.00    -0.048 C  
HETATM    5  O   UNL     1      -6.067   7.761  67.357  1.00  0.00    -0.046 OA 
HETATM    6  C   UNL     1      -7.423   7.527  67.788  1.00  0.00    -0.101 C  
HETATM    7  C   UNL     1      -8.400   7.821  66.614  1.00  0.00    -0.126 C  
HETATM    8  H   UNL     1      -8.624  11.060  66.602  1.00  0.00     0.000 HD 
HETATM    9  C   UNL     1      -8.202   9.232  66.044  1.00  0.00    -0.111 C  
HETATM   10  O   UNL     1      -8.244   6.877  65.533  1.00  0.00    -0.126 OA 
HETATM   11  H   UNL     1      -6.890   9.027  63.810  1.00  0.00     0.000 HD 
HETATM   12  C   UNL     1      -6.723   9.496  65.711  1.00  0.00    -0.083 C  
HETATM   13  H   UNL     1      -8.840   7.056  64.816  1.00  0.00     0.000 HD 
HETATM   14  O   UNL     1      -8.748  10.187  66.955  1.00  0.00    -0.132 OA 
HETATM   15  O   UNL     1      -6.319   8.781  64.527  1.00  0.00    -0.066 OA 
BRANCH   6  16
HETATM   16  O   UNL     1      -7.669   8.271  68.982  1.00  0.00    -0.094 OA 
BRANCH  16  17
HETATM   17  C   UNL     1      -8.794   8.038  69.717  1.00  0.00    -0.144 A  
HETATM   18  C   UNL     1     -10.523   6.651  70.632  1.00  0.00    -0.217 A  
HETATM   19  C   UNL     1     -11.256   7.774  70.998  1.00  0.00    -0.282 A  
HETATM   20  O   UNL     1     -11.068   5.424  70.882  1.00  0.00    -0.130 OA 
HETATM   21  C   UNL     1      -9.284   6.770  70.014  1.00  0.00    -0.158 A  
HETATM   22  H   UNL     1     -11.915   5.341  71.305  1.00  0.00     0.000 HD 
HETATM   23  C   UNL     1     -10.763   9.060  70.746  1.00  0.00    -0.301 A  
HETATM   24  C   UNL     1      -9.538   9.179  70.072  1.00  0.00    -0.218 A  
BRANCH  23  25
HETATM   25  C   UNL     1     -11.595  10.201  71.179  1.00  0.00    -0.430 C  
HETATM   26  C   UNL     1     -11.928  11.273  70.442  1.00  0.00    -0.471 C  
BRANCH  26  27
HETATM   27  C   UNL     1     -12.592  12.474  70.998  1.00  0.00    -0.350 A  
HETATM   28  C   UNL     1     -12.278  13.731  70.455  1.00  0.00    -0.433 A  
HETATM   29  C   UNL     1     -12.809  14.907  70.996  1.00  0.00    -0.425 A  
HETATM   30  C   UNL     1     -13.675  14.830  72.081  1.00  0.00    -0.439 A  
HETATM   31  C   UNL     1     -14.042  13.599  72.604  1.00  0.00    -0.306 A  
HETATM   32  O   UNL     1     -14.183  15.952  72.667  1.00  0.00    -0.525 OA 
HETATM   33  H   UNL     1     -14.775  15.900  73.408  1.00  0.00     0.000 HD 
HETATM   34  C   UNL     1     -13.508  12.424  72.062  1.00  0.00    -0.460 A  
ENDBRANCH  26  27
ENDBRANCH  23  25
ENDBRANCH  16  17
ENDBRANCH   6  16
ENDBRANCH   3   4
TORSDOF 5
ENDMDL
MODEL       99
REMARK 921   NORMALIZED FREE ENERGY PREDICTED BY IDOCK:   -4.78 KCAL/MOL
REMARK 922        TOTAL FREE ENERGY PREDICTED BY IDOCK:   -7.26 KCAL/MOL
REMARK 923 INTER-LIGAND FREE ENERGY PREDICTED BY IDOCK:   -6.31 KCAL/MOL
REMARK 924 INTRA-LIGAND FREE ENERGY PREDICTED BY IDOCK:   -0.96 KCAL/MOL
REMARK 927      BINDING AFFINITY PREDICTED BY RF-SCORE:    0.00 PKD
ROOT
HETATM    1  O   UNL     1     -11.515  15.093  67.454  1.00  0.00    -0.332 OA 
HETATM    2  H   UNL     1     -11.247  15.205  68.359  1.00  0.00     0.000 HD 
HETATM    3  C   UNL     1     -10.396  14.924  66.590  1.00  0.00    -0.283 C  
ENDROOT
BRANCH   3   4
HETATM    4  C   UNL     1     -10.831  14.744  65.122  1.00  0.00    -0.404 C  
HETATM    5  O   UNL     1      -9.940  13.877  64.385  1.00  0.00    -0.215 OA 
HETATM    6  C   UNL     1     -10.038  12.475  64.709  1.00  0.00    -0.227 C  
HETATM    7  C   UNL     1     -11.494  11.985  64.463  1.00  0.00    -0.319 C  
HETATM    8  H   UNL     1     -13.102  13.030  67.083  1.00  0.00     0.000 HD 
HETATM    9  C   UNL     1     -12.520  12.835  65.224  1.00  0.00    -0.465 C  
HETATM   10  O   UNL     1     -11.842  12.012  63.063  1.00  0.00    -0.692 OA 
HETATM   11  H   UNL     1     -13.657  14.444  63.529  1.00  0.00     0.000 HD 
HETATM   12  C   UNL     1     -12.310  14.335  64.956  1.00  0.00    -0.428 C  
HETATM   13  H   UNL     1     -12.731  11.713  62.912  1.00  0.00     0.000 HD 
HETATM   14  O   UNL     1     -12.467  12.503  66.612  1.00  0.00    -0.352 OA 
HETATM   15  O   UNL     1     -12.746  14.695  63.631  1.00  0.00    -0.735 OA 
BRANCH   6  16
HETATM   16  O   UNL     1      -9.543  12.266  66.033  1.00  0.00    -0.240 OA 
BRANCH  16  17
HETATM   17  C   UNL     1      -8.625  11.287  66.276  1.00  0.00    -0.172 A  
HETATM   18  C   UNL     1      -6.452  10.471  66.881  1.00  0.00    -0.080 A  
HETATM   19  C   UNL     1      -6.789   9.197  66.439  1.00  0.00    -0.079 A  
HETATM   20  O   UNL     1      -5.186  10.670  67.354  1.00  0.00    -0.039 OA 
HETATM   21  C   UNL     1      -7.367  11.516  66.825  1.00  0.00    -0.111 A  
HETATM   22  H   UNL     1      -4.561   9.957  67.391  1.00  0.00     0.000 HD 
HETATM   23  C   UNL     1      -8.062   8.934  65.921  1.00  0.00    -0.109 A  
HETATM   24  C   UNL     1      -8.966  10.002  65.814  1.00  0.00    -0.187 A  
BRANCH  23  25
HETATM   25  C   UNL     1      -8.345   7.551  65.488  1.00  0.00    -0.137 C  
HETATM   26  C   UNL     1      -7.445   6.571  65.301  1.00  0.00    -0.082 C  
BRANCH  26  27
HETATM   27  C   UNL     1      -7.771   5.271  64.672  1.00  0.00    -0.088 A  
HETATM   28  C   UNL     1      -9.083   4.780  64.780  1.00  0.00    -0.129 A  
HETATM   29  C   UNL     1      -9.428   3.519  64.281  1.00  0.00    -0.149 A  
HETATM   30  C   UNL     1      -8.459   2.745  63.652  1.00  0.00    -0.086 A  
HETATM   31  C   UNL     1      -7.169   3.227  63.486  1.00  0.00    -0.050 A  
HETATM   32  O   UNL     1      -8.740   1.493  63.188  1.00  0.00    -0.071 OA 
HETATM   33  H   UNL     1      -8.079   0.964  62.758  1.00  0.00     0.000 HD 
HETATM   34  C   UNL     1      -6.827   4.488  63.989  1.00  0.00    -0.045 A  
ENDBRANCH  26  27
ENDBRANCH  23  25
ENDBRANCH  16  17
ENDBRANCH   6  16
ENDBRANCH   3   4
TORSDOF 5
ENDMDL
MODEL      100
REMARK 921   NORMALIZED FREE ENERGY PREDICTED BY IDOCK:   -4.76 KCAL/MOL
REMARK 922        TOTAL FREE ENERGY PREDICTED BY IDOCK:   -7.23 KCAL/MOL
REMARK 923 INTER-LIGAND FREE ENERGY PREDICTED BY IDOCK:   -6.12 KCAL/MOL
REMARK 924 INTRA-LIGAND FREE ENERGY PREDICTED BY IDOCK:   -1.11 KCAL/MOL
REMARK 927      BINDING AFFINITY PREDICTED BY RF-SCORE:    0.00 PKD
ROOT
HETATM    1  O   UNL     1      -6.973  18.601  66.961  1.00  0.00    -0.197 OA 
HETATM    2  H   UNL     1      -6.023  18.581  66.947  1.00  0.00     0.000 HD 
HETATM    3  C   UNL     1      -7.535  17.588  66.134  1.00  0.00    -0.299 C  
ENDROOT
BRANCH   3   4
HETATM    4  C   UNL     1      -9.076  17.621  66.158  1.00  0.00    -0.118 C  
HETATM    5  O   UNL     1      -9.661  16.352  65.788  1.00  0.00    -0.440 OA 
HETATM    6  C   UNL     1      -9.551  15.311  66.780  1.00  0.00    -0.241 C  
HETATM    7  C   UNL     1     -10.222  15.780  68.103  1.00  0.00    -0.230 C  
HETATM    8  H   UNL     1      -7.997  17.730  69.438  1.00  0.00     0.000 HD 
HETATM    9  C   UNL     1      -9.652  17.118  68.591  1.00  0.00    -0.281 C  
HETATM   10  O   UNL     1     -11.651  15.930  67.958  1.00  0.00    -0.296 OA 
HETATM   11  H   UNL     1     -11.368  18.986  68.027  1.00  0.00     0.000 HD 
HETATM   12  C   UNL     1      -9.668  18.173  67.472  1.00  0.00    -0.303 C  
HETATM   13  H   UNL     1     -12.061  16.216  68.765  1.00  0.00     0.000 HD 
HETATM   14  O   UNL     1      -8.350  16.901  69.136  1.00  0.00    -0.188 OA 
HETATM   15  O   UNL     1     -11.004  18.646  67.218  1.00  0.00    -0.387 OA 
BRANCH   6  16
HETATM   16  O   UNL     1      -8.181  14.923  66.900  1.00  0.00    -0.213 OA 
BRANCH  16  17
HETATM   17  C   UNL     1      -7.845  13.796  67.590  1.00  0.00    -0.178 A  
HETATM   18  C   UNL     1      -6.580  12.552  69.204  1.00  0.00    -0.100 A  
HETATM   19  C   UNL     1      -7.069  11.356  68.692  1.00  0.00    -0.095 A  
HETATM   20  O   UNL     1      -5.680  12.487  70.230  1.00  0.00    -0.138 OA 
HETATM   21  C   UNL     1      -6.977  13.775  68.678  1.00  0.00    -0.102 A  
HETATM   22  H   UNL     1      -5.408  11.652  70.589  1.00  0.00     0.000 HD 
HETATM   23  C   UNL     1      -7.974  11.354  67.625  1.00  0.00    -0.123 A  
HETATM   24  C   UNL     1      -8.332  12.587  67.058  1.00  0.00    -0.144 A  
BRANCH  23  25
HETATM   25  C   UNL     1      -8.459  10.042  67.149  1.00  0.00    -0.125 C  
HETATM   26  C   UNL     1      -8.946   9.047  67.909  1.00  0.00    -0.135 C  
BRANCH  26  27
HETATM   27  C   UNL     1      -9.223   7.686  67.393  1.00  0.00    -0.150 A  
HETATM   28  C   UNL     1     -10.559   7.277  67.255  1.00  0.00    -0.395 A  
HETATM   29  C   UNL     1     -10.880   5.975  66.855  1.00  0.00    -0.396 A  
HETATM   30  C   UNL     1      -9.859   5.075  66.573  1.00  0.00    -0.199 A  
HETATM   31  C   UNL     1      -8.531   5.469  66.651  1.00  0.00    -0.112 A  
HETATM   32  O   UNL     1     -10.125   3.785  66.220  1.00  0.00    -0.417 OA 
HETATM   33  H   UNL     1      -9.427   3.169  66.027  1.00  0.00     0.000 HD 
HETATM   34  C   UNL     1      -8.213   6.771  67.054  1.00  0.00    -0.113 A  
ENDBRANCH  26  27
ENDBRANCH  23  25
ENDBRANCH  16  17
ENDBRANCH   6  16
ENDBRANCH   3   4
TORSDOF 5
ENDMDL
MODEL      101
REMARK 921   NORMALIZED FREE ENERGY PREDICTED BY IDOCK:   -4.75 KCAL/MOL
REMARK 922        TOTAL FREE ENERGY PREDICTED BY IDOCK:   -7.22 KCAL/MOL
REMARK 923 INTER-LIGAND FREE ENERGY PREDICTED BY IDOCK:   -6.44 KCAL/MOL
REMARK 924 INTRA-LIGAND FREE ENERGY PREDICTED BY IDOCK:   -0.78 KCAL/MOL
REMARK 927      BINDING AFFINITY PREDICTED BY RF-SCORE:    0.00 PKD
ROOT
HETATM    1  O   UNL     1     -11.965  11.538  69.092  1.00  0.00    -0.321 OA 
HETATM    2  H   UNL     1     -12.344  10.679  69.237  1.00  0.00     0.000 HD 
HETATM    3  C   UNL     1     -11.758  11.797  67.708  1.00  0.00    -0.267 C  
ENDROOT
BRANCH   3   4
HETATM    4  C   UNL     1     -11.142  13.192  67.475  1.00  0.00    -0.271 C  
HETATM    5  O   UNL     1      -9.958  13.141  66.648  1.00  0.00    -0.256 OA 
HETATM    6  C   UNL     1     -10.195  12.881  65.249  1.00  0.00    -0.278 C  
HETATM    7  C   UNL     1     -11.136  13.976  64.669  1.00  0.00    -0.382 C  
HETATM    8  H   UNL     1     -14.084  13.053  65.669  1.00  0.00     0.000 HD 
HETATM    9  C   UNL     1     -12.438  14.094  65.472  1.00  0.00    -0.476 C  
HETATM   10  O   UNL     1     -10.504  15.273  64.649  1.00  0.00    -0.520 OA 
HETATM   11  H   UNL     1     -12.273  16.206  66.978  1.00  0.00     0.000 HD 
HETATM   12  C   UNL     1     -12.154  14.245  66.977  1.00  0.00    -0.390 C  
HETATM   13  H   UNL     1     -11.079  15.942  64.295  1.00  0.00     0.000 HD 
HETATM   14  O   UNL     1     -13.278  12.979  65.171  1.00  0.00    -0.703 OA 
HETATM   15  O   UNL     1     -11.649  15.558  67.285  1.00  0.00    -0.187 OA 
BRANCH   6  16
HETATM   16  O   UNL     1     -10.659  11.539  65.095  1.00  0.00    -0.276 OA 
BRANCH  16  17
HETATM   17  C   UNL     1      -9.770  10.522  64.909  1.00  0.00    -0.300 A  
HETATM   18  C   UNL     1      -8.376   9.092  63.580  1.00  0.00    -0.187 A  
HETATM   19  C   UNL     1      -8.197   8.234  64.659  1.00  0.00    -0.145 A  
HETATM   20  O   UNL     1      -7.793   8.755  62.392  1.00  0.00    -0.123 OA 
HETATM   21  C   UNL     1      -9.138  10.248  63.699  1.00  0.00    -0.284 A  
HETATM   22  H   UNL     1      -7.271   7.965  62.310  1.00  0.00     0.000 HD 
HETATM   23  C   UNL     1      -8.789   8.511  65.896  1.00  0.00    -0.219 A  
HETATM   24  C   UNL     1      -9.604   9.648  66.000  1.00  0.00    -0.305 A  
BRANCH  23  25
HETATM   25  C   UNL     1      -8.538   7.558  66.996  1.00  0.00    -0.122 C  
HETATM   26  C   UNL     1      -7.377   7.376  67.648  1.00  0.00    -0.092 C  
BRANCH  26  27
HETATM   27  C   UNL     1      -7.138   6.266  68.598  1.00  0.00    -0.082 A  
HETATM   28  C   UNL     1      -7.744   5.024  68.350  1.00  0.00    -0.079 A  
HETATM   29  C   UNL     1      -7.624   3.965  69.257  1.00  0.00    -0.053 A  
HETATM   30  C   UNL     1      -6.879   4.141  70.417  1.00  0.00    -0.033 A  
HETATM   31  C   UNL     1      -6.226   5.340  70.662  1.00  0.00    -0.023 A  
HETATM   32  O   UNL     1      -6.769   3.150  71.349  1.00  0.00    -0.029 OA 
HETATM   33  H   UNL     1      -6.260   3.270  72.142  1.00  0.00     0.000 HD 
HETATM   34  C   UNL     1      -6.350   6.398  69.754  1.00  0.00    -0.038 A  
ENDBRANCH  26  27
ENDBRANCH  23  25
ENDBRANCH  16  17
ENDBRANCH   6  16
ENDBRANCH   3   4
TORSDOF 5
ENDMDL
MODEL      102
REMARK 921   NORMALIZED FREE ENERGY PREDICTED BY IDOCK:   -4.74 KCAL/MOL
REMARK 922        TOTAL FREE ENERGY PREDICTED BY IDOCK:   -7.21 KCAL/MOL
REMARK 923 INTER-LIGAND FREE ENERGY PREDICTED BY IDOCK:   -7.30 KCAL/MOL
REMARK 924 INTRA-LIGAND FREE ENERGY PREDICTED BY IDOCK:    0.09 KCAL/MOL
REMARK 927      BINDING AFFINITY PREDICTED BY RF-SCORE:    0.00 PKD
ROOT
HETATM    1  O   UNL     1     -11.628   5.940  69.460  1.00  0.00    -0.155 OA 
HETATM    2  H   UNL     1     -12.348   6.081  68.856  1.00  0.00     0.000 HD 
HETATM    3  C   UNL     1     -11.064   7.168  69.905  1.00  0.00    -0.235 C  
ENDROOT
BRANCH   3   4
HETATM    4  C   UNL     1      -9.895   6.938  70.885  1.00  0.00    -0.185 C  
HETATM    5  O   UNL     1      -9.704   8.051  71.787  1.00  0.00    -0.158 OA 
HETATM    6  C   UNL     1     -10.701   8.181  72.821  1.00  0.00    -0.321 C  
HETATM    7  C   UNL     1     -10.743   6.879  73.670  1.00  0.00    -0.274 C  
HETATM    8  H   UNL     1     -12.460   4.826  71.832  1.00  0.00     0.000 HD 
HETATM    9  C   UNL     1     -10.963   5.635  72.800  1.00  0.00    -0.276 C  
HETATM   10  O   UNL     1      -9.527   6.688  74.424  1.00  0.00    -0.211 OA 
HETATM   11  H   UNL     1      -8.685   4.410  72.545  1.00  0.00     0.000 HD 
HETATM   12  C   UNL     1      -9.964   5.589  71.630  1.00  0.00    -0.182 C  
HETATM   13  H   UNL     1      -9.553   5.892  74.943  1.00  0.00     0.000 HD 
HETATM   14  O   UNL     1     -12.325   5.596  72.372  1.00  0.00    -0.098 OA 
HETATM   15  O   UNL     1      -8.642   5.241  72.086  1.00  0.00    -0.124 OA 
BRANCH   6  16
HETATM   16  O   UNL     1     -11.944   8.559  72.228  1.00  0.00    -0.359 OA 
BRANCH  16  17
HETATM   17  C   UNL     1     -12.090   9.792  71.665  1.00  0.00    -0.394 A  
HETATM   18  C   UNL     1     -12.942  12.032  71.572  1.00  0.00    -0.304 A  
HETATM   19  C   UNL     1     -12.537  12.150  70.248  1.00  0.00    -0.040 A  
HETATM   20  O   UNL     1     -13.599  13.089  72.136  1.00  0.00    -0.523 OA 
HETATM   21  C   UNL     1     -12.704  10.870  72.296  1.00  0.00     0.258 A  
HETATM   22  H   UNL     1     -13.762  13.884  71.642  1.00  0.00     0.000 HD 
HETATM   23  C   UNL     1     -11.881  11.094  69.605  1.00  0.00    -0.419 A  
HETATM   24  C   UNL     1     -11.691   9.901  70.320  1.00  0.00    -0.286 A  
BRANCH  23  25
HETATM   25  C   UNL     1     -11.470  11.304  68.203  1.00  0.00    -0.376 C  
HETATM   26  C   UNL     1     -11.072  10.358  67.336  1.00  0.00    -0.297 C  
BRANCH  26  27
HETATM   27  C   UNL     1     -10.480  10.659  66.012  1.00  0.00    -0.250 A  
HETATM   28  C   UNL     1      -9.595   9.729  65.443  1.00  0.00    -0.359 A  
HETATM   29  C   UNL     1      -8.940   9.998  64.236  1.00  0.00    -0.269 A  
HETATM   30  C   UNL     1      -9.183  11.200  63.580  1.00  0.00    -0.186 A  
HETATM   31  C   UNL     1     -10.092  12.113  64.093  1.00  0.00    -0.335 A  
HETATM   32  O   UNL     1      -8.536  11.522  62.423  1.00  0.00    -0.600 OA 
HETATM   33  H   UNL     1      -8.701  12.343  61.974  1.00  0.00     0.000 HD 
HETATM   34  C   UNL     1     -10.744  11.842  65.302  1.00  0.00    -0.338 A  
ENDBRANCH  26  27
ENDBRANCH  23  25
ENDBRANCH  16  17
ENDBRANCH   6  16
ENDBRANCH   3   4
TORSDOF 5
ENDMDL
MODEL      103
REMARK 921   NORMALIZED FREE ENERGY PREDICTED BY IDOCK:   -4.72 KCAL/MOL
REMARK 922        TOTAL FREE ENERGY PREDICTED BY IDOCK:   -7.18 KCAL/MOL
REMARK 923 INTER-LIGAND FREE ENERGY PREDICTED BY IDOCK:   -6.38 KCAL/MOL
REMARK 924 INTRA-LIGAND FREE ENERGY PREDICTED BY IDOCK:   -0.79 KCAL/MOL
REMARK 927      BINDING AFFINITY PREDICTED BY RF-SCORE:    0.00 PKD
ROOT
HETATM    1  O   UNL     1      -8.539   7.935  64.625  1.00  0.00    -0.372 OA 
HETATM    2  H   UNL     1      -9.145   8.612  64.345  1.00  0.00     0.000 HD 
HETATM    3  C   UNL     1      -8.924   7.366  65.872  1.00  0.00    -0.077 C  
ENDROOT
BRANCH   3   4
HETATM    4  C   UNL     1      -7.941   6.267  66.325  1.00  0.00    -0.110 C  
HETATM    5  O   UNL     1      -8.053   5.974  67.736  1.00  0.00    -0.108 OA 
HETATM    6  C   UNL     1      -9.234   5.240  68.119  1.00  0.00    -0.113 C  
HETATM    7  C   UNL     1      -9.283   3.892  67.345  1.00  0.00    -0.172 C  
HETATM    8  H   UNL     1     -10.375   4.738  64.407  1.00  0.00     0.000 HD 
HETATM    9  C   UNL     1      -9.189   4.099  65.828  1.00  0.00    -0.148 C  
HETATM   10  O   UNL     1      -8.216   3.005  67.742  1.00  0.00    -0.077 OA 
HETATM   11  H   UNL     1      -6.777   3.494  65.074  1.00  0.00     0.000 HD 
HETATM   12  C   UNL     1      -7.990   4.991  65.460  1.00  0.00    -0.104 C  
HETATM   13  H   UNL     1      -8.245   2.181  67.269  1.00  0.00     0.000 HD 
HETATM   14  O   UNL     1     -10.433   4.610  65.347  1.00  0.00    -0.215 OA 
HETATM   15  O   UNL     1      -6.746   4.280  65.608  1.00  0.00    -0.049 OA 
BRANCH   6  16
HETATM   16  O   UNL     1     -10.380   6.078  67.951  1.00  0.00    -0.162 OA 
BRANCH  16  17
HETATM   17  C   UNL     1     -10.786   6.898  68.962  1.00  0.00    -0.230 A  
HETATM   18  C   UNL     1     -11.924   7.389  71.015  1.00  0.00    -0.306 A  
HETATM   19  C   UNL     1     -11.786   8.753  70.786  1.00  0.00    -0.253 A  
HETATM   20  O   UNL     1     -12.599   6.995  72.136  1.00  0.00    -0.490 OA 
HETATM   21  C   UNL     1     -11.409   6.455  70.125  1.00  0.00    -0.485 A  
HETATM   22  H   UNL     1     -12.951   7.633  72.744  1.00  0.00     0.000 HD 
HETATM   23  C   UNL     1     -11.126   9.222  69.644  1.00  0.00    -0.134 A  
HETATM   24  C   UNL     1     -10.656   8.278  68.718  1.00  0.00    -0.152 A  
BRANCH  23  25
HETATM   25  C   UNL     1     -11.009  10.685  69.481  1.00  0.00    -0.321 C  
HETATM   26  C   UNL     1     -11.568  11.429  68.513  1.00  0.00    -0.384 C  
BRANCH  26  27
HETATM   27  C   UNL     1     -11.245  12.857  68.290  1.00  0.00    -0.304 A  
HETATM   28  C   UNL     1     -10.809  13.628  69.380  1.00  0.00    -0.054 A  
HETATM   29  C   UNL     1     -10.572  15.000  69.248  1.00  0.00    -0.249 A  
HETATM   30  C   UNL     1     -10.755  15.610  68.012  1.00  0.00    -0.287 A  
HETATM   31  C   UNL     1     -11.135  14.862  66.906  1.00  0.00    -0.337 A  
HETATM   32  O   UNL     1     -10.576  16.952  67.847  1.00  0.00    -0.339 OA 
HETATM   33  H   UNL     1     -10.701  17.369  67.002  1.00  0.00     0.000 HD 
HETATM   34  C   UNL     1     -11.374  13.490  67.043  1.00  0.00    -0.348 A  
ENDBRANCH  26  27
ENDBRANCH  23  25
ENDBRANCH  16  17
ENDBRANCH   6  16
ENDBRANCH   3   4
TORSDOF 5
ENDMDL
MODEL      104
REMARK 921   NORMALIZED FREE ENERGY PREDICTED BY IDOCK:   -4.67 KCAL/MOL
REMARK 922        TOTAL FREE ENERGY PREDICTED BY IDOCK:   -7.11 KCAL/MOL
REMARK 923 INTER-LIGAND FREE ENERGY PREDICTED BY IDOCK:   -6.56 KCAL/MOL
REMARK 924 INTRA-LIGAND FREE ENERGY PREDICTED BY IDOCK:   -0.55 KCAL/MOL
REMARK 927      BINDING AFFINITY PREDICTED BY RF-SCORE:    0.00 PKD
ROOT
HETATM    1  O   UNL     1      -7.616   2.462  68.908  1.00  0.00    -0.044 OA 
HETATM    2  H   UNL     1      -7.572   2.126  69.796  1.00  0.00     0.000 HD 
HETATM    3  C   UNL     1      -8.874   3.068  68.635  1.00  0.00    -0.119 C  
ENDROOT
BRANCH   3   4
HETATM    4  C   UNL     1      -8.944   3.613  67.194  1.00  0.00    -0.145 C  
HETATM    5  O   UNL     1     -10.087   4.472  66.983  1.00  0.00    -0.199 OA 
HETATM    6  C   UNL     1      -9.999   5.774  67.597  1.00  0.00    -0.140 C  
HETATM    7  C   UNL     1      -8.739   6.515  67.065  1.00  0.00    -0.112 C  
HETATM    8  H   UNL     1      -6.306   5.198  68.763  1.00  0.00     0.000 HD 
HETATM    9  C   UNL     1      -7.463   5.687  67.262  1.00  0.00    -0.084 C  
HETATM   10  O   UNL     1      -8.854   6.833  65.662  1.00  0.00    -0.293 OA 
HETATM   11  H   UNL     1      -6.804   4.654  64.970  1.00  0.00     0.000 HD 
HETATM   12  C   UNL     1      -7.631   4.262  66.709  1.00  0.00    -0.085 C  
HETATM   13  H   UNL     1      -8.084   7.286  65.337  1.00  0.00     0.000 HD 
HETATM   14  O   UNL     1      -7.096   5.711  68.642  1.00  0.00    -0.062 OA 
HETATM   15  O   UNL     1      -7.613   4.255  65.268  1.00  0.00    -0.082 OA 
BRANCH   6  16
HETATM   16  O   UNL     1     -10.061   5.627  69.017  1.00  0.00    -0.162 OA 
BRANCH  16  17
HETATM   17  C   UNL     1     -10.258   6.717  69.812  1.00  0.00    -0.187 A  
HETATM   18  C   UNL     1     -10.861   7.813  71.859  1.00  0.00    -0.235 A  
HETATM   19  C   UNL     1     -10.902   9.041  71.209  1.00  0.00    -0.385 A  
HETATM   20  O   UNL     1     -11.186   7.780  73.185  1.00  0.00    -0.505 OA 
HETATM   21  C   UNL     1     -10.518   6.651  71.177  1.00  0.00    -0.247 A  
HETATM   22  H   UNL     1     -11.420   8.574  73.650  1.00  0.00     0.000 HD 
HETATM   23  C   UNL     1     -10.604   9.138  69.845  1.00  0.00    -0.246 A  
HETATM   24  C   UNL     1     -10.313   7.956  69.147  1.00  0.00    -0.225 A  
BRANCH  23  25
HETATM   25  C   UNL     1     -10.656  10.481  69.234  1.00  0.00    -0.265 C  
HETATM   26  C   UNL     1     -11.409  10.853  68.185  1.00  0.00    -0.383 C  
BRANCH  26  27
HETATM   27  C   UNL     1     -11.263  12.156  67.496  1.00  0.00    -0.357 A  
HETATM   28  C   UNL     1     -10.311  12.272  66.470  1.00  0.00    -0.250 A  
HETATM   29  C   UNL     1     -10.069  13.499  65.841  1.00  0.00    -0.311 A  
HETATM   30  C   UNL     1     -10.795  14.619  66.228  1.00  0.00    -0.321 A  
HETATM   31  C   UNL     1     -11.778  14.521  67.202  1.00  0.00    -0.420 A  
HETATM   32  O   UNL     1     -10.564  15.844  65.673  1.00  0.00    -0.346 OA 
HETATM   33  H   UNL     1     -11.060  16.610  65.936  1.00  0.00     0.000 HD 
HETATM   34  C   UNL     1     -12.016  13.293  67.830  1.00  0.00    -0.349 A  
ENDBRANCH  26  27
ENDBRANCH  23  25
ENDBRANCH  16  17
ENDBRANCH   6  16
ENDBRANCH   3   4
TORSDOF 5
ENDMDL
MODEL      105
REMARK 921   NORMALIZED FREE ENERGY PREDICTED BY IDOCK:   -4.66 KCAL/MOL
REMARK 922        TOTAL FREE ENERGY PREDICTED BY IDOCK:   -7.10 KCAL/MOL
REMARK 923 INTER-LIGAND FREE ENERGY PREDICTED BY IDOCK:   -6.11 KCAL/MOL
REMARK 924 INTRA-LIGAND FREE ENERGY PREDICTED BY IDOCK:   -0.98 KCAL/MOL
REMARK 927      BINDING AFFINITY PREDICTED BY RF-SCORE:    0.00 PKD
ROOT
HETATM    1  O   UNL     1      -7.628  14.550  69.605  1.00  0.00    -0.358 OA 
HETATM    2  H   UNL     1      -6.800  14.192  69.306  1.00  0.00     0.000 HD 
HETATM    3  C   UNL     1      -8.111  15.563  68.729  1.00  0.00    -0.170 C  
ENDROOT
BRANCH   3   4
HETATM    4  C   UNL     1      -9.455  16.144  69.215  1.00  0.00    -0.224 C  
HETATM    5  O   UNL     1     -10.310  16.547  68.122  1.00  0.00    -0.271 OA 
HETATM    6  C   UNL     1     -10.911  15.465  67.380  1.00  0.00    -0.309 C  
HETATM    7  C   UNL     1     -11.751  14.578  68.343  1.00  0.00    -0.333 C  
HETATM    8  H   UNL     1      -9.524  12.745  69.831  1.00  0.00     0.000 HD 
HETATM    9  C   UNL     1     -10.922  14.082  69.534  1.00  0.00    -0.095 C  
HETATM   10  O   UNL     1     -12.899  15.284  68.861  1.00  0.00    -0.179 OA 
HETATM   11  H   UNL     1     -11.561  15.501  71.616  1.00  0.00     0.000 HD 
HETATM   12  C   UNL     1     -10.192  15.244  70.229  1.00  0.00    -0.072 C  
HETATM   13  H   UNL     1     -13.413  14.743  69.449  1.00  0.00     0.000 HD 
HETATM   14  O   UNL     1     -10.037  13.051  69.093  1.00  0.00     0.091 OA 
HETATM   15  O   UNL     1     -11.107  16.055  70.991  1.00  0.00    -0.319 OA 
BRANCH   6  16
HETATM   16  O   UNL     1      -9.893  14.775  66.653  1.00  0.00    -0.242 OA 
BRANCH  16  17
HETATM   17  C   UNL     1     -10.229  13.808  65.752  1.00  0.00    -0.311 A  
HETATM   18  C   UNL     1     -11.609  12.830  64.052  1.00  0.00    -0.424 A  
HETATM   19  C   UNL     1     -10.943  11.618  64.184  1.00  0.00    -0.442 A  
HETATM   20  O   UNL     1     -12.646  12.897  63.165  1.00  0.00    -0.658 OA 
HETATM   21  C   UNL     1     -11.247  13.935  64.812  1.00  0.00    -0.369 A  
HETATM   22  H   UNL     1     -12.894  12.142  62.645  1.00  0.00     0.000 HD 
HETATM   23  C   UNL     1      -9.889  11.477  65.093  1.00  0.00    -0.294 A  
HETATM   24  C   UNL     1      -9.561  12.578  65.900  1.00  0.00    -0.174 A  
BRANCH  23  25
HETATM   25  C   UNL     1      -9.223  10.161  65.161  1.00  0.00    -0.262 C  
HETATM   26  C   UNL     1      -8.241   9.719  64.357  1.00  0.00    -0.162 C  
BRANCH  26  27
HETATM   27  C   UNL     1      -7.760   8.319  64.349  1.00  0.00    -0.125 A  
HETATM   28  C   UNL     1      -7.716   7.628  63.127  1.00  0.00    -0.127 A  
HETATM   29  C   UNL     1      -7.351   6.278  63.071  1.00  0.00    -0.062 A  
HETATM   30  C   UNL     1      -7.011   5.613  64.243  1.00  0.00    -0.051 A  
HETATM   31  C   UNL     1      -6.995   6.285  65.457  1.00  0.00    -0.056 A  
HETATM   32  O   UNL     1      -6.690   4.287  64.241  1.00  0.00    -0.042 OA 
HETATM   33  H   UNL     1      -6.457   3.832  65.042  1.00  0.00     0.000 HD 
HETATM   34  C   UNL     1      -7.363   7.634  65.510  1.00  0.00    -0.074 A  
ENDBRANCH  26  27
ENDBRANCH  23  25
ENDBRANCH  16  17
ENDBRANCH   6  16
ENDBRANCH   3   4
TORSDOF 5
ENDMDL
MODEL      106
REMARK 921   NORMALIZED FREE ENERGY PREDICTED BY IDOCK:   -4.65 KCAL/MOL
REMARK 922        TOTAL FREE ENERGY PREDICTED BY IDOCK:   -7.09 KCAL/MOL
REMARK 923 INTER-LIGAND FREE ENERGY PREDICTED BY IDOCK:   -6.02 KCAL/MOL
REMARK 924 INTRA-LIGAND FREE ENERGY PREDICTED BY IDOCK:   -1.07 KCAL/MOL
REMARK 927      BINDING AFFINITY PREDICTED BY RF-SCORE:    0.00 PKD
ROOT
HETATM    1  O   UNL     1      -9.737   4.777  68.803  1.00  0.00    -0.155 OA 
HETATM    2  H   UNL     1      -9.903   4.400  67.946  1.00  0.00     0.000 HD 
HETATM    3  C   UNL     1      -9.029   6.008  68.708  1.00  0.00    -0.118 C  
ENDROOT
BRANCH   3   4
HETATM    4  C   UNL     1      -8.760   6.619  70.098  1.00  0.00    -0.141 C  
HETATM    5  O   UNL     1      -8.649   8.059  70.056  1.00  0.00    -0.131 OA 
HETATM    6  C   UNL     1      -9.891   8.766  69.856  1.00  0.00    -0.184 C  
HETATM    7  C   UNL     1     -10.888   8.395  70.991  1.00  0.00    -0.238 C  
HETATM    8  H   UNL     1     -12.025   5.491  70.090  1.00  0.00     0.000 HD 
HETATM    9  C   UNL     1     -11.089   6.879  71.105  1.00  0.00    -0.260 C  
HETATM   10  O   UNL     1     -10.448   8.885  72.276  1.00  0.00    -0.313 OA 
HETATM   11  H   UNL     1      -9.730   6.031  73.152  1.00  0.00     0.000 HD 
HETATM   12  C   UNL     1      -9.740   6.142  71.190  1.00  0.00    -0.176 C  
HETATM   13  H   UNL     1     -11.056   8.659  72.969  1.00  0.00     0.000 HD 
HETATM   14  O   UNL     1     -11.902   6.430  70.019  1.00  0.00    -0.404 OA 
HETATM   15  O   UNL     1      -9.126   6.325  72.480  1.00  0.00    -0.141 OA 
BRANCH   6  16
HETATM   16  O   UNL     1     -10.362   8.517  68.531  1.00  0.00    -0.203 OA 
BRANCH  16  17
HETATM   17  C   UNL     1     -10.092   9.402  67.529  1.00  0.00    -0.215 A  
HETATM   18  C   UNL     1      -9.805  10.040  65.235  1.00  0.00    -0.318 A  
HETATM   19  C   UNL     1      -9.225  11.242  65.623  1.00  0.00    -0.231 A  
HETATM   20  O   UNL     1      -9.894   9.777  63.897  1.00  0.00    -0.465 OA 
HETATM   21  C   UNL     1     -10.262   9.125  66.176  1.00  0.00    -0.189 A  
HETATM   22  H   UNL     1      -9.582  10.402  63.254  1.00  0.00     0.000 HD 
HETATM   23  C   UNL     1      -9.082  11.560  66.979  1.00  0.00    -0.175 A  
HETATM   24  C   UNL     1      -9.493  10.611  67.927  1.00  0.00    -0.168 A  
BRANCH  23  25
HETATM   25  C   UNL     1      -8.470  12.863  67.308  1.00  0.00    -0.197 C  
HETATM   26  C   UNL     1      -8.726  13.615  68.392  1.00  0.00    -0.153 C  
BRANCH  26  27
HETATM   27  C   UNL     1      -8.232  15.001  68.560  1.00  0.00    -0.151 A  
HETATM   28  C   UNL     1      -9.096  16.066  68.256  1.00  0.00    -0.191 A  
HETATM   29  C   UNL     1      -8.657  17.393  68.313  1.00  0.00    -0.260 A  
HETATM   30  C   UNL     1      -7.348  17.665  68.694  1.00  0.00    -0.257 A  
HETATM   31  C   UNL     1      -6.489  16.635  69.051  1.00  0.00    -0.190 A  
HETATM   32  O   UNL     1      -6.865  18.940  68.724  1.00  0.00    -0.262 OA 
HETATM   33  H   UNL     1      -5.971  19.126  68.985  1.00  0.00     0.000 HD 
HETATM   34  C   UNL     1      -6.930  15.308  68.989  1.00  0.00    -0.136 A  
ENDBRANCH  26  27
ENDBRANCH  23  25
ENDBRANCH  16  17
ENDBRANCH   6  16
ENDBRANCH   3   4
TORSDOF 5
ENDMDL
MODEL      107
REMARK 921   NORMALIZED FREE ENERGY PREDICTED BY IDOCK:   -4.56 KCAL/MOL
REMARK 922        TOTAL FREE ENERGY PREDICTED BY IDOCK:   -6.98 KCAL/MOL
REMARK 923 INTER-LIGAND FREE ENERGY PREDICTED BY IDOCK:   -6.16 KCAL/MOL
REMARK 924 INTRA-LIGAND FREE ENERGY PREDICTED BY IDOCK:   -0.81 KCAL/MOL
REMARK 927      BINDING AFFINITY PREDICTED BY RF-SCORE:    0.00 PKD
ROOT
HETATM    1  O   UNL     1     -12.634  14.354  69.670  1.00  0.00    -0.534 OA 
HETATM    2  H   UNL     1     -13.478  14.421  70.101  1.00  0.00     0.000 HD 
HETATM    3  C   UNL     1     -11.959  13.150  70.014  1.00  0.00    -0.321 C  
ENDROOT
BRANCH   3   4
HETATM    4  C   UNL     1     -10.589  13.042  69.314  1.00  0.00     0.150 C  
HETATM    5  O   UNL     1     -10.068  11.694  69.326  1.00  0.00    -0.002 OA 
HETATM    6  C   UNL     1     -10.727  10.771  68.436  1.00  0.00    -0.217 C  
HETATM    7  C   UNL     1     -10.642  11.304  66.977  1.00  0.00    -0.246 C  
HETATM    8  H   UNL     1     -12.959  13.574  66.857  1.00  0.00     0.000 HD 
HETATM    9  C   UNL     1     -11.193  12.731  66.856  1.00  0.00    -0.296 C  
HETATM   10  O   UNL     1      -9.285  11.306  66.484  1.00  0.00    -0.177 OA 
HETATM   11  H   UNL     1      -9.180  14.367  66.693  1.00  0.00     0.000 HD 
HETATM   12  C   UNL     1     -10.560  13.664  67.902  1.00  0.00    -0.249 C  
HETATM   13  H   UNL     1      -9.232  11.632  65.593  1.00  0.00     0.000 HD 
HETATM   14  O   UNL     1     -12.618  12.691  66.932  1.00  0.00    -0.113 OA 
HETATM   15  O   UNL     1      -9.197  13.984  67.563  1.00  0.00    -0.184 OA 
BRANCH   6  16
HETATM   16  O   UNL     1     -12.051  10.526  68.914  1.00  0.00    -0.286 OA 
BRANCH  16  17
HETATM   17  C   UNL     1     -12.249   9.753  70.020  1.00  0.00     0.198 A  
HETATM   18  C   UNL     1     -13.283   9.210  72.115  1.00  0.00    -0.458 A  
HETATM   19  C   UNL     1     -12.322   8.237  72.358  1.00  0.00    -0.385 A  
HETATM   20  O   UNL     1     -14.232   9.425  73.074  1.00  0.00    -0.929 OA 
HETATM   21  C   UNL     1     -13.271   9.956  70.942  1.00  0.00    -0.309 A  
HETATM   22  H   UNL     1     -14.240   8.916  73.876  1.00  0.00     0.000 HD 
HETATM   23  C   UNL     1     -11.309   7.986  71.425  1.00  0.00    -0.292 A  
HETATM   24  C   UNL     1     -11.265   8.778  70.267  1.00  0.00    -0.212 A  
BRANCH  23  25
HETATM   25  C   UNL     1     -10.335   6.924  71.751  1.00  0.00    -0.217 C  
HETATM   26  C   UNL     1     -10.204   5.741  71.128  1.00  0.00    -0.275 C  
BRANCH  26  27
HETATM   27  C   UNL     1      -9.348   4.643  71.632  1.00  0.00    -0.195 A  
HETATM   28  C   UNL     1      -9.760   3.317  71.424  1.00  0.00    -0.226 A  
HETATM   29  C   UNL     1      -9.036   2.242  71.951  1.00  0.00    -0.140 A  
HETATM   30  C   UNL     1      -7.879   2.489  72.681  1.00  0.00    -0.054 A  
HETATM   31  C   UNL     1      -7.421   3.787  72.857  1.00  0.00    -0.064 A  
HETATM   32  O   UNL     1      -7.165   1.475  73.249  1.00  0.00    -0.026 OA 
HETATM   33  H   UNL     1      -6.374   1.644  73.748  1.00  0.00     0.000 HD 
HETATM   34  C   UNL     1      -8.148   4.860  72.331  1.00  0.00    -0.111 A  
ENDBRANCH  26  27
ENDBRANCH  23  25
ENDBRANCH  16  17
ENDBRANCH   6  16
ENDBRANCH   3   4
TORSDOF 5
ENDMDL
MODEL      108
REMARK 921   NORMALIZED FREE ENERGY PREDICTED BY IDOCK:   -4.56 KCAL/MOL
REMARK 922        TOTAL FREE ENERGY PREDICTED BY IDOCK:   -6.97 KCAL/MOL
REMARK 923 INTER-LIGAND FREE ENERGY PREDICTED BY IDOCK:   -6.06 KCAL/MOL
REMARK 924 INTRA-LIGAND FREE ENERGY PREDICTED BY IDOCK:   -0.91 KCAL/MOL
REMARK 927      BINDING AFFINITY PREDICTED BY RF-SCORE:    0.00 PKD
ROOT
HETATM    1  O   UNL     1      -8.614  14.340  67.859  1.00  0.00    -0.153 OA 
HETATM    2  H   UNL     1      -8.779  14.994  68.528  1.00  0.00     0.000 HD 
HETATM    3  C   UNL     1      -9.600  14.375  66.833  1.00  0.00    -0.256 C  
ENDROOT
BRANCH   3   4
HETATM    4  C   UNL     1      -9.332  13.312  65.747  1.00  0.00     0.174 C  
HETATM    5  O   UNL     1      -8.691  12.131  66.278  1.00  0.00    -0.117 OA 
HETATM    6  C   UNL     1      -9.540  11.276  67.072  1.00  0.00    -0.178 C  
HETATM    7  C   UNL     1     -10.759  10.818  66.222  1.00  0.00    -0.138 C  
HETATM    8  H   UNL     1     -12.743  13.387  66.290  1.00  0.00     0.000 HD 
HETATM    9  C   UNL     1     -11.521  12.009  65.626  1.00  0.00    -0.316 C  
HETATM   10  O   UNL     1     -10.364   9.953  65.136  1.00  0.00    -0.245 OA 
HETATM   11  H   UNL     1     -10.891  12.201  63.112  1.00  0.00     0.000 HD 
HETATM   12  C   UNL     1     -10.569  12.970  64.892  1.00  0.00    -0.337 C  
HETATM   13  H   UNL     1     -11.108   9.673  64.616  1.00  0.00     0.000 HD 
HETATM   14  O   UNL     1     -12.272  12.649  66.659  1.00  0.00    -0.517 OA 
HETATM   15  O   UNL     1     -10.128  12.412  63.639  1.00  0.00    -0.401 OA 
BRANCH   6  16
HETATM   16  O   UNL     1      -9.868  11.944  68.291  1.00  0.00    -0.190 OA 
BRANCH  16  17
HETATM   17  C   UNL     1     -10.615  11.313  69.241  1.00  0.00    -0.148 A  
HETATM   18  C   UNL     1     -12.380  11.180  70.859  1.00  0.00    -0.399 A  
HETATM   19  C   UNL     1     -11.849  10.000  71.368  1.00  0.00    -0.447 A  
HETATM   20  O   UNL     1     -13.494  11.691  71.462  1.00  0.00    -0.142 OA 
HETATM   21  C   UNL     1     -11.787  11.831  69.785  1.00  0.00    -0.420 A  
HETATM   22  H   UNL     1     -13.900  11.246  72.197  1.00  0.00     0.000 HD 
HETATM   23  C   UNL     1     -10.694   9.439  70.811  1.00  0.00    -0.373 A  
HETATM   24  C   UNL     1     -10.065  10.127  69.762  1.00  0.00    -0.269 A  
BRANCH  23  25
HETATM   25  C   UNL     1     -10.203   8.176  71.398  1.00  0.00    -0.248 C  
HETATM   26  C   UNL     1      -9.246   8.049  72.332  1.00  0.00    -0.264 C  
BRANCH  26  27
HETATM   27  C   UNL     1      -8.659   6.748  72.729  1.00  0.00    -0.129 A  
HETATM   28  C   UNL     1      -8.142   6.610  74.027  1.00  0.00    -0.124 A  
HETATM   29  C   UNL     1      -7.500   5.434  74.430  1.00  0.00    -0.085 A  
HETATM   30  C   UNL     1      -7.385   4.377  73.534  1.00  0.00    -0.077 A  
HETATM   31  C   UNL     1      -7.933   4.467  72.263  1.00  0.00    -0.097 A  
HETATM   32  O   UNL     1      -6.731   3.228  73.869  1.00  0.00    -0.032 OA 
HETATM   33  H   UNL     1      -6.652   2.505  73.257  1.00  0.00     0.000 HD 
HETATM   34  C   UNL     1      -8.573   5.646  71.862  1.00  0.00    -0.131 A  
ENDBRANCH  26  27
ENDBRANCH  23  25
ENDBRANCH  16  17
ENDBRANCH   6  16
ENDBRANCH   3   4
TORSDOF 5
ENDMDL
MODEL      109
REMARK 921   NORMALIZED FREE ENERGY PREDICTED BY IDOCK:   -4.55 KCAL/MOL
REMARK 922        TOTAL FREE ENERGY PREDICTED BY IDOCK:   -6.97 KCAL/MOL
REMARK 923 INTER-LIGAND FREE ENERGY PREDICTED BY IDOCK:   -6.17 KCAL/MOL
REMARK 924 INTRA-LIGAND FREE ENERGY PREDICTED BY IDOCK:   -0.80 KCAL/MOL
REMARK 927      BINDING AFFINITY PREDICTED BY RF-SCORE:    0.00 PKD
ROOT
HETATM    1  O   UNL     1     -12.569  10.890  69.225  1.00  0.00    -0.625 OA 
HETATM    2  H   UNL     1     -12.729   9.960  69.336  1.00  0.00     0.000 HD 
HETATM    3  C   UNL     1     -11.904  11.167  67.997  1.00  0.00    -0.126 C  
ENDROOT
BRANCH   3   4
HETATM    4  C   UNL     1     -11.645  12.677  67.817  1.00  0.00    -0.348 C  
HETATM    5  O   UNL     1     -10.396  13.097  68.410  1.00  0.00    -0.245 OA 
HETATM    6  C   UNL     1      -9.210  12.689  67.699  1.00  0.00    -0.191 C  
HETATM    7  C   UNL     1      -9.258  13.241  66.246  1.00  0.00    -0.051 C  
HETATM    8  H   UNL     1     -11.264  11.194  64.720  1.00  0.00     0.000 HD 
HETATM    9  C   UNL     1     -10.546  12.830  65.521  1.00  0.00    -0.281 C  
HETATM   10  O   UNL     1      -9.168  14.681  66.213  1.00  0.00    -0.387 OA 
HETATM   11  H   UNL     1     -12.140  14.882  65.471  1.00  0.00     0.000 HD 
HETATM   12  C   UNL     1     -11.791  13.165  66.361  1.00  0.00    -0.400 C  
HETATM   13  H   UNL     1      -9.198  15.018  65.326  1.00  0.00     0.000 HD 
HETATM   14  O   UNL     1     -10.466  11.448  65.169  1.00  0.00    -0.273 OA 
HETATM   15  O   UNL     1     -12.050  14.582  66.369  1.00  0.00    -0.385 OA 
BRANCH   6  16
HETATM   16  O   UNL     1      -9.066  11.271  67.805  1.00  0.00    -0.146 OA 
BRANCH  16  17
HETATM   17  C   UNL     1      -8.456  10.722  68.894  1.00  0.00    -0.149 A  
HETATM   18  C   UNL     1      -6.585  10.302  70.335  1.00  0.00    -0.126 A  
HETATM   19  C   UNL     1      -7.287   9.291  70.981  1.00  0.00    -0.091 A  
HETATM   20  O   UNL     1      -5.298  10.539  70.728  1.00  0.00    -0.072 OA 
HETATM   21  C   UNL     1      -7.166  11.038  69.309  1.00  0.00    -0.124 A  
HETATM   22  H   UNL     1      -4.901  10.036  71.429  1.00  0.00     0.000 HD 
HETATM   23  C   UNL     1      -8.600   8.984  70.608  1.00  0.00    -0.245 A  
HETATM   24  C   UNL     1      -9.166   9.690  69.535  1.00  0.00    -0.214 A  
BRANCH  23  25
HETATM   25  C   UNL     1      -9.282   7.907  71.354  1.00  0.00    -0.165 C  
HETATM   26  C   UNL     1      -8.723   6.776  71.815  1.00  0.00    -0.128 C  
BRANCH  26  27
HETATM   27  C   UNL     1      -9.502   5.648  72.374  1.00  0.00    -0.157 A  
HETATM   28  C   UNL     1      -8.905   4.378  72.429  1.00  0.00    -0.124 A  
HETATM   29  C   UNL     1      -9.622   3.259  72.867  1.00  0.00    -0.161 A  
HETATM   30  C   UNL     1     -10.943   3.409  73.271  1.00  0.00    -0.164 A  
HETATM   31  C   UNL     1     -11.541   4.661  73.277  1.00  0.00    -0.274 A  
HETATM   32  O   UNL     1     -11.693   2.340  73.667  1.00  0.00    -0.221 OA 
HETATM   33  H   UNL     1     -12.596   2.442  73.943  1.00  0.00     0.000 HD 
HETATM   34  C   UNL     1     -10.822   5.778  72.836  1.00  0.00    -0.298 A  
ENDBRANCH  26  27
ENDBRANCH  23  25
ENDBRANCH  16  17
ENDBRANCH   6  16
ENDBRANCH   3   4
TORSDOF 5
ENDMDL
MODEL      110
REMARK 921   NORMALIZED FREE ENERGY PREDICTED BY IDOCK:   -4.47 KCAL/MOL
REMARK 922        TOTAL FREE ENERGY PREDICTED BY IDOCK:   -6.85 KCAL/MOL
REMARK 923 INTER-LIGAND FREE ENERGY PREDICTED BY IDOCK:   -6.46 KCAL/MOL
REMARK 924 INTRA-LIGAND FREE ENERGY PREDICTED BY IDOCK:   -0.39 KCAL/MOL
REMARK 927      BINDING AFFINITY PREDICTED BY RF-SCORE:    0.00 PKD
ROOT
HETATM    1  O   UNL     1     -12.322  10.988  68.907  1.00  0.00    -0.693 OA 
HETATM    2  H   UNL     1     -12.687  10.126  69.075  1.00  0.00     0.000 HD 
HETATM    3  C   UNL     1     -11.888  11.123  67.559  1.00  0.00     0.158 C  
ENDROOT
BRANCH   3   4
HETATM    4  C   UNL     1     -11.297  12.522  67.287  1.00  0.00    -0.315 C  
HETATM    5  O   UNL     1      -9.946  12.460  66.777  1.00  0.00    -0.218 OA 
HETATM    6  C   UNL     1      -9.825  12.014  65.411  1.00  0.00    -0.220 C  
HETATM    7  C   UNL     1     -10.645  12.954  64.482  1.00  0.00    -0.382 C  
HETATM    8  H   UNL     1     -13.703  11.939  64.877  1.00  0.00     0.000 HD 
HETATM    9  C   UNL     1     -12.106  13.071  64.932  1.00  0.00    -0.413 C  
HETATM   10  O   UNL     1     -10.085  14.284  64.432  1.00  0.00    -0.646 OA 
HETATM   11  H   UNL     1     -12.406  15.357  66.131  1.00  0.00     0.000 HD 
HETATM   12  C   UNL     1     -12.204  13.425  66.426  1.00  0.00    -0.376 C  
HETATM   13  H   UNL     1     -10.585  14.858  63.865  1.00  0.00     0.000 HD 
HETATM   14  O   UNL     1     -12.798  11.866  64.598  1.00  0.00    -0.330 OA 
HETATM   15  O   UNL     1     -11.847  14.801  66.661  1.00  0.00    -0.342 OA 
BRANCH   6  16
HETATM   16  O   UNL     1     -10.177  10.631  65.337  1.00  0.00    -0.274 OA 
BRANCH  16  17
HETATM   17  C   UNL     1      -9.315   9.678  65.792  1.00  0.00    -0.228 A  
HETATM   18  C   UNL     1      -7.404   8.238  65.617  1.00  0.00    -0.072 A  
HETATM   19  C   UNL     1      -7.826   7.515  66.727  1.00  0.00    -0.110 A  
HETATM   20  O   UNL     1      -6.267   7.829  64.982  1.00  0.00    -0.038 OA 
HETATM   21  C   UNL     1      -8.126   9.333  65.157  1.00  0.00    -0.124 A  
HETATM   22  H   UNL     1      -5.773   7.081  65.297  1.00  0.00     0.000 HD 
HETATM   23  C   UNL     1      -8.997   7.868  67.406  1.00  0.00    -0.133 A  
HETATM   24  C   UNL     1      -9.754   8.939  66.907  1.00  0.00    -0.263 A  
BRANCH  23  25
HETATM   25  C   UNL     1      -9.368   7.058  68.584  1.00  0.00    -0.136 C  
HETATM   26  C   UNL     1      -8.633   6.087  69.150  1.00  0.00    -0.117 C  
BRANCH  26  27
HETATM   27  C   UNL     1      -9.149   5.178  70.200  1.00  0.00    -0.167 A  
HETATM   28  C   UNL     1      -8.860   3.807  70.106  1.00  0.00    -0.138 A  
HETATM   29  C   UNL     1      -9.391   2.890  71.020  1.00  0.00    -0.218 A  
HETATM   30  C   UNL     1     -10.206   3.347  72.050  1.00  0.00    -0.046 A  
HETATM   31  C   UNL     1     -10.464   4.702  72.197  1.00  0.00    -0.219 A  
HETATM   32  O   UNL     1     -10.779   2.485  72.939  1.00  0.00    -0.156 OA 
HETATM   33  H   UNL     1     -11.336   2.797  73.643  1.00  0.00     0.000 HD 
HETATM   34  C   UNL     1      -9.934   5.616  71.279  1.00  0.00    -0.248 A  
ENDBRANCH  26  27
ENDBRANCH  23  25
ENDBRANCH  16  17
ENDBRANCH   6  16
ENDBRANCH   3   4
TORSDOF 5
ENDMDL
MODEL      111
REMARK 921   NORMALIZED FREE ENERGY PREDICTED BY IDOCK:   -4.41 KCAL/MOL
REMARK 922        TOTAL FREE ENERGY PREDICTED BY IDOCK:   -6.78 KCAL/MOL
REMARK 923 INTER-LIGAND FREE ENERGY PREDICTED BY IDOCK:   -5.85 KCAL/MOL
REMARK 924 INTRA-LIGAND FREE ENERGY PREDICTED BY IDOCK:   -0.93 KCAL/MOL
REMARK 927      BINDING AFFINITY PREDICTED BY RF-SCORE:    0.00 PKD
ROOT
HETATM    1  O   UNL     1      -7.255   6.507  70.485  1.00  0.00    -0.070 OA 
HETATM    2  H   UNL     1      -7.210   6.714  69.559  1.00  0.00     0.000 HD 
HETATM    3  C   UNL     1      -8.147   5.428  70.741  1.00  0.00    -0.111 C  
ENDROOT
BRANCH   3   4
HETATM    4  C   UNL     1      -8.220   5.093  72.245  1.00  0.00    -0.121 C  
HETATM    5  O   UNL     1      -9.053   6.019  72.977  1.00  0.00    -0.132 OA 
HETATM    6  C   UNL     1     -10.472   5.878  72.756  1.00  0.00    -0.209 C  
HETATM    7  C   UNL     1     -10.916   4.435  73.133  1.00  0.00    -0.247 C  
HETATM    8  H   UNL     1     -10.015   2.666  70.564  1.00  0.00     0.000 HD 
HETATM    9  C   UNL     1     -10.098   3.372  72.388  1.00  0.00    -0.158 C  
HETATM   10  O   UNL     1     -10.789   4.185  74.549  1.00  0.00    -0.213 OA 
HETATM   11  H   UNL     1      -8.357   2.380  74.043  1.00  0.00     0.000 HD 
HETATM   12  C   UNL     1      -8.587   3.623  72.539  1.00  0.00    -0.090 C  
HETATM   13  H   UNL     1     -11.059   3.304  74.779  1.00  0.00     0.000 HD 
HETATM   14  O   UNL     1     -10.522   3.324  71.025  1.00  0.00     0.532 OA 
HETATM   15  O   UNL     1      -8.131   3.285  73.863  1.00  0.00    -0.069 OA 
BRANCH   6  16
HETATM   16  O   UNL     1     -10.779   6.277  71.419  1.00  0.00    -0.231 OA 
BRANCH  16  17
HETATM   17  C   UNL     1     -11.037   7.585  71.135  1.00  0.00    -0.251 A  
HETATM   18  C   UNL     1     -12.071   9.713  71.526  1.00  0.00    -0.401 A  
HETATM   19  C   UNL     1     -11.703  10.145  70.257  1.00  0.00    -0.361 A  
HETATM   20  O   UNL     1     -12.802  10.566  72.305  1.00  0.00    -0.366 OA 
HETATM   21  C   UNL     1     -11.724   8.448  71.983  1.00  0.00    -0.417 A  
HETATM   22  H   UNL     1     -13.039  11.431  71.993  1.00  0.00     0.000 HD 
HETATM   23  C   UNL     1     -10.976   9.310  69.402  1.00  0.00    -0.138 A  
HETATM   24  C   UNL     1     -10.675   8.013  69.844  1.00  0.00    -0.242 A  
BRANCH  23  25
HETATM   25  C   UNL     1     -10.611   9.849  68.077  1.00  0.00    -0.288 C  
HETATM   26  C   UNL     1     -10.371   9.138  66.963  1.00  0.00    -0.333 C  
BRANCH  26  27
HETATM   27  C   UNL     1      -9.812   9.724  65.723  1.00  0.00    -0.360 A  
HETATM   28  C   UNL     1      -8.503   9.384  65.347  1.00  0.00    -0.159 A  
HETATM   29  C   UNL     1      -7.893   9.972  64.233  1.00  0.00    -0.144 A  
HETATM   30  C   UNL     1      -8.601  10.899  63.476  1.00  0.00     0.008 A  
HETATM   31  C   UNL     1      -9.914  11.213  63.794  1.00  0.00    -0.401 A  
HETATM   32  O   UNL     1      -8.033  11.528  62.407  1.00  0.00    -0.598 OA 
HETATM   33  H   UNL     1      -8.516  12.161  61.890  1.00  0.00     0.000 HD 
HETATM   34  C   UNL     1     -10.521  10.625  64.910  1.00  0.00    -0.282 A  
ENDBRANCH  26  27
ENDBRANCH  23  25
ENDBRANCH  16  17
ENDBRANCH   6  16
ENDBRANCH   3   4
TORSDOF 5
ENDMDL
MODEL      112
REMARK 921   NORMALIZED FREE ENERGY PREDICTED BY IDOCK:   -4.39 KCAL/MOL
REMARK 922        TOTAL FREE ENERGY PREDICTED BY IDOCK:   -6.76 KCAL/MOL
REMARK 923 INTER-LIGAND FREE ENERGY PREDICTED BY IDOCK:   -5.72 KCAL/MOL
REMARK 924 INTRA-LIGAND FREE ENERGY PREDICTED BY IDOCK:   -1.04 KCAL/MOL
REMARK 927      BINDING AFFINITY PREDICTED BY RF-SCORE:    0.00 PKD
ROOT
HETATM    1  O   UNL     1      -7.694   6.989  68.258  1.00  0.00    -0.111 OA 
HETATM    2  H   UNL     1      -7.471   6.907  67.338  1.00  0.00     0.000 HD 
HETATM    3  C   UNL     1      -7.737   8.350  68.671  1.00  0.00    -0.107 C  
ENDROOT
BRANCH   3   4
HETATM    4  C   UNL     1      -8.098   8.482  70.165  1.00  0.00    -0.111 C  
HETATM    5  O   UNL     1      -8.537   9.815  70.511  1.00  0.00    -0.160 OA 
HETATM    6  C   UNL     1      -9.853  10.170  70.040  1.00  0.00    -0.128 C  
HETATM    7  C   UNL     1     -10.896   9.162  70.601  1.00  0.00    -0.264 C  
HETATM    8  H   UNL     1     -10.561   6.568  68.679  1.00  0.00     0.000 HD 
HETATM    9  C   UNL     1     -10.527   7.711  70.267  1.00  0.00    -0.224 C  
HETATM   10  O   UNL     1     -11.032   9.270  72.034  1.00  0.00    -0.315 OA 
HETATM   11  H   UNL     1      -9.542   6.612  72.407  1.00  0.00     0.000 HD 
HETATM   12  C   UNL     1      -9.075   7.399  70.668  1.00  0.00    -0.156 C  
HETATM   13  H   UNL     1     -11.669   8.655  72.378  1.00  0.00     0.000 HD 
HETATM   14  O   UNL     1     -10.790   7.467  68.885  1.00  0.00    -0.166 OA 
HETATM   15  O   UNL     1      -8.941   7.279  72.097  1.00  0.00    -0.131 OA 
BRANCH   6  16
HETATM   16  O   UNL     1      -9.826  10.284  68.616  1.00  0.00    -0.160 OA 
BRANCH  16  17
HETATM   17  C   UNL     1     -10.133  11.469  68.016  1.00  0.00    -0.186 A  
HETATM   18  C   UNL     1     -10.976  12.825  66.226  1.00  0.00    -0.280 A  
HETATM   19  C   UNL     1     -10.420  13.962  66.802  1.00  0.00    -0.270 A  
HETATM   20  O   UNL     1     -11.625  12.966  65.033  1.00  0.00    -0.310 OA 
HETATM   21  C   UNL     1     -10.859  11.581  66.834  1.00  0.00    -0.331 A  
HETATM   22  H   UNL     1     -11.705  13.816  64.617  1.00  0.00     0.000 HD 
HETATM   23  C   UNL     1      -9.721  13.880  68.011  1.00  0.00    -0.226 A  
HETATM   24  C   UNL     1      -9.555  12.615  68.595  1.00  0.00    -0.028 A  
BRANCH  23  25
HETATM   25  C   UNL     1      -9.174  15.135  68.565  1.00  0.00    -0.192 C  
HETATM   26  C   UNL     1      -8.987  16.287  67.900  1.00  0.00    -0.187 C  
BRANCH  26  27
HETATM   27  C   UNL     1      -8.248  17.443  68.459  1.00  0.00    -0.268 A  
HETATM   28  C   UNL     1      -7.142  17.198  69.289  1.00  0.00    -0.162 A  
HETATM   29  C   UNL     1      -6.459  18.247  69.913  1.00  0.00     0.020 A  
HETATM   30  C   UNL     1      -6.872  19.557  69.695  1.00  0.00    -0.247 A  
HETATM   31  C   UNL     1      -7.928  19.830  68.839  1.00  0.00    -0.206 A  
HETATM   32  O   UNL     1      -6.262  20.608  70.316  1.00  0.00    -0.450 OA 
HETATM   33  H   UNL     1      -6.543  21.503  70.167  1.00  0.00     0.000 HD 
HETATM   34  C   UNL     1      -8.611  18.778  68.218  1.00  0.00    -0.357 A  
ENDBRANCH  26  27
ENDBRANCH  23  25
ENDBRANCH  16  17
ENDBRANCH   6  16
ENDBRANCH   3   4
TORSDOF 5
ENDMDL
MODEL      113
REMARK 921   NORMALIZED FREE ENERGY PREDICTED BY IDOCK:   -4.32 KCAL/MOL
REMARK 922        TOTAL FREE ENERGY PREDICTED BY IDOCK:   -6.66 KCAL/MOL
REMARK 923 INTER-LIGAND FREE ENERGY PREDICTED BY IDOCK:   -5.97 KCAL/MOL
REMARK 924 INTRA-LIGAND FREE ENERGY PREDICTED BY IDOCK:   -0.69 KCAL/MOL
REMARK 927      BINDING AFFINITY PREDICTED BY RF-SCORE:    0.00 PKD
ROOT
HETATM    1  O   UNL     1      -6.825   8.445  74.189  1.00  0.00    -0.134 OA 
HETATM    2  H   UNL     1      -6.511   9.334  74.070  1.00  0.00     0.000 HD 
HETATM    3  C   UNL     1      -7.793   8.092  73.206  1.00  0.00    -0.166 C  
ENDROOT
BRANCH   3   4
HETATM    4  C   UNL     1      -8.303   6.650  73.399  1.00  0.00    -0.118 C  
HETATM    5  O   UNL     1      -9.646   6.468  72.899  1.00  0.00    -0.149 OA 
HETATM    6  C   UNL     1      -9.770   6.445  71.462  1.00  0.00    -0.168 C  
HETATM    7  C   UNL     1      -8.886   5.305  70.882  1.00  0.00    -0.136 C  
HETATM    8  H   UNL     1      -5.894   6.565  70.923  1.00  0.00     0.000 HD 
HETATM    9  C   UNL     1      -7.427   5.422  71.342  1.00  0.00    -0.097 C  
HETATM   10  O   UNL     1      -9.372   4.000  71.263  1.00  0.00    -0.122 OA 
HETATM   11  H   UNL     1      -7.022   3.661  73.210  1.00  0.00     0.000 HD 
HETATM   12  C   UNL     1      -7.334   5.571  72.870  1.00  0.00    -0.092 C  
HETATM   13  H   UNL     1      -8.832   3.304  70.908  1.00  0.00     0.000 HD 
HETATM   14  O   UNL     1      -6.797   6.493  70.637  1.00  0.00    -0.059 OA 
HETATM   15  O   UNL     1      -7.619   4.325  73.535  1.00  0.00    -0.075 OA 
BRANCH   6  16
HETATM   16  O   UNL     1      -9.493   7.749  70.948  1.00  0.00    -0.159 OA 
BRANCH  16  17
HETATM   17  C   UNL     1     -10.490   8.674  70.846  1.00  0.00    -0.214 A  
HETATM   18  C   UNL     1     -12.717   9.492  71.199  1.00  0.00    -0.291 A  
HETATM   19  C   UNL     1     -12.501  10.523  70.292  1.00  0.00    -0.345 A  
HETATM   20  O   UNL     1     -13.953   9.393  71.771  1.00  0.00    -0.307 OA 
HETATM   21  C   UNL     1     -11.714   8.578  71.500  1.00  0.00    -0.354 A  
HETATM   22  H   UNL     1     -14.638  10.017  71.566  1.00  0.00     0.000 HD 
HETATM   23  C   UNL     1     -11.264  10.664  69.653  1.00  0.00    -0.351 A  
HETATM   24  C   UNL     1     -10.271   9.708  69.916  1.00  0.00    -0.279 A  
BRANCH  23  25
HETATM   25  C   UNL     1     -11.110  11.794  68.715  1.00  0.00    -0.293 C  
HETATM   26  C   UNL     1     -10.333  12.877  68.889  1.00  0.00    -0.059 C  
BRANCH  26  27
HETATM   27  C   UNL     1     -10.380  14.066  68.008  1.00  0.00    -0.240 A  
HETATM   28  C   UNL     1      -9.407  14.200  67.004  1.00  0.00    -0.253 A  
HETATM   29  C   UNL     1      -9.350  15.342  66.198  1.00  0.00    -0.367 A  
HETATM   30  C   UNL     1     -10.283  16.356  66.384  1.00  0.00    -0.316 A  
HETATM   31  C   UNL     1     -11.287  16.227  67.332  1.00  0.00     0.113 A  
HETATM   32  O   UNL     1     -10.240  17.505  65.650  1.00  0.00    -0.595 OA 
HETATM   33  H   UNL     1     -10.877  18.199  65.776  1.00  0.00     0.000 HD 
HETATM   34  C   UNL     1     -11.339  15.084  68.139  1.00  0.00    -0.343 A  
ENDBRANCH  26  27
ENDBRANCH  23  25
ENDBRANCH  16  17
ENDBRANCH   6  16
ENDBRANCH   3   4
TORSDOF 5
ENDMDL
MODEL      114
REMARK 921   NORMALIZED FREE ENERGY PREDICTED BY IDOCK:   -4.29 KCAL/MOL
REMARK 922        TOTAL FREE ENERGY PREDICTED BY IDOCK:   -6.62 KCAL/MOL
REMARK 923 INTER-LIGAND FREE ENERGY PREDICTED BY IDOCK:   -5.58 KCAL/MOL
REMARK 924 INTRA-LIGAND FREE ENERGY PREDICTED BY IDOCK:   -1.04 KCAL/MOL
REMARK 927      BINDING AFFINITY PREDICTED BY RF-SCORE:    0.00 PKD
ROOT
HETATM    1  O   UNL     1     -10.305  17.109  68.778  1.00  0.00    -0.314 OA 
HETATM    2  H   UNL     1     -10.960  16.494  68.469  1.00  0.00     0.000 HD 
HETATM    3  C   UNL     1      -9.923  18.027  67.761  1.00  0.00    -0.326 C  
ENDROOT
BRANCH   3   4
HETATM    4  C   UNL     1      -8.859  19.025  68.263  1.00  0.00    -0.333 C  
HETATM    5  O   UNL     1      -7.886  18.403  69.132  1.00  0.00    -0.169 OA 
HETATM    6  C   UNL     1      -6.936  17.540  68.474  1.00  0.00    -0.214 C  
HETATM    7  C   UNL     1      -6.164  18.346  67.391  1.00  0.00    -0.180 C  
HETATM    8  H   UNL     1      -8.249  18.477  64.907  1.00  0.00     0.000 HD 
HETATM    9  C   UNL     1      -7.115  19.032  66.402  1.00  0.00    -0.229 C  
HETATM   10  O   UNL     1      -5.319  19.360  67.975  1.00  0.00    -0.176 OA 
HETATM   11  H   UNL     1      -7.235  21.556  67.011  1.00  0.00     0.000 HD 
HETATM   12  C   UNL     1      -8.194  19.845  67.138  1.00  0.00    -0.312 C  
HETATM   13  H   UNL     1      -4.847  19.852  67.314  1.00  0.00     0.000 HD 
HETATM   14  O   UNL     1      -7.660  18.051  65.518  1.00  0.00    -0.530 OA 
HETATM   15  O   UNL     1      -7.644  21.051  67.704  1.00  0.00    -0.240 OA 
BRANCH   6  16
HETATM   16  O   UNL     1      -7.615  16.377  67.995  1.00  0.00    -0.146 OA 
BRANCH  16  17
HETATM   17  C   UNL     1      -7.314  15.148  68.504  1.00  0.00    -0.119 A  
HETATM   18  C   UNL     1      -6.464  13.657  70.179  1.00  0.00     0.040 A  
HETATM   19  C   UNL     1      -6.483  12.602  69.275  1.00  0.00    -0.106 A  
HETATM   20  O   UNL     1      -5.988  13.412  71.436  1.00  0.00    -0.544 OA 
HETATM   21  C   UNL     1      -6.898  14.925  69.813  1.00  0.00    -0.182 A  
HETATM   22  H   UNL     1      -5.691  12.546  71.686  1.00  0.00     0.000 HD 
HETATM   23  C   UNL     1      -6.937  12.793  67.965  1.00  0.00    -0.107 A  
HETATM   24  C   UNL     1      -7.322  14.086  67.580  1.00  0.00    -0.188 A  
BRANCH  23  25
HETATM   25  C   UNL     1      -6.940  11.618  67.070  1.00  0.00    -0.144 C  
HETATM   26  C   UNL     1      -8.018  11.033  66.522  1.00  0.00    -0.158 C  
BRANCH  26  27
HETATM   27  C   UNL     1      -7.969   9.740  65.801  1.00  0.00    -0.116 A  
HETATM   28  C   UNL     1      -7.858   9.753  64.402  1.00  0.00    -0.137 A  
HETATM   29  C   UNL     1      -7.893   8.566  63.662  1.00  0.00    -0.151 A  
HETATM   30  C   UNL     1      -8.025   7.351  64.325  1.00  0.00    -0.097 A  
HETATM   31  C   UNL     1      -8.084   7.306  65.710  1.00  0.00    -0.129 A  
HETATM   32  O   UNL     1      -8.105   6.172  63.642  1.00  0.00    -0.164 OA 
HETATM   33  H   UNL     1      -8.195   5.342  64.094  1.00  0.00     0.000 HD 
HETATM   34  C   UNL     1      -8.051   8.495  66.447  1.00  0.00    -0.103 A  
ENDBRANCH  26  27
ENDBRANCH  23  25
ENDBRANCH  16  17
ENDBRANCH   6  16
ENDBRANCH   3   4
TORSDOF 5
ENDMDL
MODEL      115
REMARK 921   NORMALIZED FREE ENERGY PREDICTED BY IDOCK:   -4.23 KCAL/MOL
REMARK 922        TOTAL FREE ENERGY PREDICTED BY IDOCK:   -6.55 KCAL/MOL
REMARK 923 INTER-LIGAND FREE ENERGY PREDICTED BY IDOCK:   -6.10 KCAL/MOL
REMARK 924 INTRA-LIGAND FREE ENERGY PREDICTED BY IDOCK:   -0.46 KCAL/MOL
REMARK 927      BINDING AFFINITY PREDICTED BY RF-SCORE:    0.00 PKD
ROOT
HETATM    1  O   UNL     1     -12.379  11.655  68.653  1.00  0.00    -0.394 OA 
HETATM    2  H   UNL     1     -12.205  10.767  68.942  1.00  0.00     0.000 HD 
HETATM    3  C   UNL     1     -11.796  11.919  67.382  1.00  0.00    -0.168 C  
ENDROOT
BRANCH   3   4
HETATM    4  C   UNL     1     -12.078  13.361  66.912  1.00  0.00    -0.354 C  
HETATM    5  O   UNL     1     -10.901  14.197  66.957  1.00  0.00    -0.289 OA 
HETATM    6  C   UNL     1      -9.918  13.931  65.935  1.00  0.00    -0.300 C  
HETATM    7  C   UNL     1     -10.569  14.097  64.532  1.00  0.00    -0.261 C  
HETATM    8  H   UNL     1     -12.212  11.327  64.122  1.00  0.00     0.000 HD 
HETATM    9  C   UNL     1     -11.824  13.229  64.378  1.00  0.00    -0.399 C  
HETATM   10  O   UNL     1     -10.938  15.467  64.269  1.00  0.00    -0.661 OA 
HETATM   11  H   UNL     1     -13.907  14.765  64.611  1.00  0.00     0.000 HD 
HETATM   12  C   UNL     1     -12.798  13.442  65.549  1.00  0.00    -0.299 C  
HETATM   13  H   UNL     1     -11.336  15.569  63.412  1.00  0.00     0.000 HD 
HETATM   14  O   UNL     1     -11.434  11.864  64.217  1.00  0.00    -0.350 OA 
HETATM   15  O   UNL     1     -13.464  14.716  65.450  1.00  0.00    -0.230 OA 
BRANCH   6  16
HETATM   16  O   UNL     1      -9.322  12.656  66.180  1.00  0.00    -0.207 OA 
BRANCH  16  17
HETATM   17  C   UNL     1      -8.494  12.479  67.249  1.00  0.00    -0.185 A  
HETATM   18  C   UNL     1      -6.542  12.939  68.563  1.00  0.00    -0.087 A  
HETATM   19  C   UNL     1      -6.758  11.792  69.318  1.00  0.00    -0.110 A  
HETATM   20  O   UNL     1      -5.433  13.687  68.842  1.00  0.00    -0.072 OA 
HETATM   21  C   UNL     1      -7.413  13.303  67.545  1.00  0.00    -0.163 A  
HETATM   22  H   UNL     1      -4.838  13.438  69.538  1.00  0.00     0.000 HD 
HETATM   23  C   UNL     1      -7.862  10.969  69.066  1.00  0.00    -0.126 A  
HETATM   24  C   UNL     1      -8.710  11.309  68.001  1.00  0.00    -0.144 A  
BRANCH  23  25
HETATM   25  C   UNL     1      -8.029   9.778  69.923  1.00  0.00    -0.184 C  
HETATM   26  C   UNL     1      -8.025   8.496  69.520  1.00  0.00    -0.106 C  
BRANCH  26  27
HETATM   27  C   UNL     1      -8.400   7.363  70.395  1.00  0.00    -0.129 A  
HETATM   28  C   UNL     1      -9.399   6.476  69.960  1.00  0.00    -0.160 A  
HETATM   29  C   UNL     1      -9.854   5.439  70.781  1.00  0.00    -0.252 A  
HETATM   30  C   UNL     1      -9.297   5.272  72.044  1.00  0.00    -0.137 A  
HETATM   31  C   UNL     1      -8.273   6.100  72.478  1.00  0.00    -0.108 A  
HETATM   32  O   UNL     1      -9.739   4.300  72.893  1.00  0.00    -0.126 OA 
HETATM   33  H   UNL     1      -9.359   4.185  73.756  1.00  0.00     0.000 HD 
HETATM   34  C   UNL     1      -7.822   7.139  71.656  1.00  0.00    -0.097 A  
ENDBRANCH  26  27
ENDBRANCH  23  25
ENDBRANCH  16  17
ENDBRANCH   6  16
ENDBRANCH   3   4
TORSDOF 5
ENDMDL
MODEL      116
REMARK 921   NORMALIZED FREE ENERGY PREDICTED BY IDOCK:   -4.17 KCAL/MOL
REMARK 922        TOTAL FREE ENERGY PREDICTED BY IDOCK:   -6.47 KCAL/MOL
REMARK 923 INTER-LIGAND FREE ENERGY PREDICTED BY IDOCK:   -5.62 KCAL/MOL
REMARK 924 INTRA-LIGAND FREE ENERGY PREDICTED BY IDOCK:   -0.84 KCAL/MOL
REMARK 927      BINDING AFFINITY PREDICTED BY RF-SCORE:    0.00 PKD
ROOT
HETATM    1  O   UNL     1     -10.460   9.058  66.037  1.00  0.00    -0.221 OA 
HETATM    2  H   UNL     1     -10.934   9.880  66.086  1.00  0.00     0.000 HD 
HETATM    3  C   UNL     1     -10.623   8.283  67.219  1.00  0.00    -0.265 C  
ENDROOT
BRANCH   3   4
HETATM    4  C   UNL     1      -9.853   6.949  67.139  1.00  0.00    -0.165 C  
HETATM    5  O   UNL     1      -8.490   7.070  67.606  1.00  0.00    -0.122 OA 
HETATM    6  C   UNL     1      -8.339   7.207  69.034  1.00  0.00    -0.126 C  
HETATM    7  C   UNL     1      -8.982   5.981  69.744  1.00  0.00    -0.133 C  
HETATM    8  H   UNL     1     -12.158   6.651  69.695  1.00  0.00     0.000 HD 
HETATM    9  C   UNL     1     -10.444   5.780  69.327  1.00  0.00    -0.287 C  
HETATM   10  O   UNL     1      -8.265   4.760  69.465  1.00  0.00    -0.075 OA 
HETATM   11  H   UNL     1     -10.541   3.805  67.639  1.00  0.00     0.000 HD 
HETATM   12  C   UNL     1     -10.590   5.763  67.795  1.00  0.00    -0.237 C  
HETATM   13  H   UNL     1      -8.657   4.011  69.899  1.00  0.00     0.000 HD 
HETATM   14  O   UNL     1     -11.253   6.776  69.954  1.00  0.00    -0.296 OA 
HETATM   15  O   UNL     1     -10.087   4.536  67.235  1.00  0.00    -0.168 OA 
BRANCH   6  16
HETATM   16  O   UNL     1      -8.850   8.478  69.438  1.00  0.00    -0.138 OA 
BRANCH  16  17
HETATM   17  C   UNL     1      -8.034   9.571  69.458  1.00  0.00    -0.110 A  
HETATM   18  C   UNL     1      -6.241  10.907  70.325  1.00  0.00    -0.141 A  
HETATM   19  C   UNL     1      -6.653  11.990  69.557  1.00  0.00    -0.079 A  
HETATM   20  O   UNL     1      -5.170  11.083  71.154  1.00  0.00    -0.103 OA 
HETATM   21  C   UNL     1      -6.907   9.689  70.266  1.00  0.00    -0.107 A  
HETATM   22  H   UNL     1      -4.714  11.915  71.195  1.00  0.00     0.000 HD 
HETATM   23  C   UNL     1      -7.759  11.882  68.706  1.00  0.00    -0.074 A  
HETATM   24  C   UNL     1      -8.464  10.669  68.690  1.00  0.00    -0.142 A  
BRANCH  23  25
HETATM   25  C   UNL     1      -8.123  13.073  67.913  1.00  0.00    -0.158 C  
HETATM   26  C   UNL     1      -8.604  14.234  68.389  1.00  0.00    -0.175 C  
BRANCH  26  27
HETATM   27  C   UNL     1      -9.139  15.311  67.526  1.00  0.00    -0.189 A  
HETATM   28  C   UNL     1      -8.994  16.644  67.944  1.00  0.00    -0.217 A  
HETATM   29  C   UNL     1      -9.555  17.698  67.212  1.00  0.00    -0.271 A  
HETATM   30  C   UNL     1     -10.254  17.422  66.043  1.00  0.00    -0.300 A  
HETATM   31  C   UNL     1     -10.367  16.119  65.579  1.00  0.00    -0.391 A  
HETATM   32  O   UNL     1     -10.851  18.413  65.321  1.00  0.00    -0.624 OA 
HETATM   33  H   UNL     1     -11.329  18.225  64.521  1.00  0.00     0.000 HD 
HETATM   34  C   UNL     1      -9.807  15.067  66.314  1.00  0.00    -0.307 A  
ENDBRANCH  26  27
ENDBRANCH  23  25
ENDBRANCH  16  17
ENDBRANCH   6  16
ENDBRANCH   3   4
TORSDOF 5
ENDMDL
MODEL      117
REMARK 921   NORMALIZED FREE ENERGY PREDICTED BY IDOCK:   -4.14 KCAL/MOL
REMARK 922        TOTAL FREE ENERGY PREDICTED BY IDOCK:   -6.43 KCAL/MOL
REMARK 923 INTER-LIGAND FREE ENERGY PREDICTED BY IDOCK:   -5.52 KCAL/MOL
REMARK 924 INTRA-LIGAND FREE ENERGY PREDICTED BY IDOCK:   -0.91 KCAL/MOL
REMARK 927      BINDING AFFINITY PREDICTED BY RF-SCORE:    0.00 PKD
ROOT
HETATM    1  O   UNL     1     -11.808  13.431  69.128  1.00  0.00    -0.301 OA 
HETATM    2  H   UNL     1     -12.462  12.742  69.130  1.00  0.00     0.000 HD 
HETATM    3  C   UNL     1     -12.027  14.364  68.076  1.00  0.00    -0.291 C  
ENDROOT
BRANCH   3   4
HETATM    4  C   UNL     1     -10.965  15.482  68.074  1.00  0.00    -0.311 C  
HETATM    5  O   UNL     1      -9.617  14.964  68.120  1.00  0.00    -0.202 OA 
HETATM    6  C   UNL     1      -9.150  14.356  66.899  1.00  0.00    -0.251 C  
HETATM    7  C   UNL     1      -9.224  15.392  65.741  1.00  0.00    -0.137 C  
HETATM    8  H   UNL     1     -12.364  15.389  64.916  1.00  0.00     0.000 HD 
HETATM    9  C   UNL     1     -10.629  15.989  65.597  1.00  0.00    -0.377 C  
HETATM   10  O   UNL     1      -8.294  16.479  65.931  1.00  0.00    -0.388 OA 
HETATM   11  H   UNL     1     -10.605  18.377  66.624  1.00  0.00     0.000 HD 
HETATM   12  C   UNL     1     -11.152  16.517  66.944  1.00  0.00     0.149 C  
HETATM   13  H   UNL     1      -8.339  17.112  65.224  1.00  0.00     0.000 HD 
HETATM   14  O   UNL     1     -11.494  15.018  65.004  1.00  0.00    -0.366 OA 
HETATM   15  O   UNL     1     -10.490  17.740  67.319  1.00  0.00    -0.356 OA 
BRANCH   6  16
HETATM   16  O   UNL     1      -9.871  13.143  66.674  1.00  0.00    -0.247 OA 
BRANCH  16  17
HETATM   17  C   UNL     1      -9.418  11.968  67.198  1.00  0.00    -0.187 A  
HETATM   18  C   UNL     1      -8.223  10.639  68.797  1.00  0.00    -0.142 A  
HETATM   19  C   UNL     1      -8.321   9.525  67.971  1.00  0.00    -0.118 A  
HETATM   20  O   UNL     1      -7.539  10.505  69.972  1.00  0.00    -0.321 OA 
HETATM   21  C   UNL     1      -8.787  11.856  68.433  1.00  0.00    -0.159 A  
HETATM   22  H   UNL     1      -7.154   9.673  70.221  1.00  0.00     0.000 HD 
HETATM   23  C   UNL     1      -8.988   9.604  66.743  1.00  0.00    -0.156 A  
HETATM   24  C   UNL     1      -9.507  10.847  66.351  1.00  0.00    -0.214 A  
BRANCH  23  25
HETATM   25  C   UNL     1      -9.061   8.373  65.931  1.00  0.00    -0.225 C  
HETATM   26  C   UNL     1      -8.720   7.134  66.325  1.00  0.00    -0.156 C  
BRANCH  26  27
HETATM   27  C   UNL     1      -8.624   5.981  65.401  1.00  0.00    -0.127 A  
HETATM   28  C   UNL     1      -7.676   6.023  64.366  1.00  0.00    -0.104 A  
HETATM   29  C   UNL     1      -7.599   5.001  63.413  1.00  0.00    -0.062 A  
HETATM   30  C   UNL     1      -8.465   3.917  63.501  1.00  0.00    -0.094 A  
HETATM   31  C   UNL     1      -9.375   3.825  64.544  1.00  0.00    -0.152 A  
HETATM   32  O   UNL     1      -8.453   2.919  62.571  1.00  0.00    -0.073 OA 
HETATM   33  H   UNL     1      -9.044   2.178  62.631  1.00  0.00     0.000 HD 
HETATM   34  C   UNL     1      -9.452   4.849  65.494  1.00  0.00    -0.155 A  
ENDBRANCH  26  27
ENDBRANCH  23  25
ENDBRANCH  16  17
ENDBRANCH   6  16
ENDBRANCH   3   4
TORSDOF 5
ENDMDL
MODEL      118
REMARK 921   NORMALIZED FREE ENERGY PREDICTED BY IDOCK:   -4.13 KCAL/MOL
REMARK 922        TOTAL FREE ENERGY PREDICTED BY IDOCK:   -6.41 KCAL/MOL
REMARK 923 INTER-LIGAND FREE ENERGY PREDICTED BY IDOCK:   -5.47 KCAL/MOL
REMARK 924 INTRA-LIGAND FREE ENERGY PREDICTED BY IDOCK:   -0.94 KCAL/MOL
REMARK 927      BINDING AFFINITY PREDICTED BY RF-SCORE:    0.00 PKD
ROOT
HETATM    1  O   UNL     1      -7.674   2.321  66.583  1.00  0.00    -0.069 OA 
HETATM    2  H   UNL     1      -7.551   1.748  67.331  1.00  0.00     0.000 HD 
HETATM    3  C   UNL     1      -9.002   2.830  66.522  1.00  0.00    -0.148 C  
ENDROOT
BRANCH   3   4
HETATM    4  C   UNL     1      -9.202   3.760  65.308  1.00  0.00    -0.151 C  
HETATM    5  O   UNL     1     -10.162   4.808  65.568  1.00  0.00    -0.189 OA 
HETATM    6  C   UNL     1      -9.703   5.858  66.444  1.00  0.00    -0.134 C  
HETATM    7  C   UNL     1      -8.426   6.515  65.846  1.00  0.00    -0.147 C  
HETATM    8  H   UNL     1      -6.065   4.418  66.598  1.00  0.00     0.000 HD 
HETATM    9  C   UNL     1      -7.334   5.479  65.551  1.00  0.00    -0.073 C  
HETATM   10  O   UNL     1      -8.710   7.226  64.622  1.00  0.00    -0.347 OA 
HETATM   11  H   UNL     1      -7.303   5.038  62.990  1.00  0.00     0.000 HD 
HETATM   12  C   UNL     1      -7.885   4.308  64.719  1.00  0.00    -0.088 C  
HETATM   13  H   UNL     1      -7.931   7.627  64.256  1.00  0.00     0.000 HD 
HETATM   14  O   UNL     1      -6.741   5.060  66.781  1.00  0.00    -0.051 OA 
HETATM   15  O   UNL     1      -8.115   4.700  63.353  1.00  0.00    -0.085 OA 
BRANCH   6  16
HETATM   16  O   UNL     1      -9.552   5.332  67.764  1.00  0.00    -0.123 OA 
BRANCH  16  17
HETATM   17  C   UNL     1      -9.716   6.142  68.849  1.00  0.00    -0.130 A  
HETATM   18  C   UNL     1      -9.911   6.588  71.197  1.00  0.00    -0.182 A  
HETATM   19  C   UNL     1     -10.361   7.876  70.933  1.00  0.00    -0.215 A  
HETATM   20  O   UNL     1      -9.838   6.192  72.503  1.00  0.00    -0.167 OA 
HETATM   21  C   UNL     1      -9.564   5.723  70.167  1.00  0.00    -0.208 A  
HETATM   22  H   UNL     1     -10.075   6.783  73.207  1.00  0.00     0.000 HD 
HETATM   23  C   UNL     1     -10.482   8.334  69.617  1.00  0.00    -0.221 A  
HETATM   24  C   UNL     1     -10.185   7.441  68.576  1.00  0.00    -0.201 A  
BRANCH  23  25
HETATM   25  C   UNL     1     -10.953   9.720  69.421  1.00  0.00    -0.241 C  
HETATM   26  C   UNL     1     -10.275  10.719  68.832  1.00  0.00    -0.219 C  
BRANCH  26  27
HETATM   27  C   UNL     1     -10.720  12.131  68.850  1.00  0.00    -0.212 A  
HETATM   28  C   UNL     1     -10.060  13.057  68.025  1.00  0.00    -0.235 A  
HETATM   29  C   UNL     1     -10.381  14.418  68.063  1.00  0.00    -0.227 A  
HETATM   30  C   UNL     1     -11.381  14.861  68.921  1.00  0.00    -0.283 A  
HETATM   31  C   UNL     1     -12.085  13.961  69.708  1.00  0.00    -0.404 A  
HETATM   32  O   UNL     1     -11.698  16.184  69.022  1.00  0.00    -0.345 OA 
HETATM   33  H   UNL     1     -12.381  16.488  69.608  1.00  0.00     0.000 HD 
HETATM   34  C   UNL     1     -11.760  12.600  69.669  1.00  0.00    -0.373 A  
ENDBRANCH  26  27
ENDBRANCH  23  25
ENDBRANCH  16  17
ENDBRANCH   6  16
ENDBRANCH   3   4
TORSDOF 5
ENDMDL
MODEL      119
REMARK 921   NORMALIZED FREE ENERGY PREDICTED BY IDOCK:   -4.05 KCAL/MOL
REMARK 922        TOTAL FREE ENERGY PREDICTED BY IDOCK:   -6.31 KCAL/MOL
REMARK 923 INTER-LIGAND FREE ENERGY PREDICTED BY IDOCK:   -5.48 KCAL/MOL
REMARK 924 INTRA-LIGAND FREE ENERGY PREDICTED BY IDOCK:   -0.83 KCAL/MOL
REMARK 927      BINDING AFFINITY PREDICTED BY RF-SCORE:    0.00 PKD
ROOT
HETATM    1  O   UNL     1      -5.417   6.038  71.098  1.00  0.00    -0.017 OA 
HETATM    2  H   UNL     1      -5.133   6.801  70.608  1.00  0.00     0.000 HD 
HETATM    3  C   UNL     1      -6.457   5.338  70.425  1.00  0.00    -0.031 C  
ENDROOT
BRANCH   3   4
HETATM    4  C   UNL     1      -6.919   4.099  71.220  1.00  0.00    -0.035 C  
HETATM    5  O   UNL     1      -8.197   4.301  71.864  1.00  0.00    -0.093 OA 
HETATM    6  C   UNL     1      -9.337   4.304  70.980  1.00  0.00    -0.152 C  
HETATM    7  C   UNL     1      -9.398   2.956  70.206  1.00  0.00    -0.149 C  
HETATM    8  H   UNL     1      -7.179   3.320  67.864  1.00  0.00     0.000 HD 
HETATM    9  C   UNL     1      -8.086   2.659  69.468  1.00  0.00    -0.040 C  
HETATM   10  O   UNL     1      -9.679   1.844  71.082  1.00  0.00    -0.138 OA 
HETATM   11  H   UNL     1      -6.779   0.869  70.826  1.00  0.00     0.000 HD 
HETATM   12  C   UNL     1      -6.876   2.787  70.410  1.00  0.00    -0.033 C  
HETATM   13  H   UNL     1      -9.717   1.021  70.610  1.00  0.00     0.000 HD 
HETATM   14  O   UNL     1      -7.992   3.504  68.320  1.00  0.00    -0.070 OA 
HETATM   15  O   UNL     1      -6.806   1.677  71.325  1.00  0.00    -0.023 OA 
BRANCH   6  16
HETATM   16  O   UNL     1      -9.289   5.473  70.159  1.00  0.00    -0.140 OA 
BRANCH  16  17
HETATM   17  C   UNL     1     -10.074   6.549  70.451  1.00  0.00    -0.184 A  
HETATM   18  C   UNL     1     -11.886   7.657  71.564  1.00  0.00    -0.295 A  
HETATM   19  C   UNL     1     -11.767   8.748  70.710  1.00  0.00    -0.253 A  
HETATM   20  O   UNL     1     -12.882   7.684  72.498  1.00  0.00    -0.509 OA 
HETATM   21  C   UNL     1     -11.033   6.566  71.459  1.00  0.00    -0.298 A  
HETATM   22  H   UNL     1     -13.465   8.430  72.570  1.00  0.00     0.000 HD 
HETATM   23  C   UNL     1     -10.783   8.771  69.715  1.00  0.00    -0.220 A  
HETATM   24  C   UNL     1      -9.958   7.644  69.574  1.00  0.00    -0.182 A  
BRANCH  23  25
HETATM   25  C   UNL     1     -10.712   9.972  68.859  1.00  0.00    -0.243 C  
HETATM   26  C   UNL     1     -10.438  11.225  69.261  1.00  0.00    -0.145 C  
BRANCH  26  27
HETATM   27  C   UNL     1     -10.583  12.413  68.388  1.00  0.00    -0.251 A  
HETATM   28  C   UNL     1     -11.785  12.590  67.685  1.00  0.00    -0.423 A  
HETATM   29  C   UNL     1     -11.947  13.646  66.781  1.00  0.00    -0.458 A  
HETATM   30  C   UNL     1     -10.905  14.545  66.588  1.00  0.00    -0.311 A  
HETATM   31  C   UNL     1      -9.726  14.424  67.309  1.00  0.00    -0.233 A  
HETATM   32  O   UNL     1     -11.002  15.565  65.687  1.00  0.00    -0.333 OA 
HETATM   33  H   UNL     1     -10.290  16.180  65.555  1.00  0.00     0.000 HD 
HETATM   34  C   UNL     1      -9.566  13.365  68.210  1.00  0.00    -0.220 A  
ENDBRANCH  26  27
ENDBRANCH  23  25
ENDBRANCH  16  17
ENDBRANCH   6  16
ENDBRANCH   3   4
TORSDOF 5
ENDMDL
MODEL      120
REMARK 921   NORMALIZED FREE ENERGY PREDICTED BY IDOCK:   -4.04 KCAL/MOL
REMARK 922        TOTAL FREE ENERGY PREDICTED BY IDOCK:   -6.30 KCAL/MOL
REMARK 923 INTER-LIGAND FREE ENERGY PREDICTED BY IDOCK:   -5.24 KCAL/MOL
REMARK 924 INTRA-LIGAND FREE ENERGY PREDICTED BY IDOCK:   -1.06 KCAL/MOL
REMARK 927      BINDING AFFINITY PREDICTED BY RF-SCORE:    0.00 PKD
ROOT
HETATM    1  O   UNL     1     -11.186  14.553  64.390  1.00  0.00    -0.576 OA 
HETATM    2  H   UNL     1     -10.907  14.322  63.512  1.00  0.00     0.000 HD 
HETATM    3  C   UNL     1     -11.342  13.402  65.214  1.00  0.00    -0.296 C  
ENDROOT
BRANCH   3   4
HETATM    4  C   UNL     1     -11.796  13.778  66.639  1.00  0.00    -0.412 C  
HETATM    5  O   UNL     1     -11.550  12.720  67.593  1.00  0.00    -0.315 OA 
HETATM    6  C   UNL     1     -10.167  12.528  67.956  1.00  0.00    -0.225 C  
HETATM    7  C   UNL     1      -9.597  13.849  68.549  1.00  0.00    -0.185 C  
HETATM    8  H   UNL     1      -8.989  15.662  65.925  1.00  0.00     0.000 HD 
HETATM    9  C   UNL     1      -9.794  15.035  67.596  1.00  0.00    -0.220 C  
HETATM   10  O   UNL     1     -10.213  14.182  69.811  1.00  0.00    -0.355 OA 
HETATM   11  H   UNL     1     -11.776  16.466  68.479  1.00  0.00     0.000 HD 
HETATM   12  C   UNL     1     -11.255  15.138  67.127  1.00  0.00    -0.320 C  
HETATM   13  H   UNL     1      -9.866  14.989  70.173  1.00  0.00     0.000 HD 
HETATM   14  O   UNL     1      -8.866  14.927  66.515  1.00  0.00    -0.266 OA 
HETATM   15  O   UNL     1     -12.109  15.627  68.179  1.00  0.00    -0.088 OA 
BRANCH   6  16
HETATM   16  O   UNL     1      -9.455  12.012  66.830  1.00  0.00    -0.193 OA 
BRANCH  16  17
HETATM   17  C   UNL     1      -8.802  10.819  66.919  1.00  0.00    -0.140 A  
HETATM   18  C   UNL     1      -7.508   8.999  66.044  1.00  0.00    -0.094 A  
HETATM   19  C   UNL     1      -7.775   8.241  67.179  1.00  0.00    -0.097 A  
HETATM   20  O   UNL     1      -6.766   8.424  65.052  1.00  0.00    -0.062 OA 
HETATM   21  C   UNL     1      -7.995  10.293  65.914  1.00  0.00    -0.137 A  
HETATM   22  H   UNL     1      -6.433   7.539  65.141  1.00  0.00     0.000 HD 
HETATM   23  C   UNL     1      -8.550   8.764  68.220  1.00  0.00    -0.134 A  
HETATM   24  C   UNL     1      -9.087  10.050  68.063  1.00  0.00    -0.132 A  
BRANCH  23  25
HETATM   25  C   UNL     1      -8.774   7.900  69.397  1.00  0.00    -0.138 C  
HETATM   26  C   UNL     1      -7.902   7.659  70.390  1.00  0.00    -0.092 C  
BRANCH  26  27
HETATM   27  C   UNL     1      -8.114   6.628  71.431  1.00  0.00    -0.111 A  
HETATM   28  C   UNL     1      -7.538   6.820  72.698  1.00  0.00    -0.091 A  
HETATM   29  C   UNL     1      -7.633   5.841  73.693  1.00  0.00    -0.097 A  
HETATM   30  C   UNL     1      -8.322   4.663  73.429  1.00  0.00    -0.103 A  
HETATM   31  C   UNL     1      -8.945   4.469  72.205  1.00  0.00    -0.145 A  
HETATM   32  O   UNL     1      -8.404   3.664  74.354  1.00  0.00    -0.081 OA 
HETATM   33  H   UNL     1      -8.875   2.859  74.175  1.00  0.00     0.000 HD 
HETATM   34  C   UNL     1      -8.846   5.450  71.210  1.00  0.00    -0.140 A  
ENDBRANCH  26  27
ENDBRANCH  23  25
ENDBRANCH  16  17
ENDBRANCH   6  16
ENDBRANCH   3   4
TORSDOF 5
ENDMDL
MODEL      121
REMARK 921   NORMALIZED FREE ENERGY PREDICTED BY IDOCK:   -4.01 KCAL/MOL
REMARK 922        TOTAL FREE ENERGY PREDICTED BY IDOCK:   -6.26 KCAL/MOL
REMARK 923 INTER-LIGAND FREE ENERGY PREDICTED BY IDOCK:   -5.26 KCAL/MOL
REMARK 924 INTRA-LIGAND FREE ENERGY PREDICTED BY IDOCK:   -1.00 KCAL/MOL
REMARK 927      BINDING AFFINITY PREDICTED BY RF-SCORE:    0.00 PKD
ROOT
HETATM    1  O   UNL     1      -8.098   2.826  68.802  1.00  0.00    -0.055 OA 
HETATM    2  H   UNL     1      -7.839   2.672  69.703  1.00  0.00     0.000 HD 
HETATM    3  C   UNL     1      -9.268   3.632  68.720  1.00  0.00    -0.160 C  
ENDROOT
BRANCH   3   4
HETATM    4  C   UNL     1      -9.689   3.881  67.257  1.00  0.00    -0.131 C  
HETATM    5  O   UNL     1     -10.295   5.179  67.070  1.00  0.00    -0.218 OA 
HETATM    6  C   UNL     1      -9.383   6.296  67.122  1.00  0.00    -0.123 C  
HETATM    7  C   UNL     1      -8.284   6.121  66.036  1.00  0.00    -0.127 C  
HETATM    8  H   UNL     1      -6.237   3.979  67.363  1.00  0.00     0.000 HD 
HETATM    9  C   UNL     1      -7.564   4.772  66.163  1.00  0.00    -0.090 C  
HETATM   10  O   UNL     1      -8.825   6.215  64.701  1.00  0.00    -0.358 OA 
HETATM   11  H   UNL     1      -8.476   3.189  64.314  1.00  0.00     0.000 HD 
HETATM   12  C   UNL     1      -8.569   3.608  66.231  1.00  0.00    -0.115 C  
HETATM   13  H   UNL     1      -8.154   6.107  64.038  1.00  0.00     0.000 HD 
HETATM   14  O   UNL     1      -6.682   4.814  67.285  1.00  0.00    -0.052 OA 
HETATM   15  O   UNL     1      -9.166   3.357  64.945  1.00  0.00    -0.133 OA 
BRANCH   6  16
HETATM   16  O   UNL     1      -8.898   6.442  68.458  1.00  0.00    -0.120 OA 
BRANCH  16  17
HETATM   17  C   UNL     1      -8.514   7.667  68.918  1.00  0.00    -0.129 A  
HETATM   18  C   UNL     1      -7.629   9.171  70.563  1.00  0.00    -0.125 A  
HETATM   19  C   UNL     1      -8.061  10.265  69.821  1.00  0.00    -0.125 A  
HETATM   20  O   UNL     1      -7.016   9.413  71.760  1.00  0.00    -0.314 OA 
HETATM   21  C   UNL     1      -7.828   7.873  70.111  1.00  0.00    -0.097 A  
HETATM   22  H   UNL     1      -6.880  10.301  72.069  1.00  0.00     0.000 HD 
HETATM   23  C   UNL     1      -8.717  10.083  68.599  1.00  0.00    -0.127 A  
HETATM   24  C   UNL     1      -8.967   8.770  68.171  1.00  0.00    -0.141 A  
BRANCH  23  25
HETATM   25  C   UNL     1      -9.131  11.296  67.865  1.00  0.00    -0.150 C  
HETATM   26  C   UNL     1      -8.427  12.433  67.737  1.00  0.00    -0.169 C  
BRANCH  26  27
HETATM   27  C   UNL     1      -8.983  13.679  67.163  1.00  0.00    -0.235 A  
HETATM   28  C   UNL     1     -10.374  13.782  66.996  1.00  0.00    -0.260 A  
HETATM   29  C   UNL     1     -10.949  14.899  66.380  1.00  0.00    -0.336 A  
HETATM   30  C   UNL     1     -10.131  15.934  65.941  1.00  0.00    -0.352 A  
HETATM   31  C   UNL     1      -8.759  15.882  66.141  1.00  0.00    -0.328 A  
HETATM   32  O   UNL     1     -10.643  17.023  65.299  1.00  0.00    -0.647 OA 
HETATM   33  H   UNL     1     -10.085  17.730  64.999  1.00  0.00     0.000 HD 
HETATM   34  C   UNL     1      -8.187  14.762  66.755  1.00  0.00    -0.039 A  
ENDBRANCH  26  27
ENDBRANCH  23  25
ENDBRANCH  16  17
ENDBRANCH   6  16
ENDBRANCH   3   4
TORSDOF 5
ENDMDL
MODEL      122
REMARK 921   NORMALIZED FREE ENERGY PREDICTED BY IDOCK:   -3.99 KCAL/MOL
REMARK 922        TOTAL FREE ENERGY PREDICTED BY IDOCK:   -6.24 KCAL/MOL
REMARK 923 INTER-LIGAND FREE ENERGY PREDICTED BY IDOCK:   -5.29 KCAL/MOL
REMARK 924 INTRA-LIGAND FREE ENERGY PREDICTED BY IDOCK:   -0.95 KCAL/MOL
REMARK 927      BINDING AFFINITY PREDICTED BY RF-SCORE:    0.00 PKD
ROOT
HETATM    1  O   UNL     1      -5.415   7.761  68.588  1.00  0.00    -0.025 OA 
HETATM    2  H   UNL     1      -5.048   8.271  69.301  1.00  0.00     0.000 HD 
HETATM    3  C   UNL     1      -6.829   7.645  68.698  1.00  0.00    -0.066 C  
ENDROOT
BRANCH   3   4
HETATM    4  C   UNL     1      -7.425   6.816  67.541  1.00  0.00    -0.097 C  
HETATM    5  O   UNL     1      -8.663   7.371  67.045  1.00  0.00    -0.119 OA 
HETATM    6  C   UNL     1      -8.527   8.578  66.266  1.00  0.00    -0.124 C  
HETATM    7  C   UNL     1      -7.601   8.308  65.046  1.00  0.00    -0.095 C  
HETATM    8  H   UNL     1      -4.616   8.412  66.318  1.00  0.00     0.000 HD 
HETATM    9  C   UNL     1      -6.245   7.731  65.474  1.00  0.00    -0.038 C  
HETATM   10  O   UNL     1      -8.201   7.390  64.107  1.00  0.00    -0.313 OA 
HETATM   11  H   UNL     1      -6.257   5.179  64.979  1.00  0.00     0.000 HD 
HETATM   12  C   UNL     1      -6.423   6.520  66.406  1.00  0.00    -0.043 C  
HETATM   13  H   UNL     1      -7.635   7.225  63.362  1.00  0.00     0.000 HD 
HETATM   14  O   UNL     1      -5.455   8.770  66.053  1.00  0.00    -0.036 OA 
HETATM   15  O   UNL     1      -6.874   5.362  65.678  1.00  0.00    -0.060 OA 
BRANCH   6  16
HETATM   16  O   UNL     1      -8.108   9.642  67.122  1.00  0.00    -0.109 OA 
BRANCH  16  17
HETATM   17  C   UNL     1      -8.960  10.666  67.413  1.00  0.00    -0.136 A  
HETATM   18  C   UNL     1     -11.062  11.591  68.104  1.00  0.00    -0.246 A  
HETATM   19  C   UNL     1     -10.667  12.854  67.676  1.00  0.00    -0.237 A  
HETATM   20  O   UNL     1     -12.322  11.455  68.613  1.00  0.00    -0.491 OA 
HETATM   21  C   UNL     1     -10.211  10.498  67.999  1.00  0.00    -0.195 A  
HETATM   22  H   UNL     1     -12.904  12.202  68.685  1.00  0.00     0.000 HD 
HETATM   23  C   UNL     1      -9.398  13.054  67.122  1.00  0.00    -0.230 A  
HETATM   24  C   UNL     1      -8.560  11.939  66.966  1.00  0.00    -0.176 A  
BRANCH  23  25
HETATM   25  C   UNL     1      -9.048  14.428  66.707  1.00  0.00    -0.278 C  
HETATM   26  C   UNL     1      -8.450  15.364  67.463  1.00  0.00    -0.188 C  
BRANCH  26  27
HETATM   27  C   UNL     1      -8.313  16.780  67.053  1.00  0.00    -0.219 A  
HETATM   28  C   UNL     1      -9.470  17.494  66.700  1.00  0.00    -0.285 A  
HETATM   29  C   UNL     1      -9.392  18.808  66.223  1.00  0.00    -0.271 A  
HETATM   30  C   UNL     1      -8.151  19.423  66.113  1.00  0.00    -0.314 A  
HETATM   31  C   UNL     1      -6.997  18.759  66.505  1.00  0.00    -0.235 A  
HETATM   32  O   UNL     1      -8.024  20.686  65.615  1.00  0.00    -0.444 OA 
HETATM   33  H   UNL     1      -7.176  21.107  65.540  1.00  0.00     0.000 HD 
HETATM   34  C   UNL     1      -7.078  17.444  66.979  1.00  0.00    -0.216 A  
ENDBRANCH  26  27
ENDBRANCH  23  25
ENDBRANCH  16  17
ENDBRANCH   6  16
ENDBRANCH   3   4
TORSDOF 5
ENDMDL
MODEL      123
REMARK 921   NORMALIZED FREE ENERGY PREDICTED BY IDOCK:   -3.97 KCAL/MOL
REMARK 922        TOTAL FREE ENERGY PREDICTED BY IDOCK:   -6.22 KCAL/MOL
REMARK 923 INTER-LIGAND FREE ENERGY PREDICTED BY IDOCK:   -5.87 KCAL/MOL
REMARK 924 INTRA-LIGAND FREE ENERGY PREDICTED BY IDOCK:   -0.34 KCAL/MOL
REMARK 927      BINDING AFFINITY PREDICTED BY RF-SCORE:    0.00 PKD
ROOT
HETATM    1  O   UNL     1      -7.042   9.066  64.029  1.00  0.00    -0.093 OA 
HETATM    2  H   UNL     1      -6.268   8.718  64.456  1.00  0.00     0.000 HD 
HETATM    3  C   UNL     1      -7.798   9.897  64.903  1.00  0.00    -0.136 C  
ENDROOT
BRANCH   3   4
HETATM    4  C   UNL     1      -9.055  10.461  64.210  1.00  0.00    -0.238 C  
HETATM    5  O   UNL     1     -10.245   9.702  64.521  1.00  0.00     0.339 OA 
HETATM    6  C   UNL     1     -10.757   9.882  65.857  1.00  0.00     0.290 C  
HETATM    7  C   UNL     1     -11.074  11.386  66.095  1.00  0.00    -0.198 C  
HETATM    8  H   UNL     1      -8.163  12.693  66.692  1.00  0.00     0.000 HD 
HETATM    9  C   UNL     1      -9.859  12.279  65.808  1.00  0.00    -0.244 C  
HETATM   10  O   UNL     1     -12.168  11.842  65.271  1.00  0.00    -0.357 OA 
HETATM   11  H   UNL     1     -10.218  13.420  63.500  1.00  0.00     0.000 HD 
HETATM   12  C   UNL     1      -9.258  11.975  64.425  1.00  0.00     0.419 C  
HETATM   13  H   UNL     1     -12.362  12.761  65.416  1.00  0.00     0.000 HD 
HETATM   14  O   UNL     1      -8.914  12.141  66.870  1.00  0.00    -0.190 OA 
HETATM   15  O   UNL     1     -10.093  12.487  63.368  1.00  0.00    -0.396 OA 
BRANCH   6  16
HETATM   16  O   UNL     1      -9.845   9.300  66.790  1.00  0.00    -0.189 OA 
BRANCH  16  17
HETATM   17  C   UNL     1     -10.243   9.036  68.067  1.00  0.00    -0.212 A  
HETATM   18  C   UNL     1     -10.833   7.590  69.887  1.00  0.00    -0.240 A  
HETATM   19  C   UNL     1     -11.351   8.666  70.598  1.00  0.00    -0.277 A  
HETATM   20  O   UNL     1     -10.924   6.349  70.450  1.00  0.00    -0.258 OA 
HETATM   21  C   UNL     1     -10.257   7.766  68.635  1.00  0.00    -0.217 A  
HETATM   22  H   UNL     1     -11.318   6.228  71.306  1.00  0.00     0.000 HD 
HETATM   23  C   UNL     1     -11.311   9.959  70.065  1.00  0.00    -0.303 A  
HETATM   24  C   UNL     1     -10.780  10.127  68.777  1.00  0.00    -0.247 A  
BRANCH  23  25
HETATM   25  C   UNL     1     -11.868  11.050  70.890  1.00  0.00    -0.301 C  
HETATM   26  C   UNL     1     -12.183  12.288  70.471  1.00  0.00    -0.387 C  
BRANCH  26  27
HETATM   27  C   UNL     1     -12.545  13.393  71.388  1.00  0.00    -0.374 A  
HETATM   28  C   UNL     1     -13.785  13.344  72.046  1.00  0.00    -0.541 A  
HETATM   29  C   UNL     1     -14.216  14.400  72.856  1.00  0.00     0.443 A  
HETATM   30  C   UNL     1     -13.397  15.510  73.027  1.00  0.00    -0.548 A  
HETATM   31  C   UNL     1     -12.145  15.561  72.431  1.00  0.00    -0.527 A  
HETATM   32  O   UNL     1     -13.794  16.580  73.774  1.00  0.00    -0.745 OA 
HETATM   33  H   UNL     1     -13.234  17.339  73.891  1.00  0.00     0.000 HD 
HETATM   34  C   UNL     1     -11.717  14.504  71.619  1.00  0.00    -0.146 A  
ENDBRANCH  26  27
ENDBRANCH  23  25
ENDBRANCH  16  17
ENDBRANCH   6  16
ENDBRANCH   3   4
TORSDOF 5
ENDMDL
MODEL      124
REMARK 921   NORMALIZED FREE ENERGY PREDICTED BY IDOCK:   -3.97 KCAL/MOL
REMARK 922        TOTAL FREE ENERGY PREDICTED BY IDOCK:   -6.21 KCAL/MOL
REMARK 923 INTER-LIGAND FREE ENERGY PREDICTED BY IDOCK:   -5.07 KCAL/MOL
REMARK 924 INTRA-LIGAND FREE ENERGY PREDICTED BY IDOCK:   -1.14 KCAL/MOL
REMARK 927      BINDING AFFINITY PREDICTED BY RF-SCORE:    0.00 PKD
ROOT
HETATM    1  O   UNL     1      -7.778  10.915  63.360  1.00  0.00    -0.355 OA 
HETATM    2  H   UNL     1      -7.191  10.544  62.712  1.00  0.00     0.000 HD 
HETATM    3  C   UNL     1      -8.766   9.978  63.775  1.00  0.00    -0.217 C  
ENDROOT
BRANCH   3   4
HETATM    4  C   UNL     1      -9.719  10.580  64.827  1.00  0.00    -0.305 C  
HETATM    5  O   UNL     1     -10.275   9.577  65.706  1.00  0.00    -0.255 OA 
HETATM    6  C   UNL     1      -9.356   9.034  66.677  1.00  0.00    -0.177 C  
HETATM    7  C   UNL     1      -8.791  10.184  67.559  1.00  0.00    -0.125 C  
HETATM    8  H   UNL     1      -6.510  11.533  65.684  1.00  0.00     0.000 HD 
HETATM    9  C   UNL     1      -8.159  11.296  66.713  1.00  0.00    -0.159 C  
HETATM   10  O   UNL     1      -9.813  10.779  68.387  1.00  0.00    -0.157 OA 
HETATM   11  H   UNL     1      -9.819  13.294  66.626  1.00  0.00     0.000 HD 
HETATM   12  C   UNL     1      -9.117  11.768  65.605  1.00  0.00    -0.028 C  
HETATM   13  H   UNL     1      -9.468  11.482  68.926  1.00  0.00     0.000 HD 
HETATM   14  O   UNL     1      -6.901  10.844  66.208  1.00  0.00    -0.130 OA 
HETATM   15  O   UNL     1     -10.190  12.562  66.146  1.00  0.00    -0.242 OA 
BRANCH   6  16
HETATM   16  O   UNL     1      -8.372   8.249  66.002  1.00  0.00    -0.114 OA 
BRANCH  16  17
HETATM   17  C   UNL     1      -8.436   6.887  66.040  1.00  0.00    -0.139 A  
HETATM   18  C   UNL     1      -8.492   4.703  65.052  1.00  0.00    -0.133 A  
HETATM   19  C   UNL     1      -8.877   4.144  66.265  1.00  0.00    -0.118 A  
HETATM   20  O   UNL     1      -8.381   3.872  63.973  1.00  0.00    -0.090 OA 
HETATM   21  C   UNL     1      -8.247   6.065  64.934  1.00  0.00    -0.130 A  
HETATM   22  H   UNL     1      -8.549   2.941  64.054  1.00  0.00     0.000 HD 
HETATM   23  C   UNL     1      -9.033   4.946  67.402  1.00  0.00    -0.111 A  
HETATM   24  C   UNL     1      -8.839   6.329  67.268  1.00  0.00    -0.107 A  
BRANCH  23  25
HETATM   25  C   UNL     1      -9.429   4.274  68.656  1.00  0.00    -0.221 C  
HETATM   26  C   UNL     1      -9.837   4.871  69.789  1.00  0.00    -0.292 C  
BRANCH  26  27
HETATM   27  C   UNL     1     -10.023   4.152  71.070  1.00  0.00    -0.206 A  
HETATM   28  C   UNL     1      -9.659   2.798  71.142  1.00  0.00    -0.224 A  
HETATM   29  C   UNL     1      -9.891   2.046  72.299  1.00  0.00    -0.207 A  
HETATM   30  C   UNL     1     -10.478   2.654  73.403  1.00  0.00    -0.146 A  
HETATM   31  C   UNL     1     -10.799   4.004  73.377  1.00  0.00    -0.326 A  
HETATM   32  O   UNL     1     -10.761   1.951  74.537  1.00  0.00    -0.134 OA 
HETATM   33  H   UNL     1     -11.162   2.366  75.292  1.00  0.00     0.000 HD 
HETATM   34  C   UNL     1     -10.568   4.752  72.217  1.00  0.00    -0.225 A  
ENDBRANCH  26  27
ENDBRANCH  23  25
ENDBRANCH  16  17
ENDBRANCH   6  16
ENDBRANCH   3   4
TORSDOF 5
ENDMDL
MODEL      125
REMARK 921   NORMALIZED FREE ENERGY PREDICTED BY IDOCK:   -3.93 KCAL/MOL
REMARK 922        TOTAL FREE ENERGY PREDICTED BY IDOCK:   -6.15 KCAL/MOL
REMARK 923 INTER-LIGAND FREE ENERGY PREDICTED BY IDOCK:   -5.29 KCAL/MOL
REMARK 924 INTRA-LIGAND FREE ENERGY PREDICTED BY IDOCK:   -0.87 KCAL/MOL
REMARK 927      BINDING AFFINITY PREDICTED BY RF-SCORE:    0.00 PKD
ROOT
HETATM    1  O   UNL     1     -10.469  13.861  69.294  1.00  0.00    -0.420 OA 
HETATM    2  H   UNL     1     -10.790  13.654  70.164  1.00  0.00     0.000 HD 
HETATM    3  C   UNL     1     -10.404  12.704  68.468  1.00  0.00    -0.221 C  
ENDROOT
BRANCH   3   4
HETATM    4  C   UNL     1      -9.883  13.040  67.055  1.00  0.00    -0.238 C  
HETATM    5  O   UNL     1      -8.475  12.750  66.903  1.00  0.00    -0.181 OA 
HETATM    6  C   UNL     1      -8.141  11.350  66.821  1.00  0.00    -0.161 C  
HETATM    7  C   UNL     1      -8.895  10.704  65.623  1.00  0.00    -0.186 C  
HETATM    8  H   UNL     1     -11.898  10.249  66.768  1.00  0.00     0.000 HD 
HETATM    9  C   UNL     1     -10.408  10.942  65.705  1.00  0.00    -0.242 C  
HETATM   10  O   UNL     1      -8.430  11.216  64.356  1.00  0.00    -0.368 OA 
HETATM   11  H   UNL     1     -11.027  12.817  64.014  1.00  0.00     0.000 HD 
HETATM   12  C   UNL     1     -10.729  12.432  65.918  1.00  0.00    -0.266 C  
HETATM   13  H   UNL     1      -8.890  10.822  63.624  1.00  0.00     0.000 HD 
HETATM   14  O   UNL     1     -10.961  10.101  66.718  1.00  0.00    -0.125 OA 
HETATM   15  O   UNL     1     -10.506  13.191  64.715  1.00  0.00    -0.335 OA 
BRANCH   6  16
HETATM   16  O   UNL     1      -8.381  10.737  68.089  1.00  0.00    -0.113 OA 
BRANCH  16  17
HETATM   17  C   UNL     1      -7.870   9.503  68.363  1.00  0.00    -0.086 A  
HETATM   18  C   UNL     1      -6.298   7.712  68.095  1.00  0.00    -0.049 A  
HETATM   19  C   UNL     1      -7.127   6.853  68.807  1.00  0.00    -0.089 A  
HETATM   20  O   UNL     1      -5.135   7.203  67.588  1.00  0.00    -0.017 OA 
HETATM   21  C   UNL     1      -6.647   9.040  67.888  1.00  0.00    -0.060 A  
HETATM   22  H   UNL     1      -4.896   6.295  67.730  1.00  0.00     0.000 HD 
HETATM   23  C   UNL     1      -8.343   7.307  69.330  1.00  0.00    -0.133 A  
HETATM   24  C   UNL     1      -8.720   8.633  69.072  1.00  0.00    -0.134 A  
BRANCH  23  25
HETATM   25  C   UNL     1      -9.159   6.336  70.087  1.00  0.00    -0.155 C  
HETATM   26  C   UNL     1      -8.881   5.832  71.301  1.00  0.00    -0.139 C  
BRANCH  26  27
HETATM   27  C   UNL     1      -9.633   4.714  71.914  1.00  0.00    -0.210 A  
HETATM   28  C   UNL     1     -10.537   4.997  72.950  1.00  0.00    -0.280 A  
HETATM   29  C   UNL     1     -11.212   3.973  73.624  1.00  0.00    -0.305 A  
HETATM   30  C   UNL     1     -10.995   2.651  73.250  1.00  0.00    -0.158 A  
HETATM   31  C   UNL     1     -10.148   2.346  72.195  1.00  0.00    -0.220 A  
HETATM   32  O   UNL     1     -11.599   1.618  73.905  1.00  0.00    -0.175 OA 
HETATM   33  H   UNL     1     -11.452   0.715  73.650  1.00  0.00     0.000 HD 
HETATM   34  C   UNL     1      -9.473   3.373  71.525  1.00  0.00    -0.223 A  
ENDBRANCH  26  27
ENDBRANCH  23  25
ENDBRANCH  16  17
ENDBRANCH   6  16
ENDBRANCH   3   4
TORSDOF 5
ENDMDL
MODEL      126
REMARK 921   NORMALIZED FREE ENERGY PREDICTED BY IDOCK:   -3.89 KCAL/MOL
REMARK 922        TOTAL FREE ENERGY PREDICTED BY IDOCK:   -6.11 KCAL/MOL
REMARK 923 INTER-LIGAND FREE ENERGY PREDICTED BY IDOCK:   -5.38 KCAL/MOL
REMARK 924 INTRA-LIGAND FREE ENERGY PREDICTED BY IDOCK:   -0.73 KCAL/MOL
REMARK 927      BINDING AFFINITY PREDICTED BY RF-SCORE:    0.00 PKD
ROOT
HETATM    1  O   UNL     1      -8.576  12.335  68.827  1.00  0.00    -0.354 OA 
HETATM    2  H   UNL     1      -8.829  11.519  69.243  1.00  0.00     0.000 HD 
HETATM    3  C   UNL     1      -9.636  13.284  68.839  1.00  0.00     0.192 C  
ENDROOT
BRANCH   3   4
HETATM    4  C   UNL     1      -9.225  14.608  68.164  1.00  0.00    -0.192 C  
HETATM    5  O   UNL     1      -8.772  14.417  66.805  1.00  0.00    -0.223 OA 
HETATM    6  C   UNL     1      -9.809  14.114  65.848  1.00  0.00    -0.289 C  
HETATM    7  C   UNL     1     -10.864  15.257  65.844  1.00  0.00    -0.342 C  
HETATM    8  H   UNL     1     -12.666  14.639  68.472  1.00  0.00     0.000 HD 
HETATM    9  C   UNL     1     -11.422  15.524  67.248  1.00  0.00    -0.102 C  
HETATM   10  O   UNL     1     -10.316  16.493  65.338  1.00  0.00    -0.558 OA 
HETATM   11  H   UNL     1     -10.304  17.682  68.168  1.00  0.00     0.000 HD 
HETATM   12  C   UNL     1     -10.290  15.720  68.271  1.00  0.00    -0.239 C  
HETATM   13  H   UNL     1     -10.960  17.191  65.336  1.00  0.00     0.000 HD 
HETATM   14  O   UNL     1     -12.321  14.473  67.603  1.00  0.00    -0.218 OA 
HETATM   15  O   UNL     1      -9.648  16.998  68.102  1.00  0.00    -0.252 OA 
BRANCH   6  16
HETATM   16  O   UNL     1     -10.328  12.810  66.119  1.00  0.00    -0.259 OA 
BRANCH  16  17
HETATM   17  C   UNL     1      -9.790  11.717  65.508  1.00  0.00    -0.234 A  
HETATM   18  C   UNL     1      -9.440  10.237  63.653  1.00  0.00    -0.299 A  
HETATM   19  C   UNL     1      -8.863   9.292  64.493  1.00  0.00    -0.203 A  
HETATM   20  O   UNL     1      -9.574   9.920  62.331  1.00  0.00    -0.478 OA 
HETATM   21  C   UNL     1      -9.884  11.458  64.143  1.00  0.00    -0.307 A  
HETATM   22  H   UNL     1      -9.270   9.085  61.995  1.00  0.00     0.000 HD 
HETATM   23  C   UNL     1      -8.720   9.546  65.862  1.00  0.00    -0.168 A  
HETATM   24  C   UNL     1      -9.220  10.757  66.365  1.00  0.00    -0.191 A  
BRANCH  23  25
HETATM   25  C   UNL     1      -8.083   8.497  66.683  1.00  0.00    -0.104 C  
HETATM   26  C   UNL     1      -8.659   7.365  67.122  1.00  0.00    -0.118 C  
BRANCH  26  27
HETATM   27  C   UNL     1      -8.030   6.457  68.108  1.00  0.00    -0.109 A  
HETATM   28  C   UNL     1      -7.223   7.010  69.115  1.00  0.00    -0.090 A  
HETATM   29  C   UNL     1      -6.535   6.196  70.021  1.00  0.00    -0.039 A  
HETATM   30  C   UNL     1      -6.666   4.815  69.934  1.00  0.00    -0.037 A  
HETATM   31  C   UNL     1      -7.498   4.243  68.982  1.00  0.00    -0.055 A  
HETATM   32  O   UNL     1      -5.982   3.981  70.770  1.00  0.00    -0.013 OA 
HETATM   33  H   UNL     1      -6.071   3.037  70.710  1.00  0.00     0.000 HD 
HETATM   34  C   UNL     1      -8.183   5.061  68.075  1.00  0.00    -0.097 A  
ENDBRANCH  26  27
ENDBRANCH  23  25
ENDBRANCH  16  17
ENDBRANCH   6  16
ENDBRANCH   3   4
TORSDOF 5
ENDMDL
MODEL      127
REMARK 921   NORMALIZED FREE ENERGY PREDICTED BY IDOCK:   -3.77 KCAL/MOL
REMARK 922        TOTAL FREE ENERGY PREDICTED BY IDOCK:   -5.96 KCAL/MOL
REMARK 923 INTER-LIGAND FREE ENERGY PREDICTED BY IDOCK:   -4.92 KCAL/MOL
REMARK 924 INTRA-LIGAND FREE ENERGY PREDICTED BY IDOCK:   -1.04 KCAL/MOL
REMARK 927      BINDING AFFINITY PREDICTED BY RF-SCORE:    0.00 PKD
ROOT
HETATM    1  O   UNL     1      -9.260  11.386  63.878  1.00  0.00    -0.391 OA 
HETATM    2  H   UNL     1      -8.392  11.342  63.492  1.00  0.00     0.000 HD 
HETATM    3  C   UNL     1      -9.807  12.697  63.796  1.00  0.00     0.145 C  
ENDROOT
BRANCH   3   4
HETATM    4  C   UNL     1     -11.215  12.768  64.422  1.00  0.00    -0.347 C  
HETATM    5  O   UNL     1     -11.372  11.856  65.531  1.00  0.00    -0.322 OA 
HETATM    6  C   UNL     1     -10.687  12.235  66.742  1.00  0.00    -0.240 C  
HETATM    7  C   UNL     1     -11.180  13.637  67.201  1.00  0.00    -0.309 C  
HETATM    8  H   UNL     1      -9.568  15.685  65.267  1.00  0.00     0.000 HD 
HETATM    9  C   UNL     1     -11.035  14.687  66.092  1.00  0.00    -0.329 C  
HETATM   10  O   UNL     1     -12.563  13.612  67.615  1.00  0.00    -0.244 OA 
HETATM   11  H   UNL     1     -13.384  15.111  65.065  1.00  0.00     0.000 HD 
HETATM   12  C   UNL     1     -11.667  14.200  64.777  1.00  0.00    -0.410 C  
HETATM   13  H   UNL     1     -12.865  14.468  67.895  1.00  0.00     0.000 HD 
HETATM   14  O   UNL     1      -9.657  15.036  65.954  1.00  0.00    -0.312 OA 
HETATM   15  O   UNL     1     -13.106  14.229  64.846  1.00  0.00    -0.645 OA 
BRANCH   6  16
HETATM   16  O   UNL     1      -9.277  12.127  66.534  1.00  0.00    -0.212 OA 
BRANCH  16  17
HETATM   17  C   UNL     1      -8.467  11.689  67.539  1.00  0.00    -0.150 A  
HETATM   18  C   UNL     1      -6.578  11.843  69.009  1.00  0.00    -0.091 A  
HETATM   19  C   UNL     1      -6.745  10.517  69.391  1.00  0.00    -0.076 A  
HETATM   20  O   UNL     1      -5.524  12.533  69.537  1.00  0.00    -0.075 OA 
HETATM   21  C   UNL     1      -7.444  12.444  68.104  1.00  0.00    -0.118 A  
HETATM   22  H   UNL     1      -4.931  12.122  70.156  1.00  0.00     0.000 HD 
HETATM   23  C   UNL     1      -7.791   9.750  68.867  1.00  0.00    -0.087 A  
HETATM   24  C   UNL     1      -8.631  10.341  67.912  1.00  0.00    -0.118 A  
BRANCH  23  25
HETATM   25  C   UNL     1      -7.908   8.354  69.336  1.00  0.00    -0.103 C  
HETATM   26  C   UNL     1      -6.916   7.452  69.418  1.00  0.00    -0.061 C  
BRANCH  26  27
HETATM   27  C   UNL     1      -7.138   6.016  69.702  1.00  0.00    -0.069 A  
HETATM   28  C   UNL     1      -8.457   5.544  69.799  1.00  0.00    -0.105 A  
HETATM   29  C   UNL     1      -8.728   4.217  70.149  1.00  0.00    -0.117 A  
HETATM   30  C   UNL     1      -7.673   3.344  70.389  1.00  0.00    -0.043 A  
HETATM   31  C   UNL     1      -6.360   3.770  70.248  1.00  0.00    -0.027 A  
HETATM   32  O   UNL     1      -7.890   2.053  70.773  1.00  0.00    -0.039 OA 
HETATM   33  H   UNL     1      -7.169   1.457  70.937  1.00  0.00     0.000 HD 
HETATM   34  C   UNL     1      -6.092   5.099  69.901  1.00  0.00    -0.021 A  
ENDBRANCH  26  27
ENDBRANCH  23  25
ENDBRANCH  16  17
ENDBRANCH   6  16
ENDBRANCH   3   4
TORSDOF 5
ENDMDL
MODEL      128
REMARK 921   NORMALIZED FREE ENERGY PREDICTED BY IDOCK:   -3.75 KCAL/MOL
REMARK 922        TOTAL FREE ENERGY PREDICTED BY IDOCK:   -5.93 KCAL/MOL
REMARK 923 INTER-LIGAND FREE ENERGY PREDICTED BY IDOCK:   -5.06 KCAL/MOL
REMARK 924 INTRA-LIGAND FREE ENERGY PREDICTED BY IDOCK:   -0.87 KCAL/MOL
REMARK 927      BINDING AFFINITY PREDICTED BY RF-SCORE:    0.00 PKD
ROOT
HETATM    1  O   UNL     1      -5.126   7.049  65.701  1.00  0.00    -0.022 OA 
HETATM    2  H   UNL     1      -4.588   7.013  66.484  1.00  0.00     0.000 HD 
HETATM    3  C   UNL     1      -6.386   7.661  65.955  1.00  0.00    -0.042 C  
ENDROOT
BRANCH   3   4
HETATM    4  C   UNL     1      -7.259   7.718  64.685  1.00  0.00    -0.072 C  
HETATM    5  O   UNL     1      -8.658   7.919  64.986  1.00  0.00    -0.104 OA 
HETATM    6  C   UNL     1      -9.007   9.246  65.428  1.00  0.00    -0.207 C  
HETATM    7  C   UNL     1      -8.598  10.282  64.342  1.00  0.00    -0.187 C  
HETATM    8  H   UNL     1      -5.401  10.629  64.786  1.00  0.00     0.000 HD 
HETATM    9  C   UNL     1      -7.116  10.161  63.966  1.00  0.00    -0.103 C  
HETATM   10  O   UNL     1      -9.378  10.133  63.136  1.00  0.00    -0.280 OA 
HETATM   11  H   UNL     1      -6.956   8.935  61.679  1.00  0.00     0.000 HD 
HETATM   12  C   UNL     1      -6.744   8.708  63.620  1.00  0.00    -0.088 C  
HETATM   13  H   UNL     1      -9.128  10.765  62.472  1.00  0.00     0.000 HD 
HETATM   14  O   UNL     1      -6.319  10.705  65.019  1.00  0.00    -0.084 OA 
HETATM   15  O   UNL     1      -7.273   8.326  62.335  1.00  0.00    -0.093 OA 
BRANCH   6  16
HETATM   16  O   UNL     1      -8.445   9.471  66.722  1.00  0.00    -0.125 OA 
BRANCH  16  17
HETATM   17  C   UNL     1      -9.212   9.984  67.725  1.00  0.00    -0.134 A  
HETATM   18  C   UNL     1     -10.817   9.839  69.502  1.00  0.00    -0.240 A  
HETATM   19  C   UNL     1     -10.937  11.224  69.530  1.00  0.00    -0.249 A  
HETATM   20  O   UNL     1     -11.599   9.113  70.355  1.00  0.00    -0.381 OA 
HETATM   21  C   UNL     1      -9.943   9.212  68.623  1.00  0.00    -0.185 A  
HETATM   22  H   UNL     1     -12.196   9.541  70.956  1.00  0.00     0.000 HD 
HETATM   23  C   UNL     1     -10.181  12.023  68.666  1.00  0.00    -0.189 A  
HETATM   24  C   UNL     1      -9.341  11.386  67.740  1.00  0.00    -0.162 A  
BRANCH  23  25
HETATM   25  C   UNL     1     -10.356  13.486  68.769  1.00  0.00    -0.169 C  
HETATM   26  C   UNL     1     -10.011  14.400  67.845  1.00  0.00    -0.228 C  
BRANCH  26  27
HETATM   27  C   UNL     1     -10.025  15.859  68.095  1.00  0.00    -0.222 A  
HETATM   28  C   UNL     1     -10.202  16.317  69.411  1.00  0.00    -0.265 A  
HETATM   29  C   UNL     1     -10.309  17.683  69.694  1.00  0.00     0.260 A  
HETATM   30  C   UNL     1     -10.223  18.605  68.657  1.00  0.00    -0.313 A  
HETATM   31  C   UNL     1      -9.996  18.183  67.355  1.00  0.00    -0.329 A  
HETATM   32  O   UNL     1     -10.364  19.943  68.882  1.00  0.00    -0.582 OA 
HETATM   33  H   UNL     1     -10.305  20.573  68.174  1.00  0.00     0.000 HD 
HETATM   34  C   UNL     1      -9.892  16.816  67.075  1.00  0.00    -0.262 A  
ENDBRANCH  26  27
ENDBRANCH  23  25
ENDBRANCH  16  17
ENDBRANCH   6  16
ENDBRANCH   3   4
TORSDOF 5
ENDMDL
MODEL      129
REMARK 921   NORMALIZED FREE ENERGY PREDICTED BY IDOCK:   -3.71 KCAL/MOL
REMARK 922        TOTAL FREE ENERGY PREDICTED BY IDOCK:   -5.88 KCAL/MOL
REMARK 923 INTER-LIGAND FREE ENERGY PREDICTED BY IDOCK:   -5.05 KCAL/MOL
REMARK 924 INTRA-LIGAND FREE ENERGY PREDICTED BY IDOCK:   -0.83 KCAL/MOL
REMARK 927      BINDING AFFINITY PREDICTED BY RF-SCORE:    0.00 PKD
ROOT
HETATM    1  O   UNL     1     -10.115   4.335  69.200  1.00  0.00    -0.083 OA 
HETATM    2  H   UNL     1     -10.406   4.015  68.354  1.00  0.00     0.000 HD 
HETATM    3  C   UNL     1      -9.025   5.241  69.075  1.00  0.00    -0.106 C  
ENDROOT
BRANCH   3   4
HETATM    4  C   UNL     1      -8.553   5.760  70.449  1.00  0.00    -0.133 C  
HETATM    5  O   UNL     1      -8.076   7.123  70.390  1.00  0.00    -0.114 OA 
HETATM    6  C   UNL     1      -9.101   8.127  70.231  1.00  0.00    -0.151 C  
HETATM    7  C   UNL     1     -10.115   8.025  71.405  1.00  0.00    -0.185 C  
HETATM    8  H   UNL     1     -11.997   5.514  70.572  1.00  0.00     0.000 HD 
HETATM    9  C   UNL     1     -10.696   6.611  71.539  1.00  0.00    -0.230 C  
HETATM   10  O   UNL     1      -9.514   8.382  72.668  1.00  0.00    -0.269 OA 
HETATM   11  H   UNL     1      -9.524   5.438  73.541  1.00  0.00     0.000 HD 
HETATM   12  C   UNL     1      -9.581   5.551  71.580  1.00  0.00    -0.150 C  
HETATM   13  H   UNL     1     -10.134   8.320  73.386  1.00  0.00     0.000 HD 
HETATM   14  O   UNL     1     -11.638   6.390  70.489  1.00  0.00    -0.369 OA 
HETATM   15  O   UNL     1      -8.891   5.568  72.844  1.00  0.00    -0.119 OA 
BRANCH   6  16
HETATM   16  O   UNL     1      -9.670   8.010  68.926  1.00  0.00    -0.155 OA 
BRANCH  16  17
HETATM   17  C   UNL     1      -9.024   8.533  67.845  1.00  0.00    -0.137 A  
HETATM   18  C   UNL     1      -7.433   8.481  66.051  1.00  0.00    -0.085 A  
HETATM   19  C   UNL     1      -7.586   9.848  65.852  1.00  0.00    -0.108 A  
HETATM   20  O   UNL     1      -6.528   7.819  65.270  1.00  0.00    -0.041 OA 
HETATM   21  C   UNL     1      -8.161   7.811  67.026  1.00  0.00    -0.117 A  
HETATM   22  H   UNL     1      -6.030   8.277  64.604  1.00  0.00     0.000 HD 
HETATM   23  C   UNL     1      -8.479  10.588  66.636  1.00  0.00    -0.129 A  
HETATM   24  C   UNL     1      -9.172   9.920  67.657  1.00  0.00    -0.146 A  
BRANCH  23  25
HETATM   25  C   UNL     1      -8.595  12.032  66.351  1.00  0.00    -0.037 C  
HETATM   26  C   UNL     1      -8.553  13.030  67.249  1.00  0.00    -0.206 C  
BRANCH  26  27
HETATM   27  C   UNL     1      -8.879  14.437  66.923  1.00  0.00    -0.246 A  
HETATM   28  C   UNL     1      -8.134  15.460  67.533  1.00  0.00    -0.187 A  
HETATM   29  C   UNL     1      -8.452  16.808  67.329  1.00  0.00    -0.202 A  
HETATM   30  C   UNL     1      -9.514  17.141  66.496  1.00  0.00    -0.273 A  
HETATM   31  C   UNL     1     -10.233  16.152  65.840  1.00  0.00    -0.381 A  
HETATM   32  O   UNL     1      -9.886  18.439  66.301  1.00  0.00    -0.355 OA 
HETATM   33  H   UNL     1     -10.611  18.667  65.732  1.00  0.00     0.000 HD 
HETATM   34  C   UNL     1      -9.914  14.805  66.047  1.00  0.00    -0.336 A  
ENDBRANCH  26  27
ENDBRANCH  23  25
ENDBRANCH  16  17
ENDBRANCH   6  16
ENDBRANCH   3   4
TORSDOF 5
ENDMDL
MODEL      130
REMARK 921   NORMALIZED FREE ENERGY PREDICTED BY IDOCK:   -3.67 KCAL/MOL
REMARK 922        TOTAL FREE ENERGY PREDICTED BY IDOCK:   -5.83 KCAL/MOL
REMARK 923 INTER-LIGAND FREE ENERGY PREDICTED BY IDOCK:   -4.75 KCAL/MOL
REMARK 924 INTRA-LIGAND FREE ENERGY PREDICTED BY IDOCK:   -1.08 KCAL/MOL
REMARK 927      BINDING AFFINITY PREDICTED BY RF-SCORE:    0.00 PKD
ROOT
HETATM    1  O   UNL     1     -11.712   9.115  70.509  1.00  0.00    -0.384 OA 
HETATM    2  H   UNL     1     -11.964   9.960  70.862  1.00  0.00     0.000 HD 
HETATM    3  C   UNL     1     -10.706   8.492  71.299  1.00  0.00    -0.240 C  
ENDROOT
BRANCH   3   4
HETATM    4  C   UNL     1     -10.297   7.120  70.725  1.00  0.00    -0.206 C  
HETATM    5  O   UNL     1     -10.008   7.177  69.310  1.00  0.00    -0.163 OA 
HETATM    6  C   UNL     1      -8.767   7.824  68.962  1.00  0.00    -0.135 C  
HETATM    7  C   UNL     1      -7.585   7.095  69.662  1.00  0.00    -0.104 C  
HETATM    8  H   UNL     1      -7.689   8.222  72.705  1.00  0.00     0.000 HD 
HETATM    9  C   UNL     1      -7.790   6.999  71.179  1.00  0.00    -0.099 C  
HETATM   10  O   UNL     1      -7.400   5.757  69.152  1.00  0.00    -0.078 OA 
HETATM   11  H   UNL     1      -8.538   4.576  71.747  1.00  0.00     0.000 HD 
HETATM   12  C   UNL     1      -9.175   6.421  71.520  1.00  0.00    -0.144 C  
HETATM   13  H   UNL     1      -6.679   5.311  69.579  1.00  0.00     0.000 HD 
HETATM   14  O   UNL     1      -7.561   8.282  71.765  1.00  0.00    -0.083 OA 
HETATM   15  O   UNL     1      -9.230   5.006  71.256  1.00  0.00    -0.139 OA 
BRANCH   6  16
HETATM   16  O   UNL     1      -8.872   9.221  69.247  1.00  0.00    -0.136 OA 
BRANCH  16  17
HETATM   17  C   UNL     1      -8.950  10.125  68.229  1.00  0.00    -0.120 A  
HETATM   18  C   UNL     1      -9.041  10.772  65.922  1.00  0.00    -0.188 A  
HETATM   19  C   UNL     1      -8.807  12.099  66.266  1.00  0.00    -0.040 A  
HETATM   20  O   UNL     1      -9.154  10.467  64.595  1.00  0.00    -0.192 OA 
HETATM   21  C   UNL     1      -9.137   9.784  66.893  1.00  0.00    -0.162 A  
HETATM   22  H   UNL     1      -9.088  11.143  63.931  1.00  0.00     0.000 HD 
HETATM   23  C   UNL     1      -8.657  12.472  67.606  1.00  0.00    -0.178 A  
HETATM   24  C   UNL     1      -8.699  11.464  68.582  1.00  0.00    -0.121 A  
BRANCH  23  25
HETATM   25  C   UNL     1      -8.427  13.903  67.890  1.00  0.00    -0.177 C  
HETATM   26  C   UNL     1      -7.999  14.832  67.019  1.00  0.00    -0.139 C  
BRANCH  26  27
HETATM   27  C   UNL     1      -7.596  16.200  67.416  1.00  0.00    -0.191 A  
HETATM   28  C   UNL     1      -7.842  16.620  68.733  1.00  0.00    -0.238 A  
HETATM   29  C   UNL     1      -7.561  17.929  69.141  1.00  0.00    -0.050 A  
HETATM   30  C   UNL     1      -7.013  18.825  68.231  1.00  0.00    -0.246 A  
HETATM   31  C   UNL     1      -6.710  18.422  66.938  1.00  0.00    -0.208 A  
HETATM   32  O   UNL     1      -6.761  20.122  68.572  1.00  0.00    -0.296 OA 
HETATM   33  H   UNL     1      -6.386  20.735  67.950  1.00  0.00     0.000 HD 
HETATM   34  C   UNL     1      -6.995  17.113  66.533  1.00  0.00    -0.296 A  
ENDBRANCH  26  27
ENDBRANCH  23  25
ENDBRANCH  16  17
ENDBRANCH   6  16
ENDBRANCH   3   4
TORSDOF 5
ENDMDL
MODEL      131
REMARK 921   NORMALIZED FREE ENERGY PREDICTED BY IDOCK:   -3.57 KCAL/MOL
REMARK 922        TOTAL FREE ENERGY PREDICTED BY IDOCK:   -5.69 KCAL/MOL
REMARK 923 INTER-LIGAND FREE ENERGY PREDICTED BY IDOCK:   -4.67 KCAL/MOL
REMARK 924 INTRA-LIGAND FREE ENERGY PREDICTED BY IDOCK:   -1.03 KCAL/MOL
REMARK 927      BINDING AFFINITY PREDICTED BY RF-SCORE:    0.00 PKD
ROOT
HETATM    1  O   UNL     1     -10.710  14.083  66.752  1.00  0.00    -0.282 OA 
HETATM    2  H   UNL     1     -10.283  14.088  67.601  1.00  0.00     0.000 HD 
HETATM    3  C   UNL     1      -9.883  13.505  65.748  1.00  0.00    -0.201 C  
ENDROOT
BRANCH   3   4
HETATM    4  C   UNL     1     -10.576  13.498  64.371  1.00  0.00    -0.377 C  
HETATM    5  O   UNL     1     -10.134  12.405  63.536  1.00  0.00    -0.393 OA 
HETATM    6  C   UNL     1     -10.622  11.102  63.919  1.00  0.00    -0.364 C  
HETATM    7  C   UNL     1     -12.177  11.108  63.916  1.00  0.00     1.000 C  
HETATM    8  H   UNL     1     -12.939  12.568  66.714  1.00  0.00     0.000 HD 
HETATM    9  C   UNL     1     -12.747  12.229  64.795  1.00  0.00    -0.106 C  
HETATM   10  O   UNL     1     -12.713  11.268  62.585  1.00  0.00    -0.801 OA 
HETATM   11  H   UNL     1     -13.562  14.145  63.241  1.00  0.00     0.000 HD 
HETATM   12  C   UNL     1     -12.115  13.587  64.447  1.00  0.00    -0.420 C  
HETATM   13  H   UNL     1     -13.663  11.272  62.583  1.00  0.00     0.000 HD 
HETATM   14  O   UNL     1     -12.587  11.874  66.170  1.00  0.00     0.334 OA 
HETATM   15  O   UNL     1     -12.614  14.090  63.193  1.00  0.00    -0.733 OA 
BRANCH   6  16
HETATM   16  O   UNL     1     -10.019  10.723  65.157  1.00  0.00    -0.250 OA 
BRANCH  16  17
HETATM   17  C   UNL     1      -9.207   9.630  65.219  1.00  0.00    -0.237 A  
HETATM   18  C   UNL     1      -7.633   8.059  64.321  1.00  0.00    -0.118 A  
HETATM   19  C   UNL     1      -7.836   7.210  65.403  1.00  0.00    -0.119 A  
HETATM   20  O   UNL     1      -6.777   7.649  63.339  1.00  0.00    -0.057 OA 
HETATM   21  C   UNL     1      -8.293   9.278  64.231  1.00  0.00    -0.180 A  
HETATM   22  H   UNL     1      -6.326   6.815  63.400  1.00  0.00     0.000 HD 
HETATM   23  C   UNL     1      -8.720   7.561  66.430  1.00  0.00    -0.158 A  
HETATM   24  C   UNL     1      -9.428   8.767  66.310  1.00  0.00    -0.300 A  
BRANCH  23  25
HETATM   25  C   UNL     1      -8.868   6.611  67.551  1.00  0.00    -0.116 C  
HETATM   26  C   UNL     1      -7.894   6.187  68.373  1.00  0.00    -0.104 C  
BRANCH  26  27
HETATM   27  C   UNL     1      -8.068   5.083  69.345  1.00  0.00    -0.079 A  
HETATM   28  C   UNL     1      -9.199   5.090  70.178  1.00  0.00    -0.186 A  
HETATM   29  C   UNL     1      -9.372   4.121  71.172  1.00  0.00    -0.219 A  
HETATM   30  C   UNL     1      -8.416   3.123  71.328  1.00  0.00    -0.064 A  
HETATM   31  C   UNL     1      -7.317   3.062  70.484  1.00  0.00    -0.037 A  
HETATM   32  O   UNL     1      -8.523   2.183  72.310  1.00  0.00    -0.053 OA 
HETATM   33  H   UNL     1      -7.871   1.501  72.417  1.00  0.00     0.000 HD 
HETATM   34  C   UNL     1      -7.145   4.035  69.492  1.00  0.00    -0.046 A  
ENDBRANCH  26  27
ENDBRANCH  23  25
ENDBRANCH  16  17
ENDBRANCH   6  16
ENDBRANCH   3   4
TORSDOF 5
ENDMDL
MODEL      132
REMARK 921   NORMALIZED FREE ENERGY PREDICTED BY IDOCK:   -3.54 KCAL/MOL
REMARK 922        TOTAL FREE ENERGY PREDICTED BY IDOCK:   -5.65 KCAL/MOL
REMARK 923 INTER-LIGAND FREE ENERGY PREDICTED BY IDOCK:   -4.72 KCAL/MOL
REMARK 924 INTRA-LIGAND FREE ENERGY PREDICTED BY IDOCK:   -0.93 KCAL/MOL
REMARK 927      BINDING AFFINITY PREDICTED BY RF-SCORE:    0.00 PKD
ROOT
HETATM    1  O   UNL     1      -6.744  14.977  68.533  1.00  0.00    -0.092 OA 
HETATM    2  H   UNL     1      -6.016  14.481  68.888  1.00  0.00     0.000 HD 
HETATM    3  C   UNL     1      -7.910  14.853  69.341  1.00  0.00    -0.139 C  
ENDROOT
BRANCH   3   4
HETATM    4  C   UNL     1      -9.092  15.659  68.764  1.00  0.00    -0.208 C  
HETATM    5  O   UNL     1      -9.255  15.459  67.343  1.00  0.00    -0.192 OA 
HETATM    6  C   UNL     1      -9.791  14.175  66.960  1.00  0.00    -0.258 C  
HETATM    7  C   UNL     1     -11.177  13.967  67.635  1.00  0.00    -0.297 C  
HETATM    8  H   UNL     1     -10.424  13.105  70.673  1.00  0.00     0.000 HD 
HETATM    9  C   UNL     1     -11.103  14.141  69.157  1.00  0.00    -0.262 C  
HETATM   10  O   UNL     1     -12.166  14.888  67.127  1.00  0.00    -0.412 OA 
HETATM   11  H   UNL     1     -12.086  16.472  69.756  1.00  0.00     0.000 HD 
HETATM   12  C   UNL     1     -10.414  15.464  69.536  1.00  0.00    -0.261 C  
HETATM   13  H   UNL     1     -13.012  14.761  67.539  1.00  0.00     0.000 HD 
HETATM   14  O   UNL     1     -10.469  12.997  69.730  1.00  0.00     0.549 OA 
HETATM   15  O   UNL     1     -11.272  16.592  69.281  1.00  0.00    -0.296 OA 
BRANCH   6  16
HETATM   16  O   UNL     1      -8.822  13.162  67.240  1.00  0.00    -0.191 OA 
BRANCH  16  17
HETATM   17  C   UNL     1      -9.065  11.866  66.895  1.00  0.00    -0.196 A  
HETATM   18  C   UNL     1      -9.920  10.138  65.467  1.00  0.00    -0.293 A  
HETATM   19  C   UNL     1      -9.754   9.198  66.477  1.00  0.00    -0.306 A  
HETATM   20  O   UNL     1     -10.468   9.720  64.288  1.00  0.00    -0.036 OA 
HETATM   21  C   UNL     1      -9.559  11.466  65.656  1.00  0.00    -0.258 A  
HETATM   22  H   UNL     1     -10.715   8.812  64.159  1.00  0.00     0.000 HD 
HETATM   23  C   UNL     1      -9.221   9.568  67.717  1.00  0.00    -0.136 A  
HETATM   24  C   UNL     1      -8.908  10.920  67.925  1.00  0.00    -0.134 A  
BRANCH  23  25
HETATM   25  C   UNL     1      -9.062   8.506  68.731  1.00  0.00    -0.143 C  
HETATM   26  C   UNL     1      -9.697   7.322  68.755  1.00  0.00    -0.151 C  
BRANCH  26  27
HETATM   27  C   UNL     1      -9.646   6.391  69.905  1.00  0.00    -0.166 A  
HETATM   28  C   UNL     1      -8.444   6.270  70.622  1.00  0.00    -0.134 A  
HETATM   29  C   UNL     1      -8.311   5.344  71.662  1.00  0.00    -0.119 A  
HETATM   30  C   UNL     1      -9.392   4.540  72.004  1.00  0.00    -0.139 A  
HETATM   31  C   UNL     1     -10.607   4.676  71.348  1.00  0.00     0.013 A  
HETATM   32  O   UNL     1      -9.296   3.596  72.984  1.00  0.00    -0.101 OA 
HETATM   33  H   UNL     1     -10.034   3.046  73.218  1.00  0.00     0.000 HD 
HETATM   34  C   UNL     1     -10.736   5.601  70.306  1.00  0.00    -0.364 A  
ENDBRANCH  26  27
ENDBRANCH  23  25
ENDBRANCH  16  17
ENDBRANCH   6  16
ENDBRANCH   3   4
TORSDOF 5
ENDMDL
MODEL      133
REMARK 921   NORMALIZED FREE ENERGY PREDICTED BY IDOCK:   -3.51 KCAL/MOL
REMARK 922        TOTAL FREE ENERGY PREDICTED BY IDOCK:   -5.62 KCAL/MOL
REMARK 923 INTER-LIGAND FREE ENERGY PREDICTED BY IDOCK:   -7.20 KCAL/MOL
REMARK 924 INTRA-LIGAND FREE ENERGY PREDICTED BY IDOCK:    1.59 KCAL/MOL
REMARK 927      BINDING AFFINITY PREDICTED BY RF-SCORE:    0.00 PKD
ROOT
HETATM    1  O   UNL     1      -7.776  14.508  69.088  1.00  0.00    -0.175 OA 
HETATM    2  H   UNL     1      -8.241  13.883  69.633  1.00  0.00     0.000 HD 
HETATM    3  C   UNL     1      -8.229  14.471  67.739  1.00  0.00    -0.165 C  
ENDROOT
BRANCH   3   4
HETATM    4  C   UNL     1      -7.475  15.486  66.856  1.00  0.00    -0.082 C  
HETATM    5  O   UNL     1      -8.370  16.355  66.127  1.00  0.00    -0.321 OA 
HETATM    6  C   UNL     1      -9.033  17.361  66.920  1.00  0.00    -0.245 C  
HETATM    7  C   UNL     1      -7.970  18.251  67.625  1.00  0.00    -0.241 C  
HETATM    8  H   UNL     1      -7.010  16.442  70.144  1.00  0.00     0.000 HD 
HETATM    9  C   UNL     1      -6.979  17.417  68.446  1.00  0.00    -0.201 C  
HETATM   10  O   UNL     1      -7.215  19.039  66.680  1.00  0.00    -0.205 OA 
HETATM   11  H   UNL     1      -4.753  17.257  67.113  1.00  0.00     0.000 HD 
HETATM   12  C   UNL     1      -6.382  16.274  67.607  1.00  0.00    -0.157 C  
HETATM   13  H   UNL     1      -6.566  19.583  67.110  1.00  0.00     0.000 HD 
HETATM   14  O   UNL     1      -7.624  16.958  69.636  1.00  0.00     0.087 OA 
HETATM   15  O   UNL     1      -5.427  16.772  66.651  1.00  0.00    -0.317 OA 
BRANCH   6  16
HETATM   16  O   UNL     1      -9.968  16.725  67.794  1.00  0.00    -0.255 OA 
BRANCH  16  17
HETATM   17  C   UNL     1     -10.699  15.659  67.359  1.00  0.00    -0.309 A  
HETATM   18  C   UNL     1     -12.159  14.525  65.832  1.00  0.00    -0.280 A  
HETATM   19  C   UNL     1     -12.378  13.516  66.763  1.00  0.00    -0.326 A  
HETATM   20  O   UNL     1     -12.824  14.450  64.641  1.00  0.00    -0.643 OA 
HETATM   21  C   UNL     1     -11.306  15.586  66.109  1.00  0.00    -0.010 A  
HETATM   22  H   UNL     1     -13.407  13.725  64.451  1.00  0.00     0.000 HD 
HETATM   23  C   UNL     1     -11.746  13.547  68.011  1.00  0.00    -0.394 A  
HETATM   24  C   UNL     1     -10.928  14.648  68.311  1.00  0.00    -0.261 A  
BRANCH  23  25
HETATM   25  C   UNL     1     -12.019  12.430  68.938  1.00  0.00    -0.289 C  
HETATM   26  C   UNL     1     -11.207  11.393  69.200  1.00  0.00    -0.335 C  
BRANCH  26  27
HETATM   27  C   UNL     1     -11.624  10.206  69.981  1.00  0.00    -0.323 A  
HETATM   28  C   UNL     1     -12.956  10.121  70.419  1.00  0.00    -0.116 A  
HETATM   29  C   UNL     1     -13.385   9.066  71.231  1.00  0.00    -0.259 A  
HETATM   30  C   UNL     1     -12.482   8.075  71.600  1.00  0.00    -0.320 A  
HETATM   31  C   UNL     1     -11.174   8.107  71.138  1.00  0.00    -0.289 A  
HETATM   32  O   UNL     1     -12.846   7.051  72.424  1.00  0.00    -0.504 OA 
HETATM   33  H   UNL     1     -12.229   6.374  72.676  1.00  0.00     0.000 HD 
HETATM   34  C   UNL     1     -10.747   9.165  70.327  1.00  0.00    -0.268 A  
ENDBRANCH  26  27
ENDBRANCH  23  25
ENDBRANCH  16  17
ENDBRANCH   6  16
ENDBRANCH   3   4
TORSDOF 5
ENDMDL
MODEL      134
REMARK 921   NORMALIZED FREE ENERGY PREDICTED BY IDOCK:   -3.50 KCAL/MOL
REMARK 922        TOTAL FREE ENERGY PREDICTED BY IDOCK:   -5.60 KCAL/MOL
REMARK 923 INTER-LIGAND FREE ENERGY PREDICTED BY IDOCK:   -4.54 KCAL/MOL
REMARK 924 INTRA-LIGAND FREE ENERGY PREDICTED BY IDOCK:   -1.06 KCAL/MOL
REMARK 927      BINDING AFFINITY PREDICTED BY RF-SCORE:    0.00 PKD
ROOT
HETATM    1  O   UNL     1     -11.163  19.345  66.213  1.00  0.00    -0.074 OA 
HETATM    2  H   UNL     1     -11.600  19.419  65.373  1.00  0.00     0.000 HD 
HETATM    3  C   UNL     1      -9.750  19.465  66.084  1.00  0.00    -0.359 C  
ENDROOT
BRANCH   3   4
HETATM    4  C   UNL     1      -9.040  19.343  67.448  1.00  0.00    -0.299 C  
HETATM    5  O   UNL     1      -9.439  18.159  68.174  1.00  0.00    -0.275 OA 
HETATM    6  C   UNL     1      -8.917  16.917  67.659  1.00  0.00    -0.219 C  
HETATM    7  C   UNL     1      -7.362  16.971  67.647  1.00  0.00    -0.160 C  
HETATM    8  H   UNL     1      -6.679  18.725  65.003  1.00  0.00     0.000 HD 
HETATM    9  C   UNL     1      -6.838  18.191  66.879  1.00  0.00    -0.188 C  
HETATM   10  O   UNL     1      -6.816  17.015  68.983  1.00  0.00    -0.207 OA 
HETATM   11  H   UNL     1      -6.062  19.968  68.610  1.00  0.00     0.000 HD 
HETATM   12  C   UNL     1      -7.506  19.488  67.367  1.00  0.00    -0.244 C  
HETATM   13  H   UNL     1      -5.866  17.049  68.977  1.00  0.00     0.000 HD 
HETATM   14  O   UNL     1      -7.004  17.970  65.478  1.00  0.00    -0.486 OA 
HETATM   15  O   UNL     1      -7.007  19.879  68.660  1.00  0.00    -0.315 OA 
BRANCH   6  16
HETATM   16  O   UNL     1      -9.522  16.644  66.394  1.00  0.00    -0.250 OA 
BRANCH  16  17
HETATM   17  C   UNL     1     -10.239  15.498  66.208  1.00  0.00    -0.294 A  
HETATM   18  C   UNL     1     -12.228  14.162  66.294  1.00  0.00    -0.449 A  
HETATM   19  C   UNL     1     -11.486  13.011  66.058  1.00  0.00    -0.374 A  
HETATM   20  O   UNL     1     -13.573  14.026  66.490  1.00  0.00     0.828 OA 
HETATM   21  C   UNL     1     -11.621  15.410  66.348  1.00  0.00     0.105 A  
HETATM   22  H   UNL     1     -13.989  13.173  66.453  1.00  0.00     0.000 HD 
HETATM   23  C   UNL     1     -10.101  13.080  65.873  1.00  0.00    -0.291 A  
HETATM   24  C   UNL     1      -9.481  14.334  65.984  1.00  0.00    -0.213 A  
BRANCH  23  25
HETATM   25  C   UNL     1      -9.387  11.813  65.612  1.00  0.00    -0.165 C  
HETATM   26  C   UNL     1      -8.943  11.377  64.422  1.00  0.00     0.189 C  
BRANCH  26  27
HETATM   27  C   UNL     1      -8.418  10.011  64.196  1.00  0.00    -0.179 A  
HETATM   28  C   UNL     1      -7.992   9.261  65.304  1.00  0.00    -0.107 A  
HETATM   29  C   UNL     1      -7.409   7.999  65.143  1.00  0.00    -0.074 A  
HETATM   30  C   UNL     1      -7.263   7.471  63.866  1.00  0.00    -0.082 A  
HETATM   31  C   UNL     1      -7.724   8.168  62.758  1.00  0.00    -0.133 A  
HETATM   32  O   UNL     1      -6.663   6.264  63.659  1.00  0.00    -0.038 OA 
HETATM   33  H   UNL     1      -6.563   5.902  62.786  1.00  0.00     0.000 HD 
HETATM   34  C   UNL     1      -8.304   9.431  62.921  1.00  0.00    -0.183 A  
ENDBRANCH  26  27
ENDBRANCH  23  25
ENDBRANCH  16  17
ENDBRANCH   6  16
ENDBRANCH   3   4
TORSDOF 5
ENDMDL
MODEL      135
REMARK 921   NORMALIZED FREE ENERGY PREDICTED BY IDOCK:   -3.44 KCAL/MOL
REMARK 922        TOTAL FREE ENERGY PREDICTED BY IDOCK:   -5.52 KCAL/MOL
REMARK 923 INTER-LIGAND FREE ENERGY PREDICTED BY IDOCK:   -4.48 KCAL/MOL
REMARK 924 INTRA-LIGAND FREE ENERGY PREDICTED BY IDOCK:   -1.04 KCAL/MOL
REMARK 927      BINDING AFFINITY PREDICTED BY RF-SCORE:    0.00 PKD
ROOT
HETATM    1  O   UNL     1     -10.148   4.934  68.952  1.00  0.00    -0.171 OA 
HETATM    2  H   UNL     1     -10.660   5.124  69.729  1.00  0.00     0.000 HD 
HETATM    3  C   UNL     1     -10.419   5.858  67.903  1.00  0.00    -0.236 C  
ENDROOT
BRANCH   3   4
HETATM    4  C   UNL     1      -9.587   5.549  66.642  1.00  0.00    -0.151 C  
HETATM    5  O   UNL     1      -9.272   6.738  65.884  1.00  0.00    -0.091 OA 
HETATM    6  C   UNL     1      -8.275   7.598  66.474  1.00  0.00    -0.125 C  
HETATM    7  C   UNL     1      -6.956   6.799  66.681  1.00  0.00    -0.066 C  
HETATM    8  H   UNL     1      -7.524   5.075  69.373  1.00  0.00     0.000 HD 
HETATM    9  C   UNL     1      -7.184   5.520  67.497  1.00  0.00    -0.075 C  
HETATM   10  O   UNL     1      -6.350   6.426  65.426  1.00  0.00    -0.036 OA 
HETATM   11  H   UNL     1      -7.177   3.502  65.860  1.00  0.00     0.000 HD 
HETATM   12  C   UNL     1      -8.338   4.685  66.915  1.00  0.00    -0.106 C  
HETATM   13  H   UNL     1      -5.545   5.938  65.552  1.00  0.00     0.000 HD 
HETATM   14  O   UNL     1      -7.383   5.867  68.868  1.00  0.00    -0.080 OA 
HETATM   15  O   UNL     1      -7.946   4.034  65.691  1.00  0.00    -0.092 OA 
BRANCH   6  16
HETATM   16  O   UNL     1      -8.814   8.196  67.655  1.00  0.00    -0.135 OA 
BRANCH  16  17
HETATM   17  C   UNL     1      -8.247   9.322  68.174  1.00  0.00    -0.119 A  
HETATM   18  C   UNL     1      -6.877  10.526  69.732  1.00  0.00    -0.138 A  
HETATM   19  C   UNL     1      -7.413  11.733  69.298  1.00  0.00     0.109 A  
HETATM   20  O   UNL     1      -5.966  10.560  70.749  1.00  0.00    -0.162 OA 
HETATM   21  C   UNL     1      -7.268   9.320  69.163  1.00  0.00    -0.067 A  
HETATM   22  H   UNL     1      -5.699  11.384  71.138  1.00  0.00     0.000 HD 
HETATM   23  C   UNL     1      -8.369  11.763  68.276  1.00  0.00    -0.159 A  
HETATM   24  C   UNL     1      -8.804  10.541  67.741  1.00  0.00    -0.125 A  
BRANCH  23  25
HETATM   25  C   UNL     1      -8.877  13.086  67.862  1.00  0.00    -0.193 C  
HETATM   26  C   UNL     1      -8.158  14.213  67.729  1.00  0.00    -0.170 C  
BRANCH  26  27
HETATM   27  C   UNL     1      -8.762  15.547  67.509  1.00  0.00    -0.183 A  
HETATM   28  C   UNL     1      -9.997  15.836  68.113  1.00  0.00    -0.214 A  
HETATM   29  C   UNL     1     -10.656  17.046  67.872  1.00  0.00    -0.365 A  
HETATM   30  C   UNL     1     -10.071  17.987  67.032  1.00  0.00    -0.346 A  
HETATM   31  C   UNL     1      -8.828  17.750  66.464  1.00  0.00    -0.283 A  
HETATM   32  O   UNL     1     -10.696  19.163  66.736  1.00  0.00    -0.425 OA 
HETATM   33  H   UNL     1     -10.297  19.806  66.162  1.00  0.00     0.000 HD 
HETATM   34  C   UNL     1      -8.172  16.537  66.705  1.00  0.00    -0.279 A  
ENDBRANCH  26  27
ENDBRANCH  23  25
ENDBRANCH  16  17
ENDBRANCH   6  16
ENDBRANCH   3   4
TORSDOF 5
ENDMDL
MODEL      136
REMARK 921   NORMALIZED FREE ENERGY PREDICTED BY IDOCK:   -2.98 KCAL/MOL
REMARK 922        TOTAL FREE ENERGY PREDICTED BY IDOCK:   -4.93 KCAL/MOL
REMARK 923 INTER-LIGAND FREE ENERGY PREDICTED BY IDOCK:   -3.92 KCAL/MOL
REMARK 924 INTRA-LIGAND FREE ENERGY PREDICTED BY IDOCK:   -1.01 KCAL/MOL
REMARK 927      BINDING AFFINITY PREDICTED BY RF-SCORE:    0.00 PKD
ROOT
HETATM    1  O   UNL     1     -11.075  11.910  70.189  1.00  0.00    -0.438 OA 
HETATM    2  H   UNL     1     -11.537  11.687  70.989  1.00  0.00     0.000 HD 
HETATM    3  C   UNL     1     -10.055  10.965  69.889  1.00  0.00     0.361 C  
ENDROOT
BRANCH   3   4
HETATM    4  C   UNL     1      -9.305  11.327  68.590  1.00  0.00    -0.164 C  
HETATM    5  O   UNL     1      -8.988  10.164  67.793  1.00  0.00    -0.128 OA 
HETATM    6  C   UNL     1     -10.109   9.558  67.117  1.00  0.00    -0.229 C  
HETATM    7  C   UNL     1     -10.783  10.606  66.186  1.00  0.00    -0.076 C  
HETATM    8  H   UNL     1     -12.570  12.395  68.222  1.00  0.00     0.000 HD 
HETATM    9  C   UNL     1     -11.177  11.878  66.948  1.00  0.00    -0.325 C  
HETATM   10  O   UNL     1      -9.922  10.989  65.093  1.00  0.00    -0.243 OA 
HETATM   11  H   UNL     1      -9.437  13.728  66.393  1.00  0.00     0.000 HD 
HETATM   12  C   UNL     1      -9.993  12.431  67.761  1.00  0.00    -0.205 C  
HETATM   13  H   UNL     1     -10.333  11.630  64.525  1.00  0.00     0.000 HD 
HETATM   14  O   UNL     1     -12.327  11.608  67.751  1.00  0.00    -0.349 OA 
HETATM   15  O   UNL     1      -9.013  13.048  66.904  1.00  0.00    -0.220 OA 
BRANCH   6  16
HETATM   16  O   UNL     1     -10.974   8.962  68.085  1.00  0.00    -0.058 OA 
BRANCH  16  17
HETATM   17  C   UNL     1     -10.736   7.696  68.532  1.00  0.00    -0.051 A  
HETATM   18  C   UNL     1     -10.620   5.988  70.211  1.00  0.00    -0.273 A  
HETATM   19  C   UNL     1      -9.921   5.157  69.344  1.00  0.00    -0.292 A  
HETATM   20  O   UNL     1     -10.855   5.536  71.479  1.00  0.00    -0.244 OA 
HETATM   21  C   UNL     1     -11.052   7.246  69.810  1.00  0.00    -0.203 A  
HETATM   22  H   UNL     1     -10.560   4.676  71.753  1.00  0.00     0.000 HD 
HETATM   23  C   UNL     1      -9.627   5.572  68.040  1.00  0.00    -0.147 A  
HETATM   24  C   UNL     1     -10.015   6.865  67.654  1.00  0.00    -0.180 A  
BRANCH  23  25
HETATM   25  C   UNL     1      -8.894   4.625  67.176  1.00  0.00    -0.109 C  
HETATM   26  C   UNL     1      -7.832   4.907  66.403  1.00  0.00    -0.099 C  
BRANCH  26  27
HETATM   27  C   UNL     1      -7.272   3.963  65.408  1.00  0.00    -0.068 A  
HETATM   28  C   UNL     1      -6.078   3.291  65.715  1.00  0.00    -0.024 A  
HETATM   29  C   UNL     1      -5.457   2.453  64.782  1.00  0.00    -0.009 A  
HETATM   30  C   UNL     1      -6.042   2.270  63.534  1.00  0.00    -0.010 A  
HETATM   31  C   UNL     1      -7.249   2.880  63.223  1.00  0.00    -0.049 A  
HETATM   32  O   UNL     1      -5.451   1.496  62.578  1.00  0.00    -0.003 OA 
HETATM   33  H   UNL     1      -5.850   1.370  61.725  1.00  0.00     0.000 HD 
HETATM   34  C   UNL     1      -7.865   3.719  64.159  1.00  0.00    -0.085 A  
ENDBRANCH  26  27
ENDBRANCH  23  25
ENDBRANCH  16  17
ENDBRANCH   6  16
ENDBRANCH   3   4
TORSDOF 5
ENDMDL
MODEL      137
REMARK 921   NORMALIZED FREE ENERGY PREDICTED BY IDOCK:   -2.90 KCAL/MOL
REMARK 922        TOTAL FREE ENERGY PREDICTED BY IDOCK:   -4.82 KCAL/MOL
REMARK 923 INTER-LIGAND FREE ENERGY PREDICTED BY IDOCK:   -3.76 KCAL/MOL
REMARK 924 INTRA-LIGAND FREE ENERGY PREDICTED BY IDOCK:   -1.06 KCAL/MOL
REMARK 927      BINDING AFFINITY PREDICTED BY RF-SCORE:    0.00 PKD
ROOT
HETATM    1  O   UNL     1      -6.117   9.973  66.013  1.00  0.00    -0.067 OA 
HETATM    2  H   UNL     1      -6.407   9.799  65.125  1.00  0.00     0.000 HD 
HETATM    3  C   UNL     1      -6.348   8.861  66.870  1.00  0.00    -0.060 C  
ENDROOT
BRANCH   3   4
HETATM    4  C   UNL     1      -5.877   9.144  68.312  1.00  0.00    -0.038 C  
HETATM    5  O   UNL     1      -6.393  10.392  68.826  1.00  0.00    -0.047 OA 
HETATM    6  C   UNL     1      -7.797  10.386  69.160  1.00  0.00    -0.134 C  
HETATM    7  C   UNL     1      -8.075   9.281  70.218  1.00  0.00    -0.154 C  
HETATM    8  H   UNL     1      -8.153   6.549  68.466  1.00  0.00     0.000 HD 
HETATM    9  C   UNL     1      -7.577   7.906  69.754  1.00  0.00    -0.090 C  
HETATM   10  O   UNL     1      -7.449   9.578  71.484  1.00  0.00    -0.303 OA 
HETATM   11  H   UNL     1      -5.358   7.382  71.002  1.00  0.00     0.000 HD 
HETATM   12  C   UNL     1      -6.113   7.971  69.286  1.00  0.00    -0.034 C  
HETATM   13  H   UNL     1      -7.618   8.903  72.131  1.00  0.00     0.000 HD 
HETATM   14  O   UNL     1      -8.462   7.400  68.753  1.00  0.00    -0.128 OA 
HETATM   15  O   UNL     1      -5.213   8.105  70.402  1.00  0.00    -0.023 OA 
BRANCH   6  16
HETATM   16  O   UNL     1      -8.562  10.281  67.958  1.00  0.00    -0.117 OA 
BRANCH  16  17
HETATM   17  C   UNL     1      -9.254  11.358  67.488  1.00  0.00    -0.160 A  
HETATM   18  C   UNL     1     -10.721  12.478  65.957  1.00  0.00    -0.262 A  
HETATM   19  C   UNL     1     -10.358  13.712  66.483  1.00  0.00    -0.282 A  
HETATM   20  O   UNL     1     -11.599  12.463  64.910  1.00  0.00    -0.321 OA 
HETATM   21  C   UNL     1     -10.195  11.297  66.465  1.00  0.00    -0.269 A  
HETATM   22  H   UNL     1     -11.959  13.270  64.562  1.00  0.00     0.000 HD 
HETATM   23  C   UNL     1      -9.445  13.796  67.540  1.00  0.00    -0.220 A  
HETATM   24  C   UNL     1      -8.872  12.606  68.015  1.00  0.00    -0.195 A  
BRANCH  23  25
HETATM   25  C   UNL     1      -9.123  15.143  68.053  1.00  0.00    -0.180 C  
HETATM   26  C   UNL     1      -8.688  16.190  67.332  1.00  0.00    -0.194 C  
BRANCH  26  27
HETATM   27  C   UNL     1      -8.191  17.447  67.936  1.00  0.00    -0.225 A  
HETATM   28  C   UNL     1      -7.899  18.531  67.092  1.00  0.00    -0.236 A  
HETATM   29  C   UNL     1      -7.347  19.714  67.596  1.00  0.00    -0.289 A  
HETATM   30  C   UNL     1      -7.097  19.825  68.959  1.00  0.00    -0.323 A  
HETATM   31  C   UNL     1      -7.425  18.790  69.822  1.00  0.00     0.440 A  
HETATM   32  O   UNL     1      -6.522  20.943  69.488  1.00  0.00    -0.018 OA 
HETATM   33  H   UNL     1      -6.351  21.019  70.419  1.00  0.00     0.000 HD 
HETATM   34  C   UNL     1      -7.975  17.607  69.315  1.00  0.00     0.171 A  
ENDBRANCH  26  27
ENDBRANCH  23  25
ENDBRANCH  16  17
ENDBRANCH   6  16
ENDBRANCH   3   4
TORSDOF 5
ENDMDL
MODEL      138
REMARK 921   NORMALIZED FREE ENERGY PREDICTED BY IDOCK:   -2.76 KCAL/MOL
REMARK 922        TOTAL FREE ENERGY PREDICTED BY IDOCK:   -4.65 KCAL/MOL
REMARK 923 INTER-LIGAND FREE ENERGY PREDICTED BY IDOCK:   -4.81 KCAL/MOL
REMARK 924 INTRA-LIGAND FREE ENERGY PREDICTED BY IDOCK:    0.17 KCAL/MOL
REMARK 927      BINDING AFFINITY PREDICTED BY RF-SCORE:    0.00 PKD
ROOT
HETATM    1  O   UNL     1      -8.121  13.154  66.594  1.00  0.00    -0.397 OA 
HETATM    2  H   UNL     1      -8.396  13.958  67.020  1.00  0.00     0.000 HD 
HETATM    3  C   UNL     1      -9.204  12.512  65.930  1.00  0.00     0.054 C  
ENDROOT
BRANCH   3   4
HETATM    4  C   UNL     1      -8.758  11.208  65.240  1.00  0.00    -0.026 C  
HETATM    5  O   UNL     1      -7.818  10.454  66.038  1.00  0.00    -0.130 OA 
HETATM    6  C   UNL     1      -8.382   9.791  67.189  1.00  0.00    -0.121 C  
HETATM    7  C   UNL     1      -9.507   8.820  66.730  1.00  0.00    -0.191 C  
HETATM    8  H   UNL     1     -12.044  10.779  66.217  1.00  0.00     0.000 HD 
HETATM    9  C   UNL     1     -10.570   9.534  65.886  1.00  0.00     0.409 C  
HETATM   10  O   UNL     1      -8.985   7.720  65.954  1.00  0.00    -0.240 OA 
HETATM   11  H   UNL     1     -10.168   8.927  63.391  1.00  0.00     0.000 HD 
HETATM   12  C   UNL     1      -9.928  10.335  64.740  1.00  0.00    -0.321 C  
HETATM   13  H   UNL     1      -9.672   7.127  65.674  1.00  0.00     0.000 HD 
HETATM   14  O   UNL     1     -11.386  10.337  66.740  1.00  0.00    -0.033 OA 
HETATM   15  O   UNL     1      -9.447   9.464  63.699  1.00  0.00     0.085 OA 
BRANCH   6  16
HETATM   16  O   UNL     1      -8.783  10.774  68.145  1.00  0.00    -0.122 OA 
BRANCH  16  17
HETATM   17  C   UNL     1      -9.749  10.485  69.063  1.00  0.00    -0.210 A  
HETATM   18  C   UNL     1     -11.663  10.999  70.414  1.00  0.00    -0.343 A  
HETATM   19  C   UNL     1     -11.463   9.848  71.166  1.00  0.00    -0.459 A  
HETATM   20  O   UNL     1     -12.695  11.822  70.767  1.00  0.00    -0.262 OA 
HETATM   21  C   UNL     1     -10.828  11.315  69.349  1.00  0.00    -0.239 A  
HETATM   22  H   UNL     1     -13.265  11.606  71.495  1.00  0.00     0.000 HD 
HETATM   23  C   UNL     1     -10.408   8.976  70.871  1.00  0.00    -0.323 A  
HETATM   24  C   UNL     1      -9.533   9.325  69.831  1.00  0.00    -0.214 A  
BRANCH  23  25
HETATM   25  C   UNL     1     -10.274   7.767  71.708  1.00  0.00    -0.235 C  
HETATM   26  C   UNL     1      -9.843   6.560  71.305  1.00  0.00    -0.197 C  
BRANCH  26  27
HETATM   27  C   UNL     1      -9.924   5.341  72.142  1.00  0.00    -0.232 A  
HETATM   28  C   UNL     1     -10.023   4.093  71.507  1.00  0.00    -0.230 A  
HETATM   29  C   UNL     1     -10.189   2.916  72.246  1.00  0.00    -0.180 A  
HETATM   30  C   UNL     1     -10.241   2.981  73.633  1.00  0.00    -0.125 A  
HETATM   31  C   UNL     1     -10.093   4.195  74.288  1.00  0.00    -0.225 A  
HETATM   32  O   UNL     1     -10.443   1.865  74.391  1.00  0.00    -0.119 OA 
HETATM   33  H   UNL     1     -10.479   1.909  75.340  1.00  0.00     0.000 HD 
HETATM   34  C   UNL     1      -9.930   5.371  73.547  1.00  0.00    -0.187 A  
ENDBRANCH  26  27
ENDBRANCH  23  25
ENDBRANCH  16  17
ENDBRANCH   6  16
ENDBRANCH   3   4
TORSDOF 5
ENDMDL
MODEL      139
REMARK 921   NORMALIZED FREE ENERGY PREDICTED BY IDOCK:   -2.71 KCAL/MOL
REMARK 922        TOTAL FREE ENERGY PREDICTED BY IDOCK:   -4.58 KCAL/MOL
REMARK 923 INTER-LIGAND FREE ENERGY PREDICTED BY IDOCK:   -3.88 KCAL/MOL
REMARK 924 INTRA-LIGAND FREE ENERGY PREDICTED BY IDOCK:   -0.70 KCAL/MOL
REMARK 927      BINDING AFFINITY PREDICTED BY RF-SCORE:    0.00 PKD
ROOT
HETATM    1  O   UNL     1      -6.786   8.437  74.117  1.00  0.00    -0.129 OA 
HETATM    2  H   UNL     1      -6.770   9.376  74.261  1.00  0.00     0.000 HD 
HETATM    3  C   UNL     1      -7.280   8.110  72.823  1.00  0.00    -0.107 C  
ENDROOT
BRANCH   3   4
HETATM    4  C   UNL     1      -7.306   6.586  72.590  1.00  0.00    -0.090 C  
HETATM    5  O   UNL     1      -8.489   6.156  71.880  1.00  0.00    -0.127 OA 
HETATM    6  C   UNL     1      -8.519   6.490  70.477  1.00  0.00    -0.138 C  
HETATM    7  C   UNL     1      -7.283   5.867  69.767  1.00  0.00    -0.070 C  
HETATM    8  H   UNL     1      -4.866   7.898  70.525  1.00  0.00     0.000 HD 
HETATM    9  C   UNL     1      -5.968   6.282  70.440  1.00  0.00    -0.026 C  
HETATM   10  O   UNL     1      -7.341   4.425  69.752  1.00  0.00    -0.049 OA 
HETATM   11  H   UNL     1      -5.120   4.282  71.866  1.00  0.00     0.000 HD 
HETATM   12  C   UNL     1      -6.013   6.030  71.957  1.00  0.00    -0.040 C  
HETATM   13  H   UNL     1      -6.586   4.044  69.319  1.00  0.00     0.000 HD 
HETATM   14  O   UNL     1      -5.680   7.641  70.108  1.00  0.00    -0.023 OA 
HETATM   15  O   UNL     1      -5.916   4.624  72.256  1.00  0.00    -0.015 OA 
BRANCH   6  16
HETATM   16  O   UNL     1      -8.650   7.906  70.336  1.00  0.00    -0.129 OA 
BRANCH  16  17
HETATM   17  C   UNL     1      -8.927   8.452  69.117  1.00  0.00    -0.147 A  
HETATM   18  C   UNL     1      -9.573   8.359  66.809  1.00  0.00    -0.219 A  
HETATM   19  C   UNL     1      -9.162   9.674  66.623  1.00  0.00    -0.187 A  
HETATM   20  O   UNL     1     -10.053   7.680  65.725  1.00  0.00    -0.052 OA 
HETATM   21  C   UNL     1      -9.482   7.747  68.053  1.00  0.00    -0.153 A  
HETATM   22  H   UNL     1     -10.115   8.098  64.875  1.00  0.00     0.000 HD 
HETATM   23  C   UNL     1      -8.639  10.415  67.688  1.00  0.00    -0.118 A  
HETATM   24  C   UNL     1      -8.496   9.778  68.931  1.00  0.00    -0.129 A  
BRANCH  23  25
HETATM   25  C   UNL     1      -8.240  11.810  67.412  1.00  0.00    -0.160 C  
HETATM   26  C   UNL     1      -8.807  12.919  67.917  1.00  0.00    -0.190 C  
BRANCH  26  27
HETATM   27  C   UNL     1      -8.492  14.286  67.442  1.00  0.00    -0.216 A  
HETATM   28  C   UNL     1      -7.467  15.002  68.082  1.00  0.00    -0.116 A  
HETATM   29  C   UNL     1      -7.183  16.327  67.734  1.00  0.00    -0.152 A  
HETATM   30  C   UNL     1      -7.917  16.941  66.726  1.00  0.00    -0.236 A  
HETATM   31  C   UNL     1      -8.900  16.241  66.042  1.00  0.00    -0.308 A  
HETATM   32  O   UNL     1      -7.703  18.244  66.383  1.00  0.00    -0.235 OA 
HETATM   33  H   UNL     1      -8.204  18.664  65.694  1.00  0.00     0.000 HD 
HETATM   34  C   UNL     1      -9.183  14.916  66.394  1.00  0.00    -0.317 A  
ENDBRANCH  26  27
ENDBRANCH  23  25
ENDBRANCH  16  17
ENDBRANCH   6  16
ENDBRANCH   3   4
TORSDOF 5
ENDMDL
MODEL      140
REMARK 921   NORMALIZED FREE ENERGY PREDICTED BY IDOCK:   -2.58 KCAL/MOL
REMARK 922        TOTAL FREE ENERGY PREDICTED BY IDOCK:   -4.42 KCAL/MOL
REMARK 923 INTER-LIGAND FREE ENERGY PREDICTED BY IDOCK:   -4.31 KCAL/MOL
REMARK 924 INTRA-LIGAND FREE ENERGY PREDICTED BY IDOCK:   -0.11 KCAL/MOL
REMARK 927      BINDING AFFINITY PREDICTED BY RF-SCORE:    0.00 PKD
ROOT
HETATM    1  O   UNL     1      -8.130   8.395  72.483  1.00  0.00    -0.199 OA 
HETATM    2  H   UNL     1      -7.960   7.946  73.303  1.00  0.00     0.000 HD 
HETATM    3  C   UNL     1      -8.167   7.490  71.385  1.00  0.00    -0.106 C  
ENDROOT
BRANCH   3   4
HETATM    4  C   UNL     1      -8.443   8.219  70.054  1.00  0.00    -0.123 C  
HETATM    5  O   UNL     1      -9.299   7.456  69.174  1.00  0.00    -0.147 OA 
HETATM    6  C   UNL     1     -10.687   7.397  69.565  1.00  0.00    -0.224 C  
HETATM    7  C   UNL     1     -11.262   8.839  69.661  1.00  0.00     0.071 C  
HETATM    8  H   UNL     1     -10.169   9.907  72.526  1.00  0.00     0.000 HD 
HETATM    9  C   UNL     1     -10.428   9.727  70.594  1.00  0.00    -0.289 C  
HETATM   10  O   UNL     1     -11.323   9.481  68.370  1.00  0.00    -0.496 OA 
HETATM   11  H   UNL     1      -8.966  11.297  69.126  1.00  0.00     0.000 HD 
HETATM   12  C   UNL     1      -8.934   9.671  70.229  1.00  0.00    -0.219 C  
HETATM   13  H   UNL     1     -11.675  10.362  68.428  1.00  0.00     0.000 HD 
HETATM   14  O   UNL     1     -10.686   9.357  71.949  1.00  0.00    -0.280 OA 
HETATM   15  O   UNL     1      -8.664  10.403  69.018  1.00  0.00    -0.149 OA 
BRANCH   6  16
HETATM   16  O   UNL     1     -10.803   6.618  70.757  1.00  0.00    -0.231 OA 
BRANCH  16  17
HETATM   17  C   UNL     1     -10.412   5.311  70.764  1.00  0.00    -0.228 A  
HETATM   18  C   UNL     1      -9.838   3.238  71.824  1.00  0.00    -0.159 A  
HETATM   19  C   UNL     1      -9.317   2.752  70.631  1.00  0.00    -0.218 A  
HETATM   20  O   UNL     1      -9.756   2.439  72.929  1.00  0.00    -0.096 OA 
HETATM   21  C   UNL     1     -10.407   4.503  71.897  1.00  0.00    -0.198 A  
HETATM   22  H   UNL     1      -9.367   1.575  72.880  1.00  0.00     0.000 HD 
HETATM   23  C   UNL     1      -9.348   3.531  69.469  1.00  0.00    -0.243 A  
HETATM   24  C   UNL     1      -9.872   4.829  69.557  1.00  0.00    -0.292 A  
BRANCH  23  25
HETATM   25  C   UNL     1      -8.788   2.936  68.238  1.00  0.00    -0.167 C  
HETATM   26  C   UNL     1      -7.582   3.192  67.703  1.00  0.00    -0.061 C  
BRANCH  26  27
HETATM   27  C   UNL     1      -7.165   2.718  66.364  1.00  0.00    -0.065 A  
HETATM   28  C   UNL     1      -5.799   2.741  66.036  1.00  0.00    -0.022 A  
HETATM   29  C   UNL     1      -5.356   2.386  64.757  1.00  0.00    -0.009 A  
HETATM   30  C   UNL     1      -6.281   1.988  63.799  1.00  0.00    -0.014 A  
HETATM   31  C   UNL     1      -7.630   1.906  64.112  1.00  0.00    -0.060 A  
HETATM   32  O   UNL     1      -5.898   1.674  62.528  1.00  0.00    -0.007 OA 
HETATM   33  H   UNL     1      -6.530   1.402  61.872  1.00  0.00     0.000 HD 
HETATM   34  C   UNL     1      -8.071   2.264  65.391  1.00  0.00    -0.080 A  
ENDBRANCH  26  27
ENDBRANCH  23  25
ENDBRANCH  16  17
ENDBRANCH   6  16
ENDBRANCH   3   4
TORSDOF 5
ENDMDL
MODEL      141
REMARK 921   NORMALIZED FREE ENERGY PREDICTED BY IDOCK:   -2.56 KCAL/MOL
REMARK 922        TOTAL FREE ENERGY PREDICTED BY IDOCK:   -4.38 KCAL/MOL
REMARK 923 INTER-LIGAND FREE ENERGY PREDICTED BY IDOCK:   -3.71 KCAL/MOL
REMARK 924 INTRA-LIGAND FREE ENERGY PREDICTED BY IDOCK:   -0.68 KCAL/MOL
REMARK 927      BINDING AFFINITY PREDICTED BY RF-SCORE:    0.00 PKD
ROOT
HETATM    1  O   UNL     1     -10.615  14.650  68.545  1.00  0.00    -0.232 OA 
HETATM    2  H   UNL     1     -10.832  14.583  69.467  1.00  0.00     0.000 HD 
HETATM    3  C   UNL     1      -9.253  14.318  68.298  1.00  0.00    -0.197 C  
ENDROOT
BRANCH   3   4
HETATM    4  C   UNL     1      -8.901  14.428  66.801  1.00  0.00    -0.200 C  
HETATM    5  O   UNL     1      -8.084  13.327  66.344  1.00  0.00     0.470 OA 
HETATM    6  C   UNL     1      -8.771  12.066  66.211  1.00  0.00    -0.027 C  
HETATM    7  C   UNL     1      -9.959  12.223  65.220  1.00  0.00    -0.230 C  
HETATM    8  H   UNL     1     -12.260  13.651  67.010  1.00  0.00     0.000 HD 
HETATM    9  C   UNL     1     -10.901  13.362  65.632  1.00  0.00    -0.283 C  
HETATM   10  O   UNL     1      -9.507  12.482  63.874  1.00  0.00    -0.558 OA 
HETATM   11  H   UNL     1     -10.427  15.403  64.093  1.00  0.00     0.000 HD 
HETATM   12  C   UNL     1     -10.123  14.664  65.889  1.00  0.00    -0.320 C  
HETATM   13  H   UNL     1     -10.233  12.578  63.268  1.00  0.00     0.000 HD 
HETATM   14  O   UNL     1     -11.678  12.945  66.755  1.00  0.00    -0.346 OA 
HETATM   15  O   UNL     1      -9.675  15.257  64.655  1.00  0.00     0.043 OA 
BRANCH   6  16
HETATM   16  O   UNL     1      -9.123  11.586  67.509  1.00  0.00    -0.161 OA 
BRANCH  16  17
HETATM   17  C   UNL     1      -9.357  10.258  67.711  1.00  0.00    -0.144 A  
HETATM   18  C   UNL     1     -10.555   8.206  67.385  1.00  0.00    -0.255 A  
HETATM   19  C   UNL     1      -9.886   7.625  68.456  1.00  0.00    -0.174 A  
HETATM   20  O   UNL     1     -11.502   7.460  66.743  1.00  0.00    -0.116 OA 
HETATM   21  C   UNL     1     -10.283   9.509  66.990  1.00  0.00    -0.321 A  
HETATM   22  H   UNL     1     -11.689   6.569  67.013  1.00  0.00     0.000 HD 
HETATM   23  C   UNL     1      -8.922   8.344  69.170  1.00  0.00    -0.147 A  
HETATM   24  C   UNL     1      -8.688   9.679  68.806  1.00  0.00    -0.126 A  
BRANCH  23  25
HETATM   25  C   UNL     1      -8.246   7.651  70.285  1.00  0.00    -0.123 C  
HETATM   26  C   UNL     1      -7.054   7.033  70.237  1.00  0.00    -0.067 C  
BRANCH  26  27
HETATM   27  C   UNL     1      -6.528   6.184  71.331  1.00  0.00    -0.050 A  
HETATM   28  C   UNL     1      -6.272   4.829  71.069  1.00  0.00    -0.019 A  
HETATM   29  C   UNL     1      -5.857   3.961  72.085  1.00  0.00    -0.008 A  
HETATM   30  C   UNL     1      -5.678   4.452  73.373  1.00  0.00    -0.008 A  
HETATM   31  C   UNL     1      -5.873   5.798  73.648  1.00  0.00    -0.051 A  
HETATM   32  O   UNL     1      -5.315   3.634  74.403  1.00  0.00    -0.003 OA 
HETATM   33  H   UNL     1      -5.193   3.970  75.283  1.00  0.00     0.000 HD 
HETATM   34  C   UNL     1      -6.291   6.663  72.630  1.00  0.00    -0.054 A  
ENDBRANCH  26  27
ENDBRANCH  23  25
ENDBRANCH  16  17
ENDBRANCH   6  16
ENDBRANCH   3   4
TORSDOF 5
ENDMDL
MODEL      142
REMARK 921   NORMALIZED FREE ENERGY PREDICTED BY IDOCK:   -2.45 KCAL/MOL
REMARK 922        TOTAL FREE ENERGY PREDICTED BY IDOCK:   -4.25 KCAL/MOL
REMARK 923 INTER-LIGAND FREE ENERGY PREDICTED BY IDOCK:   -4.87 KCAL/MOL
REMARK 924 INTRA-LIGAND FREE ENERGY PREDICTED BY IDOCK:    0.62 KCAL/MOL
REMARK 927      BINDING AFFINITY PREDICTED BY RF-SCORE:    0.00 PKD
ROOT
HETATM    1  O   UNL     1     -10.490  11.450  69.831  1.00  0.00    -0.382 OA 
HETATM    2  H   UNL     1      -9.839  12.122  69.664  1.00  0.00     0.000 HD 
HETATM    3  C   UNL     1      -9.888  10.190  70.104  1.00  0.00    -0.053 C  
ENDROOT
BRANCH   3   4
HETATM    4  C   UNL     1     -10.945   9.099  70.374  1.00  0.00    -0.248 C  
HETATM    5  O   UNL     1     -11.032   8.137  69.300  1.00  0.00    -0.111 OA 
HETATM    6  C   UNL     1      -9.929   7.212  69.212  1.00  0.00    -0.168 C  
HETATM    7  C   UNL     1      -9.801   6.426  70.548  1.00  0.00    -0.183 C  
HETATM    8  H   UNL     1      -8.301   8.522  72.523  1.00  0.00     0.000 HD 
HETATM    9  C   UNL     1      -9.682   7.366  71.755  1.00  0.00    -0.153 C  
HETATM   10  O   UNL     1     -10.929   5.554  70.771  1.00  0.00    -0.230 OA 
HETATM   11  H   UNL     1     -11.980   7.423  72.969  1.00  0.00     0.000 HD 
HETATM   12  C   UNL     1     -10.802   8.421  71.753  1.00  0.00    -0.284 C  
HETATM   13  H   UNL     1     -10.851   5.075  71.587  1.00  0.00     0.000 HD 
HETATM   14  O   UNL     1      -8.374   7.940  71.776  1.00  0.00    -0.105 OA 
HETATM   15  O   UNL     1     -12.068   7.840  72.119  1.00  0.00    -0.301 OA 
BRANCH   6  16
HETATM   16  O   UNL     1      -8.756   7.920  68.810  1.00  0.00    -0.128 OA 
BRANCH  16  17
HETATM   17  C   UNL     1      -8.685   8.486  67.571  1.00  0.00    -0.135 A  
HETATM   18  C   UNL     1      -7.961   8.591  65.287  1.00  0.00    -0.120 A  
HETATM   19  C   UNL     1      -8.388   9.911  65.194  1.00  0.00    -0.152 A  
HETATM   20  O   UNL     1      -7.357   8.037  64.194  1.00  0.00    -0.085 OA 
HETATM   21  C   UNL     1      -8.125   7.864  66.459  1.00  0.00    -0.107 A  
HETATM   22  H   UNL     1      -7.245   8.534  63.393  1.00  0.00     0.000 HD 
HETATM   23  C   UNL     1      -8.991  10.544  66.286  1.00  0.00    -0.174 A  
HETATM   24  C   UNL     1      -9.106   9.826  67.487  1.00  0.00    -0.142 A  
BRANCH  23  25
HETATM   25  C   UNL     1      -9.431  11.942  66.102  1.00  0.00    -0.243 C  
HETATM   26  C   UNL     1      -8.657  13.038  66.166  1.00  0.00     0.581 C  
BRANCH  26  27
HETATM   27  C   UNL     1      -9.194  14.418  66.174  1.00  0.00    -0.152 A  
HETATM   28  C   UNL     1      -8.521  15.399  66.921  1.00  0.00    -0.287 A  
HETATM   29  C   UNL     1      -9.029  16.698  67.035  1.00  0.00    -0.227 A  
HETATM   30  C   UNL     1     -10.212  17.029  66.384  1.00  0.00    -0.326 A  
HETATM   31  C   UNL     1     -10.869  16.094  65.597  1.00  0.00    -0.246 A  
HETATM   32  O   UNL     1     -10.766  18.270  66.501  1.00  0.00    -0.321 OA 
HETATM   33  H   UNL     1     -11.574  18.496  66.056  1.00  0.00     0.000 HD 
HETATM   34  C   UNL     1     -10.360  14.795  65.487  1.00  0.00    -0.387 A  
ENDBRANCH  26  27
ENDBRANCH  23  25
ENDBRANCH  16  17
ENDBRANCH   6  16
ENDBRANCH   3   4
TORSDOF 5
ENDMDL
MODEL      143
REMARK 921   NORMALIZED FREE ENERGY PREDICTED BY IDOCK:   -2.43 KCAL/MOL
REMARK 922        TOTAL FREE ENERGY PREDICTED BY IDOCK:   -4.22 KCAL/MOL
REMARK 923 INTER-LIGAND FREE ENERGY PREDICTED BY IDOCK:   -4.39 KCAL/MOL
REMARK 924 INTRA-LIGAND FREE ENERGY PREDICTED BY IDOCK:    0.17 KCAL/MOL
REMARK 927      BINDING AFFINITY PREDICTED BY RF-SCORE:    0.00 PKD
ROOT
HETATM    1  O   UNL     1     -11.303  16.958  65.655  1.00  0.00     0.270 OA 
HETATM    2  H   UNL     1     -11.281  16.154  65.148  1.00  0.00     0.000 HD 
HETATM    3  C   UNL     1      -9.995  17.405  65.993  1.00  0.00    -0.215 C  
ENDROOT
BRANCH   3   4
HETATM    4  C   UNL     1     -10.031  18.709  66.814  1.00  0.00    -0.352 C  
HETATM    5  O   UNL     1      -9.827  18.478  68.226  1.00  0.00    -0.324 OA 
HETATM    6  C   UNL     1      -8.477  18.138  68.605  1.00  0.00    -0.270 C  
HETATM    7  C   UNL     1      -7.511  19.274  68.161  1.00  0.00    -0.289 C  
HETATM    8  H   UNL     1      -7.099  18.729  64.988  1.00  0.00     0.000 HD 
HETATM    9  C   UNL     1      -7.640  19.583  66.664  1.00  0.00    -0.256 C  
HETATM   10  O   UNL     1      -7.747  20.497  68.891  1.00  0.00     0.268 OA 
HETATM   11  H   UNL     1      -9.011  21.775  66.402  1.00  0.00     0.000 HD 
HETATM   12  C   UNL     1      -9.108  19.817  66.266  1.00  0.00    -0.379 C  
HETATM   13  H   UNL     1      -7.158  21.191  68.620  1.00  0.00     0.000 HD 
HETATM   14  O   UNL     1      -7.018  18.537  65.915  1.00  0.00    -0.254 OA 
HETATM   15  O   UNL     1      -9.580  21.093  66.740  1.00  0.00     0.050 OA 
BRANCH   6  16
HETATM   16  O   UNL     1      -8.161  16.841  68.096  1.00  0.00    -0.185 OA 
BRANCH  16  17
HETATM   17  C   UNL     1      -8.997  15.790  68.329  1.00  0.00    -0.182 A  
HETATM   18  C   UNL     1     -10.605  14.557  69.613  1.00  0.00    -0.052 A  
HETATM   19  C   UNL     1     -10.422  13.441  68.804  1.00  0.00    -0.203 A  
HETATM   20  O   UNL     1     -11.468  14.447  70.666  1.00  0.00    -0.461 OA 
HETATM   21  C   UNL     1      -9.917  15.740  69.372  1.00  0.00    -0.274 A  
HETATM   22  H   UNL     1     -11.938  13.639  70.831  1.00  0.00     0.000 HD 
HETATM   23  C   UNL     1      -9.532  13.481  67.724  1.00  0.00    -0.216 A  
HETATM   24  C   UNL     1      -8.798  14.659  67.516  1.00  0.00    -0.191 A  
BRANCH  23  25
HETATM   25  C   UNL     1      -9.407  12.260  66.904  1.00  0.00    -0.210 C  
HETATM   26  C   UNL     1      -8.283  11.557  66.683  1.00  0.00    -0.156 C  
BRANCH  26  27
HETATM   27  C   UNL     1      -8.185  10.463  65.690  1.00  0.00    -0.158 A  
HETATM   28  C   UNL     1      -9.351  10.051  65.024  1.00  0.00    -0.314 A  
HETATM   29  C   UNL     1      -9.335   8.967  64.139  1.00  0.00     0.524 A  
HETATM   30  C   UNL     1      -8.141   8.295  63.903  1.00  0.00    -0.124 A  
HETATM   31  C   UNL     1      -6.964   8.714  64.507  1.00  0.00    -0.081 A  
HETATM   32  O   UNL     1      -8.086   7.208  63.081  1.00  0.00    -0.247 OA 
HETATM   33  H   UNL     1      -7.271   6.749  62.919  1.00  0.00     0.000 HD 
HETATM   34  C   UNL     1      -6.984   9.798  65.394  1.00  0.00    -0.105 A  
ENDBRANCH  26  27
ENDBRANCH  23  25
ENDBRANCH  16  17
ENDBRANCH   6  16
ENDBRANCH   3   4
TORSDOF 5
ENDMDL
MODEL      144
REMARK 921   NORMALIZED FREE ENERGY PREDICTED BY IDOCK:   -1.93 KCAL/MOL
REMARK 922        TOTAL FREE ENERGY PREDICTED BY IDOCK:   -3.58 KCAL/MOL
REMARK 923 INTER-LIGAND FREE ENERGY PREDICTED BY IDOCK:   -2.59 KCAL/MOL
REMARK 924 INTRA-LIGAND FREE ENERGY PREDICTED BY IDOCK:   -0.99 KCAL/MOL
REMARK 927      BINDING AFFINITY PREDICTED BY RF-SCORE:    0.00 PKD
ROOT
HETATM    1  O   UNL     1     -11.548  11.780  62.507  1.00  0.00     0.057 OA 
HETATM    2  H   UNL     1     -11.015  11.604  61.741  1.00  0.00     0.000 HD 
HETATM    3  C   UNL     1     -11.378  13.113  62.973  1.00  0.00     0.777 C  
ENDROOT
BRANCH   3   4
HETATM    4  C   UNL     1     -12.245  13.398  64.217  1.00  0.00    -0.392 C  
HETATM    5  O   UNL     1     -11.957  12.496  65.308  1.00  0.00    -0.400 OA 
HETATM    6  C   UNL     1     -10.703  12.727  65.983  1.00  0.00    -0.272 C  
HETATM    7  C   UNL     1     -10.673  14.178  66.542  1.00  0.00    -0.289 C  
HETATM    8  H   UNL     1      -9.970  15.983  63.937  1.00  0.00     0.000 HD 
HETATM    9  C   UNL     1     -10.950  15.218  65.448  1.00  0.00    -0.372 C  
HETATM   10  O   UNL     1     -11.641  14.370  67.595  1.00  0.00    -0.332 OA 
HETATM   11  H   UNL     1     -13.398  16.048  65.719  1.00  0.00     0.000 HD 
HETATM   12  C   UNL     1     -12.228  14.875  64.663  1.00  0.00    -0.341 C  
HETATM   13  H   UNL     1     -11.623  15.256  67.937  1.00  0.00     0.000 HD 
HETATM   14  O   UNL     1      -9.797  15.340  64.614  1.00  0.00    -0.053 OA 
HETATM   15  O   UNL     1     -13.408  15.138  65.445  1.00  0.00     0.470 OA 
BRANCH   6  16
HETATM   16  O   UNL     1      -9.630  12.394  65.101  1.00  0.00    -0.114 OA 
BRANCH  16  17
HETATM   17  C   UNL     1      -8.718  11.445  65.457  1.00  0.00     0.031 A  
HETATM   18  C   UNL     1      -7.075   9.757  65.006  1.00  0.00    -0.120 A  
HETATM   19  C   UNL     1      -7.120   9.334  66.330  1.00  0.00    -0.087 A  
HETATM   20  O   UNL     1      -6.258   9.079  64.147  1.00  0.00    -0.071 OA 
HETATM   21  C   UNL     1      -7.849  10.823  64.565  1.00  0.00     0.219 A  
HETATM   22  H   UNL     1      -5.729   8.350  64.448  1.00  0.00     0.000 HD 
HETATM   23  C   UNL     1      -7.955   9.972  67.254  1.00  0.00    -0.106 A  
HETATM   24  C   UNL     1      -8.778  11.012  66.795  1.00  0.00    -0.152 A  
BRANCH  23  25
HETATM   25  C   UNL     1      -7.934   9.473  68.644  1.00  0.00    -0.092 C  
HETATM   26  C   UNL     1      -7.920   8.186  69.031  1.00  0.00    -0.113 C  
BRANCH  26  27
HETATM   27  C   UNL     1      -8.104   7.754  70.436  1.00  0.00    -0.115 A  
HETATM   28  C   UNL     1      -7.290   8.323  71.429  1.00  0.00    -0.085 A  
HETATM   29  C   UNL     1      -7.360   7.891  72.758  1.00  0.00    -0.121 A  
HETATM   30  C   UNL     1      -8.263   6.893  73.105  1.00  0.00    -0.106 A  
HETATM   31  C   UNL     1      -9.116   6.351  72.155  1.00  0.00    -0.140 A  
HETATM   32  O   UNL     1      -8.337   6.412  74.380  1.00  0.00    -0.122 OA 
HETATM   33  H   UNL     1      -8.954   5.730  74.618  1.00  0.00     0.000 HD 
HETATM   34  C   UNL     1      -9.041   6.783  70.825  1.00  0.00    -0.151 A  
ENDBRANCH  26  27
ENDBRANCH  23  25
ENDBRANCH  16  17
ENDBRANCH   6  16
ENDBRANCH   3   4
TORSDOF 5
ENDMDL
MODEL      145
REMARK 921   NORMALIZED FREE ENERGY PREDICTED BY IDOCK:   -1.71 KCAL/MOL
REMARK 922        TOTAL FREE ENERGY PREDICTED BY IDOCK:   -3.29 KCAL/MOL
REMARK 923 INTER-LIGAND FREE ENERGY PREDICTED BY IDOCK:   -3.49 KCAL/MOL
REMARK 924 INTRA-LIGAND FREE ENERGY PREDICTED BY IDOCK:    0.20 KCAL/MOL
REMARK 927      BINDING AFFINITY PREDICTED BY RF-SCORE:    0.00 PKD
ROOT
HETATM    1  O   UNL     1      -6.026  13.581  68.716  1.00  0.00    -0.078 OA 
HETATM    2  H   UNL     1      -5.552  12.758  68.728  1.00  0.00     0.000 HD 
HETATM    3  C   UNL     1      -7.365  13.425  69.172  1.00  0.00     0.098 C  
ENDROOT
BRANCH   3   4
HETATM    4  C   UNL     1      -8.134  14.762  69.152  1.00  0.00    -0.119 C  
HETATM    5  O   UNL     1      -8.160  15.364  67.839  1.00  0.00    -0.132 OA 
HETATM    6  C   UNL     1      -9.025  14.718  66.883  1.00  0.00    -0.253 C  
HETATM    7  C   UNL     1     -10.481  14.697  67.428  1.00  0.00    -0.255 C  
HETATM    8  H   UNL     1     -10.464  12.242  69.553  1.00  0.00     0.000 HD 
HETATM    9  C   UNL     1     -10.562  14.054  68.819  1.00  0.00    -0.251 C  
HETATM   10  O   UNL     1     -11.042  16.024  67.516  1.00  0.00    -0.300 OA 
HETATM   11  H   UNL     1     -10.810  15.953  70.577  1.00  0.00     0.000 HD 
HETATM   12  C   UNL     1      -9.540  14.681  69.784  1.00  0.00     0.373 C  
HETATM   13  H   UNL     1     -11.931  16.012  67.850  1.00  0.00     0.000 HD 
HETATM   14  O   UNL     1     -10.414  12.639  68.691  1.00  0.00    -0.237 OA 
HETATM   15  O   UNL     1      -9.945  16.003  70.188  1.00  0.00    -0.091 OA 
BRANCH   6  16
HETATM   16  O   UNL     1      -8.482  13.437  66.554  1.00  0.00     0.062 OA 
BRANCH  16  17
HETATM   17  C   UNL     1      -9.287  12.461  66.046  1.00  0.00    -0.114 A  
HETATM   18  C   UNL     1     -11.194  11.649  64.839  1.00  0.00    -0.222 A  
HETATM   19  C   UNL     1     -10.986  10.368  65.337  1.00  0.00     0.413 A  
HETATM   20  O   UNL     1     -12.277  11.853  64.031  1.00  0.00    -0.381 OA 
HETATM   21  C   UNL     1     -10.340  12.695  65.167  1.00  0.00    -0.312 A  
HETATM   22  H   UNL     1     -12.861  11.138  63.807  1.00  0.00     0.000 HD 
HETATM   23  C   UNL     1      -9.910  10.100  66.189  1.00  0.00    -0.297 A  
HETATM   24  C   UNL     1      -9.081  11.169  66.564  1.00  0.00    -0.193 A  
BRANCH  23  25
HETATM   25  C   UNL     1      -9.749   8.710  66.662  1.00  0.00    -0.315 C  
HETATM   26  C   UNL     1      -9.018   8.303  67.713  1.00  0.00    -0.139 C  
BRANCH  26  27
HETATM   27  C   UNL     1      -8.736   6.880  68.010  1.00  0.00    -0.125 A  
HETATM   28  C   UNL     1      -7.673   6.250  67.342  1.00  0.00    -0.097 A  
HETATM   29  C   UNL     1      -7.414   4.886  67.518  1.00  0.00    -0.079 A  
HETATM   30  C   UNL     1      -8.212   4.145  68.382  1.00  0.00    -0.083 A  
HETATM   31  C   UNL     1      -9.235   4.753  69.095  1.00  0.00    -0.175 A  
HETATM   32  O   UNL     1      -8.022   2.805  68.553  1.00  0.00    -0.054 OA 
HETATM   33  H   UNL     1      -8.567   2.298  69.144  1.00  0.00     0.000 HD 
HETATM   34  C   UNL     1      -9.493   6.117  68.915  1.00  0.00    -0.131 A  
ENDBRANCH  26  27
ENDBRANCH  23  25
ENDBRANCH  16  17
ENDBRANCH   6  16
ENDBRANCH   3   4
TORSDOF 5
ENDMDL
MODEL      146
REMARK 921   NORMALIZED FREE ENERGY PREDICTED BY IDOCK:   -1.57 KCAL/MOL
REMARK 922        TOTAL FREE ENERGY PREDICTED BY IDOCK:   -3.12 KCAL/MOL
REMARK 923 INTER-LIGAND FREE ENERGY PREDICTED BY IDOCK:   -4.40 KCAL/MOL
REMARK 924 INTRA-LIGAND FREE ENERGY PREDICTED BY IDOCK:    1.29 KCAL/MOL
REMARK 927      BINDING AFFINITY PREDICTED BY RF-SCORE:    0.00 PKD
ROOT
HETATM    1  O   UNL     1      -5.488  10.010  69.077  1.00  0.00    -0.036 OA 
HETATM    2  H   UNL     1      -5.836  10.314  69.907  1.00  0.00     0.000 HD 
HETATM    3  C   UNL     1      -5.982  10.779  67.986  1.00  0.00    -0.050 C  
ENDROOT
BRANCH   3   4
HETATM    4  C   UNL     1      -5.418  10.286  66.638  1.00  0.00    -0.047 C  
HETATM    5  O   UNL     1      -5.163   8.864  66.633  1.00  0.00    -0.037 OA 
HETATM    6  C   UNL     1      -6.339   8.029  66.581  1.00  0.00    -0.054 C  
HETATM    7  C   UNL     1      -7.164   8.371  65.307  1.00  0.00    -0.082 C  
HETATM    8  H   UNL     1      -8.740  11.088  66.128  1.00  0.00     0.000 HD 
HETATM    9  C   UNL     1      -7.503   9.865  65.230  1.00  0.00    -0.131 C  
HETATM   10  O   UNL     1      -6.463   8.009  64.098  1.00  0.00    -0.060 OA 
HETATM   11  H   UNL     1      -5.916  10.969  63.492  1.00  0.00     0.000 HD 
HETATM   12  C   UNL     1      -6.246  10.733  65.415  1.00  0.00    -0.010 C  
HETATM   13  H   UNL     1      -6.966   8.218  63.320  1.00  0.00     0.000 HD 
HETATM   14  O   UNL     1      -8.531  10.163  66.176  1.00  0.00    -0.125 OA 
HETATM   15  O   UNL     1      -5.406  10.693  64.245  1.00  0.00    -0.153 OA 
BRANCH   6  16
HETATM   16  O   UNL     1      -7.051   8.146  67.814  1.00  0.00    -0.082 OA 
BRANCH  16  17
HETATM   17  C   UNL     1      -8.412   8.064  67.831  1.00  0.00    -0.125 A  
HETATM   18  C   UNL     1     -10.529   7.191  67.117  1.00  0.00    -0.319 A  
HETATM   19  C   UNL     1     -11.193   8.227  67.763  1.00  0.00     0.603 A  
HETATM   20  O   UNL     1     -11.279   6.288  66.419  1.00  0.00    -0.688 OA 
HETATM   21  C   UNL     1      -9.144   7.087  67.164  1.00  0.00    -0.137 A  
HETATM   22  H   UNL     1     -12.225   6.360  66.387  1.00  0.00     0.000 HD 
HETATM   23  C   UNL     1     -10.480   9.199  68.475  1.00  0.00    -0.238 A  
HETATM   24  C   UNL     1      -9.079   9.123  68.474  1.00  0.00    -0.132 A  
BRANCH  23  25
HETATM   25  C   UNL     1     -11.261  10.258  69.146  1.00  0.00    -0.268 C  
HETATM   26  C   UNL     1     -11.570  11.464  68.641  1.00  0.00    -0.384 C  
BRANCH  26  27
HETATM   27  C   UNL     1     -12.179  12.552  69.440  1.00  0.00    -0.117 A  
HETATM   28  C   UNL     1     -12.030  13.877  68.999  1.00  0.00    -0.402 A  
HETATM   29  C   UNL     1     -12.510  14.951  69.756  1.00  0.00    -0.222 A  
HETATM   30  C   UNL     1     -13.159  14.702  70.960  1.00  0.00    -0.367 A  
HETATM   31  C   UNL     1     -13.366  13.401  71.394  1.00  0.00    -0.267 A  
HETATM   32  O   UNL     1     -13.606  15.720  71.751  1.00  0.00    -0.459 OA 
HETATM   33  H   UNL     1     -14.050  15.550  72.574  1.00  0.00     0.000 HD 
HETATM   34  C   UNL     1     -12.883  12.329  70.635  1.00  0.00    -0.014 A  
ENDBRANCH  26  27
ENDBRANCH  23  25
ENDBRANCH  16  17
ENDBRANCH   6  16
ENDBRANCH   3   4
TORSDOF 5
ENDMDL
MODEL      147
REMARK 921   NORMALIZED FREE ENERGY PREDICTED BY IDOCK:   -1.37 KCAL/MOL
REMARK 922        TOTAL FREE ENERGY PREDICTED BY IDOCK:   -2.86 KCAL/MOL
REMARK 923 INTER-LIGAND FREE ENERGY PREDICTED BY IDOCK:   -3.36 KCAL/MOL
REMARK 924 INTRA-LIGAND FREE ENERGY PREDICTED BY IDOCK:    0.50 KCAL/MOL
REMARK 927      BINDING AFFINITY PREDICTED BY RF-SCORE:    0.00 PKD
ROOT
HETATM    1  O   UNL     1      -7.755   9.840  64.885  1.00  0.00    -0.116 OA 
HETATM    2  H   UNL     1      -7.432   9.420  64.097  1.00  0.00     0.000 HD 
HETATM    3  C   UNL     1      -8.847  10.710  64.610  1.00  0.00    -0.177 C  
ENDROOT
BRANCH   3   4
HETATM    4  C   UNL     1      -9.371  11.392  65.890  1.00  0.00    -0.228 C  
HETATM    5  O   UNL     1     -10.347  10.584  66.586  1.00  0.00    -0.228 OA 
HETATM    6  C   UNL     1      -9.814   9.434  67.275  1.00  0.00    -0.179 C  
HETATM    7  C   UNL     1      -8.749   9.896  68.310  1.00  0.00    -0.119 C  
HETATM    8  H   UNL     1      -6.108  10.434  66.500  1.00  0.00     0.000 HD 
HETATM    9  C   UNL     1      -7.652  10.750  67.661  1.00  0.00    -0.096 C  
HETATM   10  O   UNL     1      -9.337  10.664  69.382  1.00  0.00    -0.351 OA 
HETATM   11  H   UNL     1      -8.105  13.240  68.254  1.00  0.00     0.000 HD 
HETATM   12  C   UNL     1      -8.256  11.895  66.829  1.00  0.00    -0.129 C  
HETATM   13  H   UNL     1      -8.687  10.946  70.014  1.00  0.00     0.000 HD 
HETATM   14  O   UNL     1      -6.787   9.905  66.902  1.00  0.00    -0.084 OA 
HETATM   15  O   UNL     1      -8.792  12.930  67.676  1.00  0.00    -0.166 OA 
BRANCH   6  16
HETATM   16  O   UNL     1      -9.352   8.485  66.312  1.00  0.00    -0.193 OA 
BRANCH  16  17
HETATM   17  C   UNL     1      -9.413   7.150  66.581  1.00  0.00    -0.170 A  
HETATM   18  C   UNL     1     -10.163   4.905  66.193  1.00  0.00    -0.277 A  
HETATM   19  C   UNL     1      -9.678   4.510  67.434  1.00  0.00    -0.218 A  
HETATM   20  O   UNL     1     -10.806   3.970  65.431  1.00  0.00    -0.481 OA 
HETATM   21  C   UNL     1     -10.016   6.212  65.747  1.00  0.00     0.401 A  
HETATM   22  H   UNL     1     -10.906   3.077  65.736  1.00  0.00     0.000 HD 
HETATM   23  C   UNL     1      -9.032   5.425  68.272  1.00  0.00    -0.112 A  
HETATM   24  C   UNL     1      -8.934   6.758  67.845  1.00  0.00    -0.113 A  
BRANCH  23  25
HETATM   25  C   UNL     1      -8.532   4.923  69.568  1.00  0.00    -0.090 C  
HETATM   26  C   UNL     1      -7.250   4.685  69.893  1.00  0.00    -0.054 C  
BRANCH  26  27
HETATM   27  C   UNL     1      -6.837   3.992  71.135  1.00  0.00    -0.032 A  
HETATM   28  C   UNL     1      -5.813   3.034  71.062  1.00  0.00    -0.014 A  
HETATM   29  C   UNL     1      -5.439   2.287  72.185  1.00  0.00    -0.004 A  
HETATM   30  C   UNL     1      -6.082   2.508  73.398  1.00  0.00    -0.008 A  
HETATM   31  C   UNL     1      -7.061   3.485  73.509  1.00  0.00    -0.050 A  
HETATM   32  O   UNL     1      -5.780   1.774  74.507  1.00  0.00     0.000 OA 
HETATM   33  H   UNL     1      -6.219   1.925  75.336  1.00  0.00     0.000 HD 
HETATM   34  C   UNL     1      -7.434   4.229  72.384  1.00  0.00    -0.073 A  
ENDBRANCH  26  27
ENDBRANCH  23  25
ENDBRANCH  16  17
ENDBRANCH   6  16
ENDBRANCH   3   4
TORSDOF 5
ENDMDL
MODEL      148
REMARK 921   NORMALIZED FREE ENERGY PREDICTED BY IDOCK:   -1.14 KCAL/MOL
REMARK 922        TOTAL FREE ENERGY PREDICTED BY IDOCK:   -2.55 KCAL/MOL
REMARK 923 INTER-LIGAND FREE ENERGY PREDICTED BY IDOCK:   -6.18 KCAL/MOL
REMARK 924 INTRA-LIGAND FREE ENERGY PREDICTED BY IDOCK:    3.62 KCAL/MOL
REMARK 927      BINDING AFFINITY PREDICTED BY RF-SCORE:    0.00 PKD
ROOT
HETATM    1  O   UNL     1      -6.926  11.660  67.104  1.00  0.00    -0.123 OA 
HETATM    2  H   UNL     1      -6.398  11.729  67.891  1.00  0.00     0.000 HD 
HETATM    3  C   UNL     1      -7.850  10.580  67.182  1.00  0.00    -0.112 C  
ENDROOT
BRANCH   3   4
HETATM    4  C   UNL     1      -8.706  10.467  65.904  1.00  0.00    -0.167 C  
HETATM    5  O   UNL     1      -9.910   9.697  66.113  1.00  0.00    -0.227 OA 
HETATM    6  C   UNL     1     -10.936  10.356  66.883  1.00  0.00    -0.097 C  
HETATM    7  C   UNL     1     -11.335  11.688  66.186  1.00  0.00    -0.209 C  
HETATM    8  H   UNL     1      -8.951  13.728  67.019  1.00  0.00     0.000 HD 
HETATM    9  C   UNL     1     -10.119  12.590  65.937  1.00  0.00    -0.254 C  
HETATM   10  O   UNL     1     -11.988  11.458  64.919  1.00  0.00     0.086 OA 
HETATM   11  H   UNL     1      -9.488  12.425  63.421  1.00  0.00     0.000 HD 
HETATM   12  C   UNL     1      -8.992  11.823  65.224  1.00  0.00     0.220 C  
HETATM   13  H   UNL     1     -12.231  12.272  64.493  1.00  0.00     0.000 HD 
HETATM   14  O   UNL     1      -9.704  13.170  67.174  1.00  0.00    -0.224 OA 
HETATM   15  O   UNL     1      -9.312  11.590  63.839  1.00  0.00    -0.142 OA 
BRANCH   6  16
HETATM   16  O   UNL     1     -10.493  10.488  68.235  1.00  0.00    -0.164 OA 
BRANCH  16  17
HETATM   17  C   UNL     1     -11.080  11.398  69.064  1.00  0.00    -0.243 A  
HETATM   18  C   UNL     1     -12.541  12.065  70.845  1.00  0.00    -0.253 A  
HETATM   19  C   UNL     1     -12.417  13.398  70.471  1.00  0.00    -0.350 A  
HETATM   20  O   UNL     1     -13.368  11.769  71.891  1.00  0.00    -0.448 OA 
HETATM   21  C   UNL     1     -11.861  11.062  70.165  1.00  0.00    -0.441 A  
HETATM   22  H   UNL     1     -13.833  12.455  72.356  1.00  0.00     0.000 HD 
HETATM   23  C   UNL     1     -11.605  13.764  69.392  1.00  0.00    -0.365 A  
HETATM   24  C   UNL     1     -10.963  12.745  68.672  1.00  0.00    -0.295 A  
BRANCH  23  25
HETATM   25  C   UNL     1     -11.514  15.203  69.069  1.00  0.00    -0.325 C  
HETATM   26  C   UNL     1     -10.869  15.748  68.025  1.00  0.00    -0.309 C  
BRANCH  26  27
HETATM   27  C   UNL     1     -10.646  17.204  67.871  1.00  0.00    -0.376 A  
HETATM   28  C   UNL     1     -11.256  17.870  66.796  1.00  0.00     0.643 A  
HETATM   29  C   UNL     1     -11.013  19.226  66.552  1.00  0.00    -0.252 A  
HETATM   30  C   UNL     1     -10.165  19.932  67.398  1.00  0.00    -0.425 A  
HETATM   31  C   UNL     1      -9.591  19.312  68.498  1.00  0.00    -0.465 A  
HETATM   32  O   UNL     1      -9.867  21.244  67.175  1.00  0.00    -0.505 OA 
HETATM   33  H   UNL     1      -9.288  21.726  67.753  1.00  0.00     0.000 HD 
HETATM   34  C   UNL     1      -9.834  17.954  68.738  1.00  0.00    -0.354 A  
ENDBRANCH  26  27
ENDBRANCH  23  25
ENDBRANCH  16  17
ENDBRANCH   6  16
ENDBRANCH   3   4
TORSDOF 5
ENDMDL
MODEL      149
REMARK 921   NORMALIZED FREE ENERGY PREDICTED BY IDOCK:   -0.79 KCAL/MOL
REMARK 922        TOTAL FREE ENERGY PREDICTED BY IDOCK:   -2.10 KCAL/MOL
REMARK 923 INTER-LIGAND FREE ENERGY PREDICTED BY IDOCK:   -2.78 KCAL/MOL
REMARK 924 INTRA-LIGAND FREE ENERGY PREDICTED BY IDOCK:    0.68 KCAL/MOL
REMARK 927      BINDING AFFINITY PREDICTED BY RF-SCORE:    0.00 PKD
ROOT
HETATM    1  O   UNL     1      -7.861   8.381  63.474  1.00  0.00    -0.137 OA 
HETATM    2  H   UNL     1      -7.715   7.979  62.626  1.00  0.00     0.000 HD 
HETATM    3  C   UNL     1      -8.937   9.313  63.437  1.00  0.00    -0.039 C  
ENDROOT
BRANCH   3   4
HETATM    4  C   UNL     1      -9.174   9.966  64.814  1.00  0.00    -0.254 C  
HETATM    5  O   UNL     1      -9.905   9.104  65.714  1.00  0.00    -0.286 OA 
HETATM    6  C   UNL     1      -9.158   7.989  66.241  1.00  0.00    -0.186 C  
HETATM    7  C   UNL     1      -7.902   8.513  66.995  1.00  0.00    -0.096 C  
HETATM    8  H   UNL     1      -5.812   9.199  64.607  1.00  0.00     0.000 HD 
HETATM    9  C   UNL     1      -7.045   9.428  66.110  1.00  0.00    -0.091 C  
HETATM   10  O   UNL     1      -8.257   9.248  68.185  1.00  0.00    -0.117 OA 
HETATM   11  H   UNL     1      -7.480  11.888  66.825  1.00  0.00     0.000 HD 
HETATM   12  C   UNL     1      -7.895  10.534  65.463  1.00  0.00    -0.138 C  
HETATM   13  H   UNL     1      -7.490   9.568  68.646  1.00  0.00     0.000 HD 
HETATM   14  O   UNL     1      -6.342   8.632  65.155  1.00  0.00    -0.059 OA 
HETATM   15  O   UNL     1      -8.269  11.538  66.426  1.00  0.00    -0.161 OA 
BRANCH   6  16
HETATM   16  O   UNL     1      -8.889   7.066  65.184  1.00  0.00     0.064 OA 
BRANCH  16  17
HETATM   17  C   UNL     1      -8.904   5.723  65.424  1.00  0.00    -0.085 A  
HETATM   18  C   UNL     1      -9.653   3.475  65.055  1.00  0.00    -0.160 A  
HETATM   19  C   UNL     1      -9.045   3.060  66.234  1.00  0.00    -0.150 A  
HETATM   20  O   UNL     1     -10.351   2.547  64.336  1.00  0.00    -0.367 OA 
HETATM   21  C   UNL     1      -9.569   4.795  64.630  1.00  0.00     0.051 A  
HETATM   22  H   UNL     1     -10.408   1.645  64.627  1.00  0.00     0.000 HD 
HETATM   23  C   UNL     1      -8.335   3.968  67.029  1.00  0.00    -0.100 A  
HETATM   24  C   UNL     1      -8.299   5.311  66.627  1.00  0.00    -0.108 A  
BRANCH  23  25
HETATM   25  C   UNL     1      -7.705   3.445  68.258  1.00  0.00    -0.059 C  
HETATM   26  C   UNL     1      -8.336   2.875  69.299  1.00  0.00    -0.087 C  
BRANCH  26  27
HETATM   27  C   UNL     1      -7.670   2.558  70.584  1.00  0.00    -0.042 A  
HETATM   28  C   UNL     1      -8.466   2.357  71.723  1.00  0.00    -0.080 A  
HETATM   29  C   UNL     1      -7.890   2.140  72.980  1.00  0.00    -0.046 A  
HETATM   30  C   UNL     1      -6.505   2.106  73.100  1.00  0.00    -0.013 A  
HETATM   31  C   UNL     1      -5.697   2.249  71.982  1.00  0.00    -0.008 A  
HETATM   32  O   UNL     1      -5.900   1.939  74.311  1.00  0.00    -0.003 OA 
HETATM   33  H   UNL     1      -4.954   1.916  74.394  1.00  0.00     0.000 HD 
HETATM   34  C   UNL     1      -6.276   2.469  70.727  1.00  0.00    -0.019 A  
ENDBRANCH  26  27
ENDBRANCH  23  25
ENDBRANCH  16  17
ENDBRANCH   6  16
ENDBRANCH   3   4
TORSDOF 5
ENDMDL
MODEL      150
REMARK 921   NORMALIZED FREE ENERGY PREDICTED BY IDOCK:   -0.67 KCAL/MOL
REMARK 922        TOTAL FREE ENERGY PREDICTED BY IDOCK:   -1.95 KCAL/MOL
REMARK 923 INTER-LIGAND FREE ENERGY PREDICTED BY IDOCK:   -5.11 KCAL/MOL
REMARK 924 INTRA-LIGAND FREE ENERGY PREDICTED BY IDOCK:    3.16 KCAL/MOL
REMARK 927      BINDING AFFINITY PREDICTED BY RF-SCORE:    0.00 PKD
ROOT
HETATM    1  O   UNL     1      -8.783   2.137  69.862  1.00  0.00    -0.049 OA 
HETATM    2  H   UNL     1      -9.587   1.841  70.273  1.00  0.00     0.000 HD 
HETATM    3  C   UNL     1      -9.019   3.204  68.950  1.00  0.00    -0.132 C  
ENDROOT
BRANCH   3   4
HETATM    4  C   UNL     1      -7.714   3.684  68.283  1.00  0.00    -0.061 C  
HETATM    5  O   UNL     1      -7.949   4.331  67.013  1.00  0.00    -0.096 OA 
HETATM    6  C   UNL     1      -8.532   5.648  67.092  1.00  0.00    -0.110 C  
HETATM    7  C   UNL     1      -7.611   6.574  67.937  1.00  0.00    -0.103 C  
HETATM    8  H   UNL     1      -8.294   5.739  70.999  1.00  0.00     0.000 HD 
HETATM    9  C   UNL     1      -7.316   5.980  69.320  1.00  0.00    -0.083 C  
HETATM   10  O   UNL     1      -6.350   6.824  67.280  1.00  0.00    -0.043 OA 
HETATM   11  H   UNL     1      -4.909   5.001  69.287  1.00  0.00     0.000 HD 
HETATM   12  C   UNL     1      -6.815   4.529  69.209  1.00  0.00    -0.049 C  
HETATM   13  H   UNL     1      -5.787   7.389  67.796  1.00  0.00     0.000 HD 
HETATM   14  O   UNL     1      -8.477   6.108  70.143  1.00  0.00    -0.128 OA 
HETATM   15  O   UNL     1      -5.462   4.480  68.716  1.00  0.00    -0.011 OA 
BRANCH   6  16
HETATM   16  O   UNL     1      -9.876   5.537  67.563  1.00  0.00    -0.128 OA 
BRANCH  16  17
HETATM   17  C   UNL     1     -10.321   6.345  68.567  1.00  0.00    -0.197 A  
HETATM   18  C   UNL     1     -11.331   6.777  70.699  1.00  0.00    -0.334 A  
HETATM   19  C   UNL     1     -11.451   8.127  70.388  1.00  0.00    -0.126 A  
HETATM   20  O   UNL     1     -11.821   6.353  71.901  1.00  0.00    -0.315 OA 
HETATM   21  C   UNL     1     -10.748   5.884  69.809  1.00  0.00    -0.411 A  
HETATM   22  H   UNL     1     -12.220   6.963  72.510  1.00  0.00     0.000 HD 
HETATM   23  C   UNL     1     -10.991   8.620  69.162  1.00  0.00     0.041 A  
HETATM   24  C   UNL     1     -10.454   7.708  68.241  1.00  0.00    -0.219 A  
BRANCH  23  25
HETATM   25  C   UNL     1     -11.142  10.068  68.914  1.00  0.00    -0.219 C  
HETATM   26  C   UNL     1     -10.714  10.743  67.834  1.00  0.00    -0.282 C  
BRANCH  26  27
HETATM   27  C   UNL     1     -10.716  12.221  67.741  1.00  0.00    -0.246 A  
HETATM   28  C   UNL     1      -9.495  12.905  67.855  1.00  0.00    -0.208 A  
HETATM   29  C   UNL     1      -9.446  14.304  67.860  1.00  0.00    -0.212 A  
HETATM   30  C   UNL     1     -10.625  15.030  67.734  1.00  0.00    -0.264 A  
HETATM   31  C   UNL     1     -11.839  14.379  67.566  1.00  0.00    -0.418 A  
HETATM   32  O   UNL     1     -10.629  16.393  67.775  1.00  0.00    -0.305 OA 
HETATM   33  H   UNL     1     -11.435  16.889  67.689  1.00  0.00     0.000 HD 
HETATM   34  C   UNL     1     -11.885  12.980  67.564  1.00  0.00    -0.408 A  
ENDBRANCH  26  27
ENDBRANCH  23  25
ENDBRANCH  16  17
ENDBRANCH   6  16
ENDBRANCH   3   4
TORSDOF 5
ENDMDL
MODEL      151
REMARK 921   NORMALIZED FREE ENERGY PREDICTED BY IDOCK:   -0.63 KCAL/MOL
REMARK 922        TOTAL FREE ENERGY PREDICTED BY IDOCK:   -1.90 KCAL/MOL
REMARK 923 INTER-LIGAND FREE ENERGY PREDICTED BY IDOCK:   -2.94 KCAL/MOL
REMARK 924 INTRA-LIGAND FREE ENERGY PREDICTED BY IDOCK:    1.05 KCAL/MOL
REMARK 927      BINDING AFFINITY PREDICTED BY RF-SCORE:    0.00 PKD
ROOT
HETATM    1  O   UNL     1      -6.189   4.745  69.115  1.00  0.00    -0.028 OA 
HETATM    2  H   UNL     1      -5.835   5.451  69.643  1.00  0.00     0.000 HD 
HETATM    3  C   UNL     1      -5.160   3.989  68.486  1.00  0.00    -0.007 C  
ENDROOT
BRANCH   3   4
HETATM    4  C   UNL     1      -5.736   2.844  67.628  1.00  0.00    -0.019 C  
HETATM    5  O   UNL     1      -7.150   2.647  67.849  1.00  0.00    -0.048 OA 
HETATM    6  C   UNL     1      -8.008   3.659  67.283  1.00  0.00    -0.083 C  
HETATM    7  C   UNL     1      -7.770   3.745  65.748  1.00  0.00    -0.089 C  
HETATM    8  H   UNL     1      -5.032   5.470  65.496  1.00  0.00     0.000 HD 
HETATM    9  C   UNL     1      -6.291   3.974  65.410  1.00  0.00    -0.032 C  
HETATM   10  O   UNL     1      -8.203   2.547  65.069  1.00  0.00    -0.085 OA 
HETATM   11  H   UNL     1      -5.284   1.717  64.606  1.00  0.00     0.000 HD 
HETATM   12  C   UNL     1      -5.390   2.954  66.129  1.00  0.00    -0.012 C  
HETATM   13  H   UNL     1      -8.058   2.598  64.132  1.00  0.00     0.000 HD 
HETATM   14  O   UNL     1      -5.947   5.328  65.705  1.00  0.00    -0.024 OA 
HETATM   15  O   UNL     1      -5.497   1.649  65.529  1.00  0.00    -0.005 OA 
BRANCH   6  16
HETATM   16  O   UNL     1      -7.818   4.883  67.995  1.00  0.00    -0.082 OA 
BRANCH  16  17
HETATM   17  C   UNL     1      -8.704   5.909  67.847  1.00  0.00    -0.104 A  
HETATM   18  C   UNL     1     -10.772   6.883  67.120  1.00  0.00    -0.366 A  
HETATM   19  C   UNL     1     -10.272   8.160  67.352  1.00  0.00    -0.327 A  
HETATM   20  O   UNL     1     -12.033   6.775  66.606  1.00  0.00     0.164 OA 
HETATM   21  C   UNL     1     -10.008   5.754  67.385  1.00  0.00    -0.172 A  
HETATM   22  H   UNL     1     -12.555   7.547  66.424  1.00  0.00     0.000 HD 
HETATM   23  C   UNL     1      -8.978   8.339  67.855  1.00  0.00    -0.134 A  
HETATM   24  C   UNL     1      -8.188   7.199  68.069  1.00  0.00    -0.120 A  
BRANCH  23  25
HETATM   25  C   UNL     1      -8.528   9.726  68.088  1.00  0.00    -0.114 C  
HETATM   26  C   UNL     1      -9.257  10.842  67.923  1.00  0.00    -0.151 C  
BRANCH  26  27
HETATM   27  C   UNL     1      -8.686  12.207  67.978  1.00  0.00    -0.180 A  
HETATM   28  C   UNL     1      -7.322  12.379  67.694  1.00  0.00    -0.132 A  
HETATM   29  C   UNL     1      -6.709  13.631  67.812  1.00  0.00    -0.177 A  
HETATM   30  C   UNL     1      -7.467  14.729  68.203  1.00  0.00    -0.117 A  
HETATM   31  C   UNL     1      -8.828  14.598  68.438  1.00  0.00    -0.181 A  
HETATM   32  O   UNL     1      -6.904  15.959  68.372  1.00  0.00    -0.112 OA 
HETATM   33  H   UNL     1      -7.422  16.710  68.639  1.00  0.00     0.000 HD 
HETATM   34  C   UNL     1      -9.438  13.343  68.321  1.00  0.00    -0.209 A  
ENDBRANCH  26  27
ENDBRANCH  23  25
ENDBRANCH  16  17
ENDBRANCH   6  16
ENDBRANCH   3   4
TORSDOF 5
ENDMDL
MODEL      152
REMARK 921   NORMALIZED FREE ENERGY PREDICTED BY IDOCK:   -0.35 KCAL/MOL
REMARK 922        TOTAL FREE ENERGY PREDICTED BY IDOCK:   -1.54 KCAL/MOL
REMARK 923 INTER-LIGAND FREE ENERGY PREDICTED BY IDOCK:   -2.54 KCAL/MOL
REMARK 924 INTRA-LIGAND FREE ENERGY PREDICTED BY IDOCK:    1.00 KCAL/MOL
REMARK 927      BINDING AFFINITY PREDICTED BY RF-SCORE:    0.00 PKD
ROOT
HETATM    1  O   UNL     1      -9.456   7.001  66.234  1.00  0.00    -0.308 OA 
HETATM    2  H   UNL     1     -10.164   7.080  66.863  1.00  0.00     0.000 HD 
HETATM    3  C   UNL     1      -9.510   8.026  65.248  1.00  0.00     0.737 C  
ENDROOT
BRANCH   3   4
HETATM    4  C   UNL     1      -8.361   7.897  64.227  1.00  0.00     0.035 C  
HETATM    5  O   UNL     1      -8.081   9.144  63.551  1.00  0.00    -0.141 OA 
HETATM    6  C   UNL     1      -7.414  10.141  64.352  1.00  0.00    -0.123 C  
HETATM    7  C   UNL     1      -6.067   9.569  64.880  1.00  0.00    -0.078 C  
HETATM    8  H   UNL     1      -6.960   7.698  67.378  1.00  0.00     0.000 HD 
HETATM    9  C   UNL     1      -6.263   8.247  65.633  1.00  0.00    -0.045 C  
HETATM   10  O   UNL     1      -5.125   9.339  63.811  1.00  0.00    -0.058 OA 
HETATM   11  H   UNL     1      -5.524   6.305  64.071  1.00  0.00     0.000 HD 
HETATM   12  C   UNL     1      -7.086   7.247  64.802  1.00  0.00    -0.064 C  
HETATM   13  H   UNL     1      -4.302   8.989  64.132  1.00  0.00     0.000 HD 
HETATM   14  O   UNL     1      -6.839   8.517  66.912  1.00  0.00    -0.067 OA 
HETATM   15  O   UNL     1      -6.309   6.706  63.717  1.00  0.00    -0.033 OA 
BRANCH   6  16
HETATM   16  O   UNL     1      -8.312  10.606  65.362  1.00  0.00    -0.163 OA 
BRANCH  16  17
HETATM   17  C   UNL     1      -7.855  11.393  66.377  1.00  0.00    -0.067 A  
HETATM   18  C   UNL     1      -6.587  11.827  68.366  1.00  0.00    -0.055 A  
HETATM   19  C   UNL     1      -7.253  13.033  68.549  1.00  0.00    -0.104 A  
HETATM   20  O   UNL     1      -5.665  11.457  69.304  1.00  0.00    -0.047 OA 
HETATM   21  C   UNL     1      -6.862  11.012  67.275  1.00  0.00    -0.088 A  
HETATM   22  H   UNL     1      -5.477  12.014  70.050  1.00  0.00     0.000 HD 
HETATM   23  C   UNL     1      -8.226  13.457  67.636  1.00  0.00    -0.177 A  
HETATM   24  C   UNL     1      -8.542  12.607  66.565  1.00  0.00     0.051 A  
BRANCH  23  25
HETATM   25  C   UNL     1      -8.876  14.758  67.894  1.00  0.00    -0.167 C  
HETATM   26  C   UNL     1      -9.087  15.737  66.998  1.00  0.00    -0.240 C  
BRANCH  26  27
HETATM   27  C   UNL     1      -9.558  17.092  67.365  1.00  0.00    -0.246 A  
HETATM   28  C   UNL     1      -9.560  17.461  68.720  1.00  0.00    -0.267 A  
HETATM   29  C   UNL     1     -10.074  18.695  69.134  1.00  0.00    -0.182 A  
HETATM   30  C   UNL     1     -10.577  19.579  68.185  1.00  0.00    -0.281 A  
HETATM   31  C   UNL     1     -10.539  19.261  66.835  1.00  0.00    -0.557 A  
HETATM   32  O   UNL     1     -11.125  20.774  68.547  1.00  0.00     0.559 OA 
HETATM   33  H   UNL     1     -11.469  21.378  67.899  1.00  0.00     0.000 HD 
HETATM   34  C   UNL     1     -10.027  18.025  66.425  1.00  0.00    -0.362 A  
ENDBRANCH  26  27
ENDBRANCH  23  25
ENDBRANCH  16  17
ENDBRANCH   6  16
ENDBRANCH   3   4
TORSDOF 5
ENDMDL
MODEL      153
REMARK 921   NORMALIZED FREE ENERGY PREDICTED BY IDOCK:   -0.15 KCAL/MOL
REMARK 922        TOTAL FREE ENERGY PREDICTED BY IDOCK:   -1.27 KCAL/MOL
REMARK 923 INTER-LIGAND FREE ENERGY PREDICTED BY IDOCK:   -1.82 KCAL/MOL
REMARK 924 INTRA-LIGAND FREE ENERGY PREDICTED BY IDOCK:    0.55 KCAL/MOL
REMARK 927      BINDING AFFINITY PREDICTED BY RF-SCORE:    0.00 PKD
ROOT
HETATM    1  O   UNL     1      -9.181  12.234  69.812  1.00  0.00     1.065 OA 
HETATM    2  H   UNL     1      -8.824  11.899  70.626  1.00  0.00     0.000 HD 
HETATM    3  C   UNL     1      -9.273  11.218  68.820  1.00  0.00    -0.126 C  
ENDROOT
BRANCH   3   4
HETATM    4  C   UNL     1      -9.854  11.761  67.498  1.00  0.00    -0.186 C  
HETATM    5  O   UNL     1      -8.826  12.084  66.535  1.00  0.00    -0.205 OA 
HETATM    6  C   UNL     1      -8.180  10.950  65.922  1.00  0.00    -0.133 C  
HETATM    7  C   UNL     1      -9.245  10.068  65.208  1.00  0.00    -0.218 C  
HETATM    8  H   UNL     1     -10.596   8.390  67.636  1.00  0.00     0.000 HD 
HETATM    9  C   UNL     1     -10.376   9.655  66.159  1.00  0.00    -0.132 C  
HETATM   10  O   UNL     1      -9.835  10.746  64.079  1.00  0.00    -0.277 OA 
HETATM   11  H   UNL     1     -12.452  11.129  65.638  1.00  0.00     0.000 HD 
HETATM   12  C   UNL     1     -10.961  10.874  66.893  1.00  0.00    -0.223 C  
HETATM   13  H   UNL     1     -10.486  10.208  63.643  1.00  0.00     0.000 HD 
HETATM   14  O   UNL     1      -9.896   8.645  67.048  1.00  0.00    -0.179 OA 
HETATM   15  O   UNL     1     -11.770  11.676  66.011  1.00  0.00    -0.382 OA 
BRANCH   6  16
HETATM   16  O   UNL     1      -7.392  10.273  66.903  1.00  0.00    -0.093 OA 
BRANCH  16  17
HETATM   17  C   UNL     1      -7.093   8.951  66.751  1.00  0.00    -0.081 A  
HETATM   18  C   UNL     1      -6.654   6.973  65.468  1.00  0.00    -0.051 A  
HETATM   19  C   UNL     1      -6.780   6.186  66.607  1.00  0.00    -0.060 A  
HETATM   20  O   UNL     1      -6.416   6.344  64.279  1.00  0.00    -0.032 OA 
HETATM   21  C   UNL     1      -6.785   8.355  65.532  1.00  0.00    -0.059 A  
HETATM   22  H   UNL     1      -6.327   5.400  64.235  1.00  0.00     0.000 HD 
HETATM   23  C   UNL     1      -7.048   6.767  67.851  1.00  0.00    -0.085 A  
HETATM   24  C   UNL     1      -7.235   8.157  67.905  1.00  0.00    -0.091 A  
BRANCH  23  25
HETATM   25  C   UNL     1      -7.151   5.863  69.014  1.00  0.00    -0.069 C  
HETATM   26  C   UNL     1      -6.175   5.575  69.891  1.00  0.00    -0.029 C  
BRANCH  26  27
HETATM   27  C   UNL     1      -6.283   4.507  70.912  1.00  0.00    -0.018 A  
HETATM   28  C   UNL     1      -7.561   4.095  71.323  1.00  0.00    -0.059 A  
HETATM   29  C   UNL     1      -7.724   3.153  72.345  1.00  0.00    -0.058 A  
HETATM   30  C   UNL     1      -6.602   2.602  72.952  1.00  0.00    -0.021 A  
HETATM   31  C   UNL     1      -5.328   2.952  72.529  1.00  0.00     0.000 A  
HETATM   32  O   UNL     1      -6.713   1.712  73.980  1.00  0.00    -0.019 OA 
HETATM   33  H   UNL     1      -5.946   1.335  74.395  1.00  0.00     0.000 HD 
HETATM   34  C   UNL     1      -5.168   3.897  71.509  1.00  0.00     0.000 A  
ENDBRANCH  26  27
ENDBRANCH  23  25
ENDBRANCH  16  17
ENDBRANCH   6  16
ENDBRANCH   3   4
TORSDOF 5
ENDMDL
MODEL      154
REMARK 921   NORMALIZED FREE ENERGY PREDICTED BY IDOCK:    0.08 KCAL/MOL
REMARK 922        TOTAL FREE ENERGY PREDICTED BY IDOCK:   -0.98 KCAL/MOL
REMARK 923 INTER-LIGAND FREE ENERGY PREDICTED BY IDOCK:   -5.67 KCAL/MOL
REMARK 924 INTRA-LIGAND FREE ENERGY PREDICTED BY IDOCK:    4.70 KCAL/MOL
REMARK 927      BINDING AFFINITY PREDICTED BY RF-SCORE:    0.00 PKD
ROOT
HETATM    1  O   UNL     1      -9.059   9.927  70.923  1.00  0.00    -0.329 OA 
HETATM    2  H   UNL     1      -9.411  10.193  70.081  1.00  0.00     0.000 HD 
HETATM    3  C   UNL     1      -9.202   8.527  71.136  1.00  0.00    -0.197 C  
ENDROOT
BRANCH   3   4
HETATM    4  C   UNL     1      -8.630   8.097  72.503  1.00  0.00    -0.194 C  
HETATM    5  O   UNL     1      -9.664   7.712  73.436  1.00  0.00    -0.262 OA 
HETATM    6  C   UNL     1     -10.294   6.442  73.167  1.00  0.00    -0.226 C  
HETATM    7  C   UNL     1      -9.217   5.320  73.156  1.00  0.00    -0.132 C  
HETATM    8  H   UNL     1      -7.838   5.616  70.232  1.00  0.00     0.000 HD 
HETATM    9  C   UNL     1      -8.079   5.628  72.174  1.00  0.00    -0.108 C  
HETATM   10  O   UNL     1      -8.638   5.116  74.462  1.00  0.00    -0.109 OA 
HETATM   11  H   UNL     1      -6.025   6.442  73.544  1.00  0.00     0.000 HD 
HETATM   12  C   UNL     1      -7.511   7.039  72.405  1.00  0.00    -0.085 C  
HETATM   13  H   UNL     1      -7.980   4.430  74.455  1.00  0.00     0.000 HD 
HETATM   14  O   UNL     1      -8.543   5.425  70.839  1.00  0.00    -0.122 OA 
HETATM   15  O   UNL     1      -6.715   7.093  73.604  1.00  0.00    -0.066 OA 
BRANCH   6  16
HETATM   16  O   UNL     1     -11.071   6.550  71.973  1.00  0.00    -0.237 OA 
BRANCH  16  17
HETATM   17  C   UNL     1     -11.513   7.768  71.549  1.00  0.00    -0.264 A  
HETATM   18  C   UNL     1     -12.858   9.747  71.705  1.00  0.00    -0.434 A  
HETATM   19  C   UNL     1     -12.533  10.093  70.398  1.00  0.00    -0.243 A  
HETATM   20  O   UNL     1     -13.721  10.559  72.384  1.00  0.00    -0.525 OA 
HETATM   21  C   UNL     1     -12.337   8.603  72.297  1.00  0.00    -0.449 A  
HETATM   22  H   UNL     1     -14.077  11.341  71.980  1.00  0.00     0.000 HD 
HETATM   23  C   UNL     1     -11.673   9.289  69.641  1.00  0.00     0.358 A  
HETATM   24  C   UNL     1     -11.192   8.105  70.221  1.00  0.00    -0.182 A  
BRANCH  23  25
HETATM   25  C   UNL     1     -11.365   9.734  68.267  1.00  0.00     0.034 C  
HETATM   26  C   UNL     1     -11.046  10.981  67.882  1.00  0.00    -0.347 C  
BRANCH  26  27
HETATM   27  C   UNL     1     -10.949  11.400  66.465  1.00  0.00    -0.328 A  
HETATM   28  C   UNL     1     -11.105  12.760  66.152  1.00  0.00    -0.322 A  
HETATM   29  C   UNL     1     -11.108  13.201  64.824  1.00  0.00    -0.351 A  
HETATM   30  C   UNL     1     -10.938  12.280  63.797  1.00  0.00    -0.435 A  
HETATM   31  C   UNL     1     -10.729  10.938  64.081  1.00  0.00    -0.231 A  
HETATM   32  O   UNL     1     -10.976  12.660  62.487  1.00  0.00     0.151 OA 
HETATM   33  H   UNL     1     -10.859  12.030  61.785  1.00  0.00     0.000 HD 
HETATM   34  C   UNL     1     -10.729  10.499  65.410  1.00  0.00    -0.038 A  
ENDBRANCH  26  27
ENDBRANCH  23  25
ENDBRANCH  16  17
ENDBRANCH   6  16
ENDBRANCH   3   4
TORSDOF 5
ENDMDL
MODEL      155
REMARK 921   NORMALIZED FREE ENERGY PREDICTED BY IDOCK:    0.21 KCAL/MOL
REMARK 922        TOTAL FREE ENERGY PREDICTED BY IDOCK:   -0.81 KCAL/MOL
REMARK 923 INTER-LIGAND FREE ENERGY PREDICTED BY IDOCK:   -0.91 KCAL/MOL
REMARK 924 INTRA-LIGAND FREE ENERGY PREDICTED BY IDOCK:    0.10 KCAL/MOL
REMARK 927      BINDING AFFINITY PREDICTED BY RF-SCORE:    0.00 PKD
ROOT
HETATM    1  O   UNL     1     -13.388  11.411  71.475  1.00  0.00    -0.291 OA 
HETATM    2  H   UNL     1     -13.318  10.468  71.570  1.00  0.00     0.000 HD 
HETATM    3  C   UNL     1     -12.108  12.026  71.372  1.00  0.00     0.474 C  
ENDROOT
BRANCH   3   4
HETATM    4  C   UNL     1     -12.221  13.556  71.217  1.00  0.00    -0.117 C  
HETATM    5  O   UNL     1     -10.952  14.174  70.907  1.00  0.00     0.442 OA 
HETATM    6  C   UNL     1     -10.474  13.956  69.564  1.00  0.00     0.232 C  
HETATM    7  C   UNL     1     -11.525  14.482  68.545  1.00  0.00    -0.301 C  
HETATM    8  H   UNL     1     -13.762  12.131  68.472  1.00  0.00     0.000 HD 
HETATM    9  C   UNL     1     -12.909  13.866  68.781  1.00  0.00     1.219 C  
HETATM   10  O   UNL     1     -11.659  15.918  68.604  1.00  0.00    -0.382 OA 
HETATM   11  H   UNL     1     -14.394  15.637  69.970  1.00  0.00     0.000 HD 
HETATM   12  C   UNL     1     -13.339  14.004  70.252  1.00  0.00     0.519 C  
HETATM   13  H   UNL     1     -12.301  16.241  67.982  1.00  0.00     0.000 HD 
HETATM   14  O   UNL     1     -12.904  12.512  68.326  1.00  0.00     0.870 OA 
HETATM   15  O   UNL     1     -13.706  15.361  70.564  1.00  0.00    -0.237 OA 
BRANCH   6  16
HETATM   16  O   UNL     1     -10.119  12.580  69.412  1.00  0.00     0.362 OA 
BRANCH  16  17
HETATM   17  C   UNL     1      -9.925  12.054  68.169  1.00  0.00    -0.203 A  
HETATM   18  C   UNL     1      -9.821  12.160  65.775  1.00  0.00    -0.245 A  
HETATM   19  C   UNL     1      -9.800  10.772  65.697  1.00  0.00    -0.299 A  
HETATM   20  O   UNL     1      -9.820  12.865  64.605  1.00  0.00    -0.547 OA 
HETATM   21  C   UNL     1      -9.860  12.810  67.002  1.00  0.00    -0.231 A  
HETATM   22  H   UNL     1      -9.794  12.421  63.766  1.00  0.00     0.000 HD 
HETATM   23  C   UNL     1      -9.823   9.992  66.859  1.00  0.00    -0.248 A  
HETATM   24  C   UNL     1      -9.919  10.648  68.095  1.00  0.00    -0.176 A  
BRANCH  23  25
HETATM   25  C   UNL     1      -9.783   8.525  66.691  1.00  0.00    -0.318 C  
HETATM   26  C   UNL     1     -10.179   7.606  67.588  1.00  0.00    -0.277 C  
BRANCH  26  27
HETATM   27  C   UNL     1      -9.923   6.155  67.439  1.00  0.00    -0.166 A  
HETATM   28  C   UNL     1      -9.188   5.495  68.437  1.00  0.00    -0.124 A  
HETATM   29  C   UNL     1      -8.843   4.145  68.308  1.00  0.00    -0.133 A  
HETATM   30  C   UNL     1      -9.249   3.440  67.180  1.00  0.00    -0.191 A  
HETATM   31  C   UNL     1     -10.022   4.054  66.205  1.00  0.00    -0.125 A  
HETATM   32  O   UNL     1      -8.901   2.135  66.993  1.00  0.00    -0.117 OA 
HETATM   33  H   UNL     1      -9.178   1.653  66.223  1.00  0.00     0.000 HD 
HETATM   34  C   UNL     1     -10.363   5.405  66.336  1.00  0.00    -0.298 A  
ENDBRANCH  26  27
ENDBRANCH  23  25
ENDBRANCH  16  17
ENDBRANCH   6  16
ENDBRANCH   3   4
TORSDOF 5
ENDMDL
MODEL      156
REMARK 921   NORMALIZED FREE ENERGY PREDICTED BY IDOCK:    0.41 KCAL/MOL
REMARK 922        TOTAL FREE ENERGY PREDICTED BY IDOCK:   -0.55 KCAL/MOL
REMARK 923 INTER-LIGAND FREE ENERGY PREDICTED BY IDOCK:   -5.90 KCAL/MOL
REMARK 924 INTRA-LIGAND FREE ENERGY PREDICTED BY IDOCK:    5.35 KCAL/MOL
REMARK 927      BINDING AFFINITY PREDICTED BY RF-SCORE:    0.00 PKD
ROOT
HETATM    1  O   UNL     1     -12.495  15.074  64.779  1.00  0.00    -0.258 OA 
HETATM    2  H   UNL     1     -13.204  15.681  64.955  1.00  0.00     0.000 HD 
HETATM    3  C   UNL     1     -12.897  14.036  63.892  1.00  0.00     0.555 C  
ENDROOT
BRANCH   3   4
HETATM    4  C   UNL     1     -11.745  13.052  63.606  1.00  0.00    -0.490 C  
HETATM    5  O   UNL     1     -10.453  13.700  63.602  1.00  0.00     0.250 OA 
HETATM    6  C   UNL     1      -9.956  14.088  64.899  1.00  0.00    -0.126 C  
HETATM    7  C   UNL     1      -9.860  12.836  65.816  1.00  0.00    -0.214 C  
HETATM    8  H   UNL     1     -12.923  12.360  66.779  1.00  0.00     0.000 HD 
HETATM    9  C   UNL     1     -11.195  12.085  65.902  1.00  0.00    -0.337 C  
HETATM   10  O   UNL     1      -8.854  11.908  65.356  1.00  0.00    -0.401 OA 
HETATM   11  H   UNL     1     -11.036   9.972  64.397  1.00  0.00     0.000 HD 
HETATM   12  C   UNL     1     -11.763  11.795  64.501  1.00  0.00    -0.189 C  
HETATM   13  H   UNL     1      -8.795  11.142  65.916  1.00  0.00     0.000 HD 
HETATM   14  O   UNL     1     -12.096  12.824  66.727  1.00  0.00    -0.457 OA 
HETATM   15  O   UNL     1     -11.025  10.746  63.846  1.00  0.00    -0.052 OA 
BRANCH   6  16
HETATM   16  O   UNL     1     -10.761  15.153  65.409  1.00  0.00    -0.327 OA 
BRANCH  16  17
HETATM   17  C   UNL     1     -10.698  15.491  66.728  1.00  0.00    -0.305 A  
HETATM   18  C   UNL     1     -10.041  16.881  68.569  1.00  0.00    -0.297 A  
HETATM   19  C   UNL     1     -10.394  15.884  69.471  1.00  0.00    -0.277 A  
HETATM   20  O   UNL     1      -9.504  18.034  69.068  1.00  0.00    -0.224 OA 
HETATM   21  C   UNL     1     -10.209  16.705  67.201  1.00  0.00    -0.290 A  
HETATM   22  H   UNL     1      -9.389  18.154  70.003  1.00  0.00     0.000 HD 
HETATM   23  C   UNL     1     -10.926  14.671  69.021  1.00  0.00    -0.269 A  
HETATM   24  C   UNL     1     -11.044  14.473  67.637  1.00  0.00    -0.314 A  
BRANCH  23  25
HETATM   25  C   UNL     1     -11.291  13.669  70.044  1.00  0.00    -0.054 C  
HETATM   26  C   UNL     1     -11.408  12.344  69.859  1.00  0.00    -0.070 C  
BRANCH  26  27
HETATM   27  C   UNL     1     -11.973  11.424  70.872  1.00  0.00    -0.271 A  
HETATM   28  C   UNL     1     -11.393  10.154  71.028  1.00  0.00    -0.385 A  
HETATM   29  C   UNL     1     -11.936   9.213  71.909  1.00  0.00    -0.443 A  
HETATM   30  C   UNL     1     -13.062   9.545  72.655  1.00  0.00    -0.103 A  
HETATM   31  C   UNL     1     -13.623  10.810  72.559  1.00  0.00     0.479 A  
HETATM   32  O   UNL     1     -13.650   8.645  73.494  1.00  0.00    -0.587 OA 
HETATM   33  H   UNL     1     -14.419   8.871  74.005  1.00  0.00     0.000 HD 
HETATM   34  C   UNL     1     -13.078  11.749  71.676  1.00  0.00    -0.443 A  
ENDBRANCH  26  27
ENDBRANCH  23  25
ENDBRANCH  16  17
ENDBRANCH   6  16
ENDBRANCH   3   4
TORSDOF 5
ENDMDL
MODEL      157
REMARK 921   NORMALIZED FREE ENERGY PREDICTED BY IDOCK:    0.65 KCAL/MOL
REMARK 922        TOTAL FREE ENERGY PREDICTED BY IDOCK:   -0.24 KCAL/MOL
REMARK 923 INTER-LIGAND FREE ENERGY PREDICTED BY IDOCK:   -1.59 KCAL/MOL
REMARK 924 INTRA-LIGAND FREE ENERGY PREDICTED BY IDOCK:    1.35 KCAL/MOL
REMARK 927      BINDING AFFINITY PREDICTED BY RF-SCORE:    0.00 PKD
ROOT
HETATM    1  O   UNL     1     -10.234  18.289  65.890  1.00  0.00    -0.541 OA 
HETATM    2  H   UNL     1     -10.574  17.406  65.980  1.00  0.00     0.000 HD 
HETATM    3  C   UNL     1      -8.813  18.318  65.979  1.00  0.00     0.038 C  
ENDROOT
BRANCH   3   4
HETATM    4  C   UNL     1      -8.262  19.751  65.833  1.00  0.00    -0.223 C  
HETATM    5  O   UNL     1      -7.840  20.311  67.097  1.00  0.00    -0.306 OA 
HETATM    6  C   UNL     1      -6.616  19.768  67.633  1.00  0.00    -0.231 C  
HETATM    7  C   UNL     1      -5.463  19.976  66.610  1.00  0.00    -0.171 C  
HETATM    8  H   UNL     1      -5.937  17.610  64.437  1.00  0.00     0.000 HD 
HETATM    9  C   UNL     1      -5.809  19.394  65.233  1.00  0.00    -0.202 C  
HETATM   10  O   UNL     1      -5.142  21.372  66.437  1.00  0.00    -0.208 OA 
HETATM   11  H   UNL     1      -6.448  21.361  63.658  1.00  0.00     0.000 HD 
HETATM   12  C   UNL     1      -7.179  19.895  64.743  1.00  0.00     0.474 C  
HETATM   13  H   UNL     1      -4.438  21.499  65.812  1.00  0.00     0.000 HD 
HETATM   14  O   UNL     1      -5.723  17.970  65.290  1.00  0.00    -0.140 OA 
HETATM   15  O   UNL     1      -7.115  21.273  64.330  1.00  0.00     0.213 OA 
BRANCH   6  16
HETATM   16  O   UNL     1      -6.839  18.413  68.028  1.00  0.00    -0.210 OA 
BRANCH  16  17
HETATM   17  C   UNL     1      -8.033  18.045  68.576  1.00  0.00    -0.303 A  
HETATM   18  C   UNL     1      -9.935  18.350  70.004  1.00  0.00     1.085 A  
HETATM   19  C   UNL     1     -10.302  17.021  69.828  1.00  0.00     0.027 A  
HETATM   20  O   UNL     1     -10.696  19.118  70.839  1.00  0.00     0.841 OA 
HETATM   21  C   UNL     1      -8.819  18.878  69.366  1.00  0.00     0.238 A  
HETATM   22  H   UNL     1     -11.459  18.758  71.275  1.00  0.00     0.000 HD 
HETATM   23  C   UNL     1      -9.550  16.176  69.005  1.00  0.00    -0.251 A  
HETATM   24  C   UNL     1      -8.392  16.695  68.406  1.00  0.00    -0.208 A  
BRANCH  23  25
HETATM   25  C   UNL     1     -10.015  14.782  68.859  1.00  0.00    -0.233 C  
HETATM   26  C   UNL     1      -9.285  13.671  69.054  1.00  0.00     0.300 C  
BRANCH  26  27
HETATM   27  C   UNL     1      -9.752  12.312  68.694  1.00  0.00    -0.074 A  
HETATM   28  C   UNL     1     -11.103  12.131  68.359  1.00  0.00    -0.289 A  
HETATM   29  C   UNL     1     -11.620  10.858  68.094  1.00  0.00    -0.317 A  
HETATM   30  C   UNL     1     -10.776   9.754  68.148  1.00  0.00    -0.233 A  
HETATM   31  C   UNL     1      -9.426   9.911  68.425  1.00  0.00    -0.142 A  
HETATM   32  O   UNL     1     -11.244   8.490  67.937  1.00  0.00    -0.360 OA 
HETATM   33  H   UNL     1     -10.669   7.735  67.974  1.00  0.00     0.000 HD 
HETATM   34  C   UNL     1      -8.913  11.185  68.692  1.00  0.00    -0.162 A  
ENDBRANCH  26  27
ENDBRANCH  23  25
ENDBRANCH  16  17
ENDBRANCH   6  16
ENDBRANCH   3   4
TORSDOF 5
ENDMDL
MODEL      158
REMARK 921   NORMALIZED FREE ENERGY PREDICTED BY IDOCK:    1.04 KCAL/MOL
REMARK 922        TOTAL FREE ENERGY PREDICTED BY IDOCK:    0.27 KCAL/MOL
REMARK 923 INTER-LIGAND FREE ENERGY PREDICTED BY IDOCK:   -4.76 KCAL/MOL
REMARK 924 INTRA-LIGAND FREE ENERGY PREDICTED BY IDOCK:    5.03 KCAL/MOL
REMARK 927      BINDING AFFINITY PREDICTED BY RF-SCORE:    0.00 PKD
ROOT
HETATM    1  O   UNL     1     -11.196  11.042  63.886  1.00  0.00    -0.438 OA 
HETATM    2  H   UNL     1     -10.660  10.328  63.561  1.00  0.00     0.000 HD 
HETATM    3  C   UNL     1     -11.427  10.933  65.286  1.00  0.00     0.639 C  
ENDROOT
BRANCH   3   4
HETATM    4  C   UNL     1     -12.296  12.092  65.813  1.00  0.00     0.316 C  
HETATM    5  O   UNL     1     -12.486  12.033  67.245  1.00  0.00    -0.012 OA 
HETATM    6  C   UNL     1     -11.331  12.385  68.033  1.00  0.00    -0.287 C  
HETATM    7  C   UNL     1     -10.872  13.826  67.671  1.00  0.00    -0.254 C  
HETATM    8  H   UNL     1      -9.249  13.433  64.887  1.00  0.00     0.000 HD 
HETATM    9  C   UNL     1     -10.625  13.986  66.165  1.00  0.00    -0.290 C  
HETATM   10  O   UNL     1     -11.843  14.816  68.071  1.00  0.00    -0.408 OA 
HETATM   11  H   UNL     1     -12.645  15.261  65.141  1.00  0.00     0.000 HD 
HETATM   12  C   UNL     1     -11.827  13.486  65.346  1.00  0.00    -0.357 C  
HETATM   13  H   UNL     1     -11.564  15.697  67.850  1.00  0.00     0.000 HD 
HETATM   14  O   UNL     1      -9.402  13.334  65.819  1.00  0.00    -0.022 OA 
HETATM   15  O   UNL     1     -12.935  14.402  65.430  1.00  0.00    -0.571 OA 
BRANCH   6  16
HETATM   16  O   UNL     1     -10.333  11.374  67.877  1.00  0.00    -0.175 OA 
BRANCH  16  17
HETATM   17  C   UNL     1      -9.018  11.719  67.764  1.00  0.00    -0.173 A  
HETATM   18  C   UNL     1      -6.665  11.259  67.712  1.00  0.00    -0.069 A  
HETATM   19  C   UNL     1      -6.379  12.615  67.819  1.00  0.00    -0.130 A  
HETATM   20  O   UNL     1      -5.615  10.385  67.677  1.00  0.00    -0.044 OA 
HETATM   21  C   UNL     1      -7.976  10.803  67.660  1.00  0.00    -0.110 A  
HETATM   22  H   UNL     1      -4.719  10.697  67.712  1.00  0.00     0.000 HD 
HETATM   23  C   UNL     1      -7.411  13.558  67.884  1.00  0.00    -0.149 A  
HETATM   24  C   UNL     1      -8.734  13.092  67.888  1.00  0.00    -0.192 A  
BRANCH  23  25
HETATM   25  C   UNL     1      -7.024  14.980  67.982  1.00  0.00    -0.147 C  
HETATM   26  C   UNL     1      -7.537  15.999  67.274  1.00  0.00    -0.227 C  
BRANCH  26  27
HETATM   27  C   UNL     1      -6.966  17.365  67.274  1.00  0.00    -0.194 A  
HETATM   28  C   UNL     1      -7.371  18.266  68.272  1.00  0.00    -0.277 A  
HETATM   29  C   UNL     1      -6.930  19.594  68.272  1.00  0.00    -0.333 A  
HETATM   30  C   UNL     1      -6.062  20.026  67.276  1.00  0.00    -0.179 A  
HETATM   31  C   UNL     1      -5.605  19.144  66.308  1.00  0.00    -0.173 A  
HETATM   32  O   UNL     1      -5.640  21.321  67.213  1.00  0.00    -0.253 OA 
HETATM   33  H   UNL     1      -5.047  21.617  66.532  1.00  0.00     0.000 HD 
HETATM   34  C   UNL     1      -6.049  17.816  66.309  1.00  0.00    -0.255 A  
ENDBRANCH  26  27
ENDBRANCH  23  25
ENDBRANCH  16  17
ENDBRANCH   6  16
ENDBRANCH   3   4
TORSDOF 5
ENDMDL
MODEL      159
REMARK 921   NORMALIZED FREE ENERGY PREDICTED BY IDOCK:    2.29 KCAL/MOL
REMARK 922        TOTAL FREE ENERGY PREDICTED BY IDOCK:    1.87 KCAL/MOL
REMARK 923 INTER-LIGAND FREE ENERGY PREDICTED BY IDOCK:    0.17 KCAL/MOL
REMARK 924 INTRA-LIGAND FREE ENERGY PREDICTED BY IDOCK:    1.71 KCAL/MOL
REMARK 927      BINDING AFFINITY PREDICTED BY RF-SCORE:    0.00 PKD
ROOT
HETATM    1  O   UNL     1     -12.344  14.536  64.103  1.00  0.00    -0.668 OA 
HETATM    2  H   UNL     1     -12.879  15.259  63.798  1.00  0.00     0.000 HD 
HETATM    3  C   UNL     1     -12.313  13.469  63.161  1.00  0.00     0.097 C  
ENDROOT
BRANCH   3   4
HETATM    4  C   UNL     1     -11.446  12.294  63.657  1.00  0.00    -0.490 C  
HETATM    5  O   UNL     1     -10.037  12.615  63.670  1.00  0.00    -0.385 OA 
HETATM    6  C   UNL     1      -9.621  13.517  64.716  1.00  0.00     0.463 C  
HETATM    7  C   UNL     1      -9.987  12.912  66.101  1.00  0.00    -0.272 C  
HETATM    8  H   UNL     1     -13.160  13.531  66.390  1.00  0.00     0.000 HD 
HETATM    9  C   UNL     1     -11.475  12.554  66.194  1.00  0.00    -0.377 C  
HETATM   10  O   UNL     1      -9.222  11.722  66.387  1.00  0.00    -0.209 OA 
HETATM   11  H   UNL     1     -11.708   9.978  65.933  1.00  0.00     0.000 HD 
HETATM   12  C   UNL     1     -11.918  11.694  64.998  1.00  0.00     0.199 C  
HETATM   13  H   UNL     1      -9.445  11.351  67.233  1.00  0.00     0.000 HD 
HETATM   14  O   UNL     1     -12.239  13.753  66.333  1.00  0.00    -0.429 OA 
HETATM   15  O   UNL     1     -11.417  10.348  65.107  1.00  0.00     1.036 OA 
BRANCH   6  16
HETATM   16  O   UNL     1     -10.165  14.813  64.458  1.00  0.00    -0.142 OA 
BRANCH  16  17
HETATM   17  C   UNL     1      -9.942  15.837  65.331  1.00  0.00    -0.237 A  
HETATM   18  C   UNL     1      -9.932  18.142  65.994  1.00  0.00    -0.215 A  
HETATM   19  C   UNL     1      -9.153  17.838  67.104  1.00  0.00    -0.247 A  
HETATM   20  O   UNL     1     -10.257  19.452  65.782  1.00  0.00    -0.441 OA 
HETATM   21  C   UNL     1     -10.350  17.150  65.116  1.00  0.00     0.251 A  
HETATM   22  H   UNL     1      -9.971  20.130  66.381  1.00  0.00     0.000 HD 
HETATM   23  C   UNL     1      -8.764  16.519  67.363  1.00  0.00    -0.195 A  
HETATM   24  C   UNL     1      -9.141  15.526  66.446  1.00  0.00    -0.351 A  
BRANCH  23  25
HETATM   25  C   UNL     1      -7.950  16.277  68.572  1.00  0.00    -0.184 C  
HETATM   26  C   UNL     1      -7.323  15.134  68.897  1.00  0.00    -0.142 C  
BRANCH  26  27
HETATM   27  C   UNL     1      -6.695  14.894  70.217  1.00  0.00    -0.046 A  
HETATM   28  C   UNL     1      -6.597  13.574  70.686  1.00  0.00     0.564 A  
HETATM   29  C   UNL     1      -6.091  13.294  71.961  1.00  0.00     1.292 A  
HETATM   30  C   UNL     1      -5.664  14.340  72.771  1.00  0.00     0.065 A  
HETATM   31  C   UNL     1      -5.701  15.649  72.312  1.00  0.00     0.901 A  
HETATM   32  O   UNL     1      -5.203  14.118  74.035  1.00  0.00    -0.486 OA 
HETATM   33  H   UNL     1      -4.910  14.832  74.589  1.00  0.00     0.000 HD 
HETATM   34  C   UNL     1      -6.209  15.925  71.037  1.00  0.00     0.813 A  
ENDBRANCH  26  27
ENDBRANCH  23  25
ENDBRANCH  16  17
ENDBRANCH   6  16
ENDBRANCH   3   4
TORSDOF 5
ENDMDL
MODEL      160
REMARK 921   NORMALIZED FREE ENERGY PREDICTED BY IDOCK:    2.83 KCAL/MOL
REMARK 922        TOTAL FREE ENERGY PREDICTED BY IDOCK:    2.58 KCAL/MOL
REMARK 923 INTER-LIGAND FREE ENERGY PREDICTED BY IDOCK:    0.16 KCAL/MOL
REMARK 924 INTRA-LIGAND FREE ENERGY PREDICTED BY IDOCK:    2.41 KCAL/MOL
REMARK 927      BINDING AFFINITY PREDICTED BY RF-SCORE:    0.00 PKD
ROOT
HETATM    1  O   UNL     1     -10.123  11.882  63.756  1.00  0.00    -0.343 OA 
HETATM    2  H   UNL     1     -10.511  12.315  63.005  1.00  0.00     0.000 HD 
HETATM    3  C   UNL     1     -10.936  10.811  64.224  1.00  0.00     0.309 C  
ENDROOT
BRANCH   3   4
HETATM    4  C   UNL     1     -10.306  10.108  65.444  1.00  0.00    -0.106 C  
HETATM    5  O   UNL     1      -9.034  10.683  65.817  1.00  0.00    -0.169 OA 
HETATM    6  C   UNL     1      -9.105  11.976  66.451  1.00  0.00    -0.193 C  
HETATM    7  C   UNL     1      -9.980  11.879  67.733  1.00  0.00    -0.186 C  
HETATM    8  H   UNL     1     -13.018  11.917  66.589  1.00  0.00     0.000 HD 
HETATM    9  C   UNL     1     -11.367  11.294  67.437  1.00  0.00    -0.276 C  
HETATM   10  O   UNL     1      -9.359  11.062  68.748  1.00  0.00    -0.189 OA 
HETATM   11  H   UNL     1     -11.392   8.819  68.232  1.00  0.00     0.000 HD 
HETATM   12  C   UNL     1     -11.261   9.977  66.649  1.00  0.00     0.503 C  
HETATM   13  H   UNL     1      -9.893  11.002  69.531  1.00  0.00     0.000 HD 
HETATM   14  O   UNL     1     -12.160  12.279  66.772  1.00  0.00    -0.593 OA 
HETATM   15  O   UNL     1     -10.803   8.900  67.490  1.00  0.00    -0.218 OA 
BRANCH   6  16
HETATM   16  O   UNL     1      -9.540  12.943  65.493  1.00  0.00    -0.127 OA 
BRANCH  16  17
HETATM   17  C   UNL     1     -10.217  14.055  65.898  1.00  0.00    -0.320 A  
HETATM   18  C   UNL     1     -12.051  15.599  65.850  1.00  0.00     0.917 A  
HETATM   19  C   UNL     1     -11.329  16.509  66.613  1.00  0.00     0.548 A  
HETATM   20  O   UNL     1     -13.299  15.966  65.430  1.00  0.00     2.227 OA 
HETATM   21  C   UNL     1     -11.516  14.364  65.507  1.00  0.00    -0.340 A  
HETATM   22  H   UNL     1     -13.664  16.811  65.664  1.00  0.00     0.000 HD 
HETATM   23  C   UNL     1     -10.036  16.203  67.053  1.00  0.00    -0.270 A  
HETATM   24  C   UNL     1      -9.476  14.978  66.660  1.00  0.00    -0.288 A  
BRANCH  23  25
HETATM   25  C   UNL     1      -9.341  17.216  67.873  1.00  0.00    -0.249 C  
HETATM   26  C   UNL     1      -8.165  17.802  67.593  1.00  0.00    -0.230 C  
BRANCH  26  27
HETATM   27  C   UNL     1      -7.428  18.655  68.552  1.00  0.00    -0.326 A  
HETATM   28  C   UNL     1      -6.126  19.069  68.224  1.00  0.00    -0.232 A  
HETATM   29  C   UNL     1      -5.351  19.804  69.128  1.00  0.00    -0.215 A  
HETATM   30  C   UNL     1      -5.883  20.145  70.366  1.00  0.00    -0.343 A  
HETATM   31  C   UNL     1      -7.185  19.795  70.695  1.00  0.00     0.680 A  
HETATM   32  O   UNL     1      -5.149  20.824  71.293  1.00  0.00    -0.409 OA 
HETATM   33  H   UNL     1      -5.513  21.058  72.140  1.00  0.00     0.000 HD 
HETATM   34  C   UNL     1      -7.957  19.057  69.790  1.00  0.00     0.602 A  
ENDBRANCH  26  27
ENDBRANCH  23  25
ENDBRANCH  16  17
ENDBRANCH   6  16
ENDBRANCH   3   4
TORSDOF 5
ENDMDL
MODEL      161
REMARK 921   NORMALIZED FREE ENERGY PREDICTED BY IDOCK:    3.15 KCAL/MOL
REMARK 922        TOTAL FREE ENERGY PREDICTED BY IDOCK:    2.99 KCAL/MOL
REMARK 923 INTER-LIGAND FREE ENERGY PREDICTED BY IDOCK:   -4.11 KCAL/MOL
REMARK 924 INTRA-LIGAND FREE ENERGY PREDICTED BY IDOCK:    7.10 KCAL/MOL
REMARK 927      BINDING AFFINITY PREDICTED BY RF-SCORE:    0.00 PKD
ROOT
HETATM    1  O   UNL     1      -5.533   8.127  68.169  1.00  0.00    -0.032 OA 
HETATM    2  H   UNL     1      -5.639   7.695  69.008  1.00  0.00     0.000 HD 
HETATM    3  C   UNL     1      -6.781   8.549  67.631  1.00  0.00    -0.066 C  
ENDROOT
BRANCH   3   4
HETATM    4  C   UNL     1      -6.608   9.249  66.268  1.00  0.00    -0.070 C  
HETATM    5  O   UNL     1      -5.884   8.436  65.317  1.00  0.00    -0.044 OA 
HETATM    6  C   UNL     1      -6.619   7.316  64.781  1.00  0.00    -0.040 C  
HETATM    7  C   UNL     1      -7.913   7.828  64.086  1.00  0.00    -0.113 C  
HETATM    8  H   UNL     1      -9.940   8.383  66.560  1.00  0.00     0.000 HD 
HETATM    9  C   UNL     1      -8.764   8.691  65.025  1.00  0.00    -0.118 C  
HETATM   10  O   UNL     1      -7.618   8.607  62.907  1.00  0.00    -0.102 OA 
HETATM   11  H   UNL     1      -8.419  11.183  64.373  1.00  0.00     0.000 HD 
HETATM   12  C   UNL     1      -7.923   9.801  65.679  1.00  0.00    -0.117 C  
HETATM   13  H   UNL     1      -8.408   8.920  62.482  1.00  0.00     0.000 HD 
HETATM   14  O   UNL     1      -9.413   7.848  65.978  1.00  0.00    -0.131 OA 
HETATM   15  O   UNL     1      -7.609  10.843  64.735  1.00  0.00     0.152 OA 
BRANCH   6  16
HETATM   16  O   UNL     1      -6.827   6.355  65.817  1.00  0.00    -0.050 OA 
BRANCH  16  17
HETATM   17  C   UNL     1      -8.091   5.959  66.143  1.00  0.00    -0.109 A  
HETATM   18  C   UNL     1     -10.220   4.953  65.688  1.00  0.00    -0.127 A  
HETATM   19  C   UNL     1     -10.743   5.487  66.860  1.00  0.00    -0.310 A  
HETATM   20  O   UNL     1     -11.058   4.231  64.886  1.00  0.00    -0.701 OA 
HETATM   21  C   UNL     1      -8.894   5.162  65.332  1.00  0.00    -0.153 A  
HETATM   22  H   UNL     1     -11.964   4.088  65.129  1.00  0.00     0.000 HD 
HETATM   23  C   UNL     1      -9.943   6.257  67.712  1.00  0.00    -0.143 A  
HETATM   24  C   UNL     1      -8.619   6.514  67.324  1.00  0.00    -0.111 A  
BRANCH  23  25
HETATM   25  C   UNL     1     -10.569   6.776  68.945  1.00  0.00    -0.257 C  
HETATM   26  C   UNL     1     -11.593   6.222  69.616  1.00  0.00    -0.287 C  
BRANCH  26  27
HETATM   27  C   UNL     1     -12.304   6.897  70.726  1.00  0.00    -0.314 A  
HETATM   28  C   UNL     1     -13.696   7.060  70.634  1.00  0.00     0.778 A  
HETATM   29  C   UNL     1     -14.408   7.765  71.611  1.00  0.00    -0.607 A  
HETATM   30  C   UNL     1     -13.729   8.299  72.700  1.00  0.00     0.058 A  
HETATM   31  C   UNL     1     -12.362   8.107  72.842  1.00  0.00     0.085 A  
HETATM   32  O   UNL     1     -14.375   9.028  73.654  1.00  0.00    -0.876 OA 
HETATM   33  H   UNL     1     -13.912   9.393  74.399  1.00  0.00     0.000 HD 
HETATM   34  C   UNL     1     -11.652   7.404  71.862  1.00  0.00    -0.307 A  
ENDBRANCH  26  27
ENDBRANCH  23  25
ENDBRANCH  16  17
ENDBRANCH   6  16
ENDBRANCH   3   4
TORSDOF 5
ENDMDL
MODEL      162
REMARK 921   NORMALIZED FREE ENERGY PREDICTED BY IDOCK:    3.22 KCAL/MOL
REMARK 922        TOTAL FREE ENERGY PREDICTED BY IDOCK:    3.09 KCAL/MOL
REMARK 923 INTER-LIGAND FREE ENERGY PREDICTED BY IDOCK:   -2.42 KCAL/MOL
REMARK 924 INTRA-LIGAND FREE ENERGY PREDICTED BY IDOCK:    5.51 KCAL/MOL
REMARK 927      BINDING AFFINITY PREDICTED BY RF-SCORE:    0.00 PKD
ROOT
HETATM    1  O   UNL     1      -9.540  10.369  70.021  1.00  0.00    -0.403 OA 
HETATM    2  H   UNL     1      -9.084   9.537  70.086  1.00  0.00     0.000 HD 
HETATM    3  C   UNL     1      -9.881  10.679  68.675  1.00  0.00    -0.179 C  
ENDROOT
BRANCH   3   4
HETATM    4  C   UNL     1     -10.621  12.029  68.570  1.00  0.00    -0.231 C  
HETATM    5  O   UNL     1      -9.713  13.149  68.474  1.00  0.00    -0.211 OA 
HETATM    6  C   UNL     1      -9.037  13.287  67.207  1.00  0.00    -0.221 C  
HETATM    7  C   UNL     1     -10.089  13.424  66.069  1.00  0.00    -0.304 C  
HETATM    8  H   UNL     1     -11.078  10.373  65.572  1.00  0.00     0.000 HD 
HETATM    9  C   UNL     1     -11.093  12.264  66.075  1.00  0.00    -0.309 C  
HETATM   10  O   UNL     1     -10.831  14.658  66.169  1.00  0.00    -0.307 OA 
HETATM   11  H   UNL     1     -13.318  13.122  67.108  1.00  0.00     0.000 HD 
HETATM   12  C   UNL     1     -11.704  12.062  67.472  1.00  0.00    -0.280 C  
HETATM   13  H   UNL     1     -11.474  14.743  65.474  1.00  0.00     0.000 HD 
HETATM   14  O   UNL     1     -10.456  11.090  65.568  1.00  0.00    -0.262 OA 
HETATM   15  O   UNL     1     -12.651  13.102  67.784  1.00  0.00     0.135 OA 
BRANCH   6  16
HETATM   16  O   UNL     1      -8.113  12.209  67.051  1.00  0.00    -0.172 OA 
BRANCH  16  17
HETATM   17  C   UNL     1      -8.129  11.449  65.919  1.00  0.00     0.131 A  
HETATM   18  C   UNL     1      -8.584  11.045  63.599  1.00  0.00     0.118 A  
HETATM   19  C   UNL     1      -8.376   9.683  63.777  1.00  0.00    -0.173 A  
HETATM   20  O   UNL     1      -8.952  11.478  62.357  1.00  0.00    -0.431 OA 
HETATM   21  C   UNL     1      -8.441  11.938  64.654  1.00  0.00     1.346 A  
HETATM   22  H   UNL     1      -9.050  10.868  61.636  1.00  0.00     0.000 HD 
HETATM   23  C   UNL     1      -8.020   9.173  65.031  1.00  0.00    -0.120 A  
HETATM   24  C   UNL     1      -7.931  10.068  66.108  1.00  0.00    -0.113 A  
BRANCH  23  25
HETATM   25  C   UNL     1      -7.802   7.716  65.134  1.00  0.00    -0.124 C  
HETATM   26  C   UNL     1      -6.908   7.095  65.921  1.00  0.00    -0.057 C  
BRANCH  26  27
HETATM   27  C   UNL     1      -6.600   5.650  65.826  1.00  0.00    -0.041 A  
HETATM   28  C   UNL     1      -7.448   4.829  65.065  1.00  0.00    -0.076 A  
HETATM   29  C   UNL     1      -7.257   3.444  65.009  1.00  0.00    -0.067 A  
HETATM   30  C   UNL     1      -6.199   2.871  65.707  1.00  0.00    -0.024 A  
HETATM   31  C   UNL     1      -5.315   3.665  66.424  1.00  0.00    -0.013 A  
HETATM   32  O   UNL     1      -5.999   1.522  65.715  1.00  0.00    -0.017 OA 
HETATM   33  H   UNL     1      -5.276   1.130  66.191  1.00  0.00     0.000 HD 
HETATM   34  C   UNL     1      -5.511   5.050  66.480  1.00  0.00    -0.013 A  
ENDBRANCH  26  27
ENDBRANCH  23  25
ENDBRANCH  16  17
ENDBRANCH   6  16
ENDBRANCH   3   4
TORSDOF 5
ENDMDL
MODEL      163
REMARK 921   NORMALIZED FREE ENERGY PREDICTED BY IDOCK:    4.05 KCAL/MOL
REMARK 922        TOTAL FREE ENERGY PREDICTED BY IDOCK:    4.15 KCAL/MOL
REMARK 923 INTER-LIGAND FREE ENERGY PREDICTED BY IDOCK:    1.00 KCAL/MOL
REMARK 924 INTRA-LIGAND FREE ENERGY PREDICTED BY IDOCK:    3.15 KCAL/MOL
REMARK 927      BINDING AFFINITY PREDICTED BY RF-SCORE:    0.00 PKD
ROOT
HETATM    1  O   UNL     1     -10.928  17.441  66.716  1.00  0.00    -0.051 OA 
HETATM    2  H   UNL     1     -11.413  17.088  65.979  1.00  0.00     0.000 HD 
HETATM    3  C   UNL     1     -10.058  18.495  66.318  1.00  0.00    -0.398 C  
ENDROOT
BRANCH   3   4
HETATM    4  C   UNL     1      -9.271  19.068  67.514  1.00  0.00    -0.287 C  
HETATM    5  O   UNL     1      -9.753  18.570  68.782  1.00  0.00    -0.357 OA 
HETATM    6  C   UNL     1      -9.420  17.196  69.070  1.00  0.00    -0.162 C  
HETATM    7  C   UNL     1      -7.875  17.018  69.043  1.00  0.00    -0.163 C  
HETATM    8  H   UNL     1      -7.181  16.857  65.876  1.00  0.00     0.000 HD 
HETATM    9  C   UNL     1      -7.267  17.504  67.721  1.00  0.00    -0.177 C  
HETATM   10  O   UNL     1      -7.233  17.733  70.120  1.00  0.00     0.845 OA 
HETATM   11  H   UNL     1      -6.164  19.820  68.138  1.00  0.00     0.000 HD 
HETATM   12  C   UNL     1      -7.740  18.927  67.378  1.00  0.00    -0.231 C  
HETATM   13  H   UNL     1      -6.289  17.625  70.104  1.00  0.00     0.000 HD 
HETATM   14  O   UNL     1      -7.558  16.555  66.694  1.00  0.00    -0.230 OA 
HETATM   15  O   UNL     1      -7.106  19.907  68.222  1.00  0.00    -0.287 OA 
BRANCH   6  16
HETATM   16  O   UNL     1     -10.144  16.343  68.180  1.00  0.00    -0.239 OA 
BRANCH  16  17
HETATM   17  C   UNL     1      -9.696  15.082  67.922  1.00  0.00    -0.212 A  
HETATM   18  C   UNL     1      -8.750  13.372  66.531  1.00  0.00     0.105 A  
HETATM   19  C   UNL     1      -9.104  12.398  67.458  1.00  0.00    -0.185 A  
HETATM   20  O   UNL     1      -8.146  12.965  65.376  1.00  0.00     1.793 OA 
HETATM   21  C   UNL     1      -9.019  14.715  66.763  1.00  0.00    -0.283 A  
HETATM   22  H   UNL     1      -7.962  12.047  65.218  1.00  0.00     0.000 HD 
HETATM   23  C   UNL     1      -9.749  12.747  68.650  1.00  0.00    -0.050 A  
HETATM   24  C   UNL     1     -10.070  14.098  68.857  1.00  0.00    -0.155 A  
BRANCH  23  25
HETATM   25  C   UNL     1     -10.077  11.655  69.589  1.00  0.00     0.693 C  
HETATM   26  C   UNL     1     -11.231  10.970  69.644  1.00  0.00    -0.345 C  
BRANCH  26  27
HETATM   27  C   UNL     1     -11.571  10.030  70.737  1.00  0.00    -0.444 A  
HETATM   28  C   UNL     1     -12.602  10.374  71.626  1.00  0.00    -0.521 A  
HETATM   29  C   UNL     1     -12.909   9.567  72.727  1.00  0.00     0.132 A  
HETATM   30  C   UNL     1     -12.192   8.394  72.935  1.00  0.00     0.119 A  
HETATM   31  C   UNL     1     -11.205   8.003  72.043  1.00  0.00    -0.356 A  
HETATM   32  O   UNL     1     -12.430   7.597  74.017  1.00  0.00     2.742 OA 
HETATM   33  H   UNL     1     -11.940   6.796  74.160  1.00  0.00     0.000 HD 
HETATM   34  C   UNL     1     -10.898   8.814  70.944  1.00  0.00    -0.293 A  
ENDBRANCH  26  27
ENDBRANCH  23  25
ENDBRANCH  16  17
ENDBRANCH   6  16
ENDBRANCH   3   4
TORSDOF 5
ENDMDL
MODEL      164
REMARK 921   NORMALIZED FREE ENERGY PREDICTED BY IDOCK:    5.75 KCAL/MOL
REMARK 922        TOTAL FREE ENERGY PREDICTED BY IDOCK:    6.35 KCAL/MOL
REMARK 923 INTER-LIGAND FREE ENERGY PREDICTED BY IDOCK:   -1.94 KCAL/MOL
REMARK 924 INTRA-LIGAND FREE ENERGY PREDICTED BY IDOCK:    8.29 KCAL/MOL
REMARK 927      BINDING AFFINITY PREDICTED BY RF-SCORE:    0.00 PKD
ROOT
HETATM    1  O   UNL     1      -8.784   6.228  68.590  1.00  0.00    -0.120 OA 
HETATM    2  H   UNL     1      -8.803   7.171  68.476  1.00  0.00     0.000 HD 
HETATM    3  C   UNL     1      -7.476   5.700  68.399  1.00  0.00    -0.077 C  
ENDROOT
BRANCH   3   4
HETATM    4  C   UNL     1      -7.445   4.169  68.584  1.00  0.00    -0.055 C  
HETATM    5  O   UNL     1      -6.421   3.746  69.512  1.00  0.00    -0.031 OA 
HETATM    6  C   UNL     1      -6.695   4.026  70.900  1.00  0.00    -0.032 C  
HETATM    7  C   UNL     1      -8.029   3.343  71.315  1.00  0.00    -0.059 C  
HETATM    8  H   UNL     1     -10.305   5.332  70.133  1.00  0.00     0.000 HD 
HETATM    9  C   UNL     1      -9.189   3.746  70.396  1.00  0.00    -0.143 C  
HETATM   10  O   UNL     1      -7.924   1.903  71.296  1.00  0.00    -0.039 OA 
HETATM   11  H   UNL     1      -9.651   1.779  68.761  1.00  0.00     0.000 HD 
HETATM   12  C   UNL     1      -8.820   3.554  68.915  1.00  0.00    -0.110 C  
HETATM   13  H   UNL     1      -8.739   1.485  71.550  1.00  0.00     0.000 HD 
HETATM   14  O   UNL     1      -9.587   5.083  70.703  1.00  0.00    -0.161 OA 
HETATM   15  O   UNL     1      -8.803   2.158  68.557  1.00  0.00    -0.080 OA 
BRANCH   6  16
HETATM   16  O   UNL     1      -6.646   5.439  71.110  1.00  0.00    -0.040 OA 
BRANCH  16  17
HETATM   17  C   UNL     1      -7.733   6.097  71.605  1.00  0.00    -0.101 A  
HETATM   18  C   UNL     1      -9.632   6.342  73.050  1.00  0.00    -0.153 A  
HETATM   19  C   UNL     1     -10.088   7.418  72.298  1.00  0.00    -0.234 A  
HETATM   20  O   UNL     1     -10.396   5.932  74.106  1.00  0.00    -0.262 OA 
HETATM   21  C   UNL     1      -8.448   5.690  72.728  1.00  0.00    -0.120 A  
HETATM   22  H   UNL     1     -11.205   6.377  74.326  1.00  0.00     0.000 HD 
HETATM   23  C   UNL     1      -9.364   7.871  71.189  1.00  0.00    -0.171 A  
HETATM   24  C   UNL     1      -8.198   7.177  70.832  1.00  0.00    -0.116 A  
BRANCH  23  25
HETATM   25  C   UNL     1      -9.907   9.030  70.452  1.00  0.00    -0.242 C  
HETATM   26  C   UNL     1     -10.752   8.989  69.408  1.00  0.00    -0.202 C  
BRANCH  26  27
HETATM   27  C   UNL     1     -11.097  10.173  68.588  1.00  0.00    -0.254 A  
HETATM   28  C   UNL     1     -12.280  10.872  68.879  1.00  0.00    -0.040 A  
HETATM   29  C   UNL     1     -12.699  11.946  68.085  1.00  0.00     2.014 A  
HETATM   30  C   UNL     1     -11.924  12.337  67.000  1.00  0.00    -0.143 A  
HETATM   31  C   UNL     1     -10.725  11.697  66.722  1.00  0.00    -0.299 A  
HETATM   32  O   UNL     1     -12.316  13.351  66.175  1.00  0.00    -0.415 OA 
HETATM   33  H   UNL     1     -11.786  13.619  65.433  1.00  0.00     0.000 HD 
HETATM   34  C   UNL     1     -10.309  10.622  67.516  1.00  0.00    -0.254 A  
ENDBRANCH  26  27
ENDBRANCH  23  25
ENDBRANCH  16  17
ENDBRANCH   6  16
ENDBRANCH   3   4
TORSDOF 5
ENDMDL
MODEL      165
REMARK 921   NORMALIZED FREE ENERGY PREDICTED BY IDOCK:    5.90 KCAL/MOL
REMARK 922        TOTAL FREE ENERGY PREDICTED BY IDOCK:    6.55 KCAL/MOL
REMARK 923 INTER-LIGAND FREE ENERGY PREDICTED BY IDOCK:    4.02 KCAL/MOL
REMARK 924 INTRA-LIGAND FREE ENERGY PREDICTED BY IDOCK:    2.52 KCAL/MOL
REMARK 927      BINDING AFFINITY PREDICTED BY RF-SCORE:    0.00 PKD
ROOT
HETATM    1  O   UNL     1      -6.680  17.871  68.631  1.00  0.00    -0.219 OA 
HETATM    2  H   UNL     1      -5.779  17.884  68.331  1.00  0.00     0.000 HD 
HETATM    3  C   UNL     1      -7.564  18.445  67.674  1.00  0.00    -0.229 C  
ENDROOT
BRANCH   3   4
HETATM    4  C   UNL     1      -9.026  18.424  68.162  1.00  0.00    -0.309 C  
HETATM    5  O   UNL     1      -9.878  17.618  67.317  1.00  0.00    -0.285 OA 
HETATM    6  C   UNL     1      -9.693  16.192  67.439  1.00  0.00    -0.233 C  
HETATM    7  C   UNL     1      -9.935  15.760  68.914  1.00  0.00    -0.223 C  
HETATM    8  H   UNL     1      -7.168  16.569  70.408  1.00  0.00     0.000 HD 
HETATM    9  C   UNL     1      -9.057  16.551  69.892  1.00  0.00     0.876 C  
HETATM   10  O   UNL     1     -11.312  15.937  69.307  1.00  0.00    -0.308 OA 
HETATM   11  H   UNL     1     -10.540  18.347  71.045  1.00  0.00     0.000 HD 
HETATM   12  C   UNL     1      -9.180  18.066  69.655  1.00  0.00     0.828 C  
HETATM   13  H   UNL     1     -11.460  15.673  70.208  1.00  0.00     0.000 HD 
HETATM   14  O   UNL     1      -7.712  16.079  69.802  1.00  0.00    -0.053 OA 
HETATM   15  O   UNL     1     -10.446  18.567  70.125  1.00  0.00     0.826 OA 
BRANCH   6  16
HETATM   16  O   UNL     1      -8.416  15.839  66.906  1.00  0.00    -0.200 OA 
BRANCH  16  17
HETATM   17  C   UNL     1      -7.804  14.685  67.295  1.00  0.00    -0.186 A  
HETATM   18  C   UNL     1      -6.223  12.896  67.061  1.00  0.00     0.418 A  
HETATM   19  C   UNL     1      -6.865  12.174  68.060  1.00  0.00    -0.081 A  
HETATM   20  O   UNL     1      -5.151  12.318  66.443  1.00  0.00    -0.376 OA 
HETATM   21  C   UNL     1      -6.669  14.158  66.687  1.00  0.00     2.223 A  
HETATM   22  H   UNL     1      -4.847  11.455  66.698  1.00  0.00     0.000 HD 
HETATM   23  C   UNL     1      -7.984  12.701  68.715  1.00  0.00     0.068 A  
HETATM   24  C   UNL     1      -8.466  13.952  68.298  1.00  0.00    -0.169 A  
BRANCH  23  25
HETATM   25  C   UNL     1      -8.599  11.878  69.775  1.00  0.00     1.908 C  
HETATM   26  C   UNL     1      -8.247  10.629  70.123  1.00  0.00     0.736 C  
BRANCH  26  27
HETATM   27  C   UNL     1      -9.034   9.787  71.053  1.00  0.00     0.539 A  
HETATM   28  C   UNL     1      -8.367   8.800  71.797  1.00  0.00    -0.161 A  
HETATM   29  C   UNL     1      -9.070   7.920  72.627  1.00  0.00    -0.256 A  
HETATM   30  C   UNL     1     -10.452   8.034  72.729  1.00  0.00    -0.345 A  
HETATM   31  C   UNL     1     -11.130   9.033  72.047  1.00  0.00    -0.371 A  
HETATM   32  O   UNL     1     -11.183   7.172  73.493  1.00  0.00    -0.561 OA 
HETATM   33  H   UNL     1     -12.127   7.249  73.564  1.00  0.00     0.000 HD 
HETATM   34  C   UNL     1     -10.424   9.911  71.215  1.00  0.00     0.168 A  
ENDBRANCH  26  27
ENDBRANCH  23  25
ENDBRANCH  16  17
ENDBRANCH   6  16
ENDBRANCH   3   4
TORSDOF 5
ENDMDL
MODEL      166
REMARK 921   NORMALIZED FREE ENERGY PREDICTED BY IDOCK:    6.21 KCAL/MOL
REMARK 922        TOTAL FREE ENERGY PREDICTED BY IDOCK:    6.95 KCAL/MOL
REMARK 923 INTER-LIGAND FREE ENERGY PREDICTED BY IDOCK:    2.74 KCAL/MOL
REMARK 924 INTRA-LIGAND FREE ENERGY PREDICTED BY IDOCK:    4.21 KCAL/MOL
REMARK 927      BINDING AFFINITY PREDICTED BY RF-SCORE:    0.00 PKD
ROOT
HETATM    1  O   UNL     1      -6.790   9.302  73.949  1.00  0.00    -0.254 OA 
HETATM    2  H   UNL     1      -6.328  10.016  73.526  1.00  0.00     0.000 HD 
HETATM    3  C   UNL     1      -7.974   8.947  73.243  1.00  0.00     0.548 C  
ENDROOT
BRANCH   3   4
HETATM    4  C   UNL     1      -8.724   7.789  73.931  1.00  0.00    -0.267 C  
HETATM    5  O   UNL     1     -10.030   8.184  74.408  1.00  0.00     1.387 OA 
HETATM    6  C   UNL     1     -11.027   8.377  73.384  1.00  0.00     1.149 C  
HETATM    7  C   UNL     1     -11.193   7.065  72.565  1.00  0.00    -0.275 C  
HETATM    8  H   UNL     1      -8.651   7.098  70.546  1.00  0.00     0.000 HD 
HETATM    9  C   UNL     1      -9.857   6.572  71.997  1.00  0.00    -0.158 C  
HETATM   10  O   UNL     1     -11.759   6.003  73.362  1.00  0.00    -0.311 OA 
HETATM   11  H   UNL     1      -9.039   4.582  73.455  1.00  0.00     0.000 HD 
HETATM   12  C   UNL     1      -8.778   6.496  73.091  1.00  0.00    -0.121 C  
HETATM   13  H   UNL     1     -11.861   5.201  72.862  1.00  0.00     0.000 HD 
HETATM   14  O   UNL     1      -9.479   7.403  70.898  1.00  0.00    -0.165 OA 
HETATM   15  O   UNL     1      -9.006   5.379  73.972  1.00  0.00    -0.120 OA 
BRANCH   6  16
HETATM   16  O   UNL     1     -10.688   9.533  72.614  1.00  0.00     1.181 OA 
BRANCH  16  17
HETATM   17  C   UNL     1     -10.862   9.532  71.262  1.00  0.00    -0.343 A  
HETATM   18  C   UNL     1     -11.458   8.532  69.165  1.00  0.00     0.713 A  
HETATM   19  C   UNL     1     -10.876   9.590  68.475  1.00  0.00    -0.175 A  
HETATM   20  O   UNL     1     -11.994   7.511  68.433  1.00  0.00     1.024 OA 
HETATM   21  C   UNL     1     -11.477   8.504  70.554  1.00  0.00    -0.198 A  
HETATM   22  H   UNL     1     -11.981   7.529  67.484  1.00  0.00     0.000 HD 
HETATM   23  C   UNL     1     -10.288  10.655  69.166  1.00  0.00    -0.242 A  
HETATM   24  C   UNL     1     -10.259  10.598  70.568  1.00  0.00     0.776 A  
BRANCH  23  25
HETATM   25  C   UNL     1      -9.705  11.747  68.360  1.00  0.00    -0.197 C  
HETATM   26  C   UNL     1      -9.635  13.044  68.704  1.00  0.00    -0.029 C  
BRANCH  26  27
HETATM   27  C   UNL     1      -9.224  14.115  67.768  1.00  0.00    -0.193 A  
HETATM   28  C   UNL     1      -7.857  14.406  67.634  1.00  0.00    -0.194 A  
HETATM   29  C   UNL     1      -7.416  15.463  66.830  1.00  0.00    -0.054 A  
HETATM   30  C   UNL     1      -8.347  16.231  66.140  1.00  0.00    -0.225 A  
HETATM   31  C   UNL     1      -9.700  15.933  66.213  1.00  0.00    -0.332 A  
HETATM   32  O   UNL     1      -7.967  17.297  65.379  1.00  0.00     0.062 OA 
HETATM   33  H   UNL     1      -8.603  17.821  64.906  1.00  0.00     0.000 HD 
HETATM   34  C   UNL     1     -10.138  14.876  67.020  1.00  0.00    -0.244 A  
ENDBRANCH  26  27
ENDBRANCH  23  25
ENDBRANCH  16  17
ENDBRANCH   6  16
ENDBRANCH   3   4
TORSDOF 5
ENDMDL
MODEL      167
REMARK 921   NORMALIZED FREE ENERGY PREDICTED BY IDOCK:    6.44 KCAL/MOL
REMARK 922        TOTAL FREE ENERGY PREDICTED BY IDOCK:    7.24 KCAL/MOL
REMARK 923 INTER-LIGAND FREE ENERGY PREDICTED BY IDOCK:    0.35 KCAL/MOL
REMARK 924 INTRA-LIGAND FREE ENERGY PREDICTED BY IDOCK:    6.89 KCAL/MOL
REMARK 927      BINDING AFFINITY PREDICTED BY RF-SCORE:    0.00 PKD
ROOT
HETATM    1  O   UNL     1     -10.389  10.405  66.851  1.00  0.00    -0.221 OA 
HETATM    2  H   UNL     1     -10.352   9.642  67.416  1.00  0.00     0.000 HD 
HETATM    3  C   UNL     1      -9.728  11.524  67.433  1.00  0.00    -0.179 C  
ENDROOT
BRANCH   3   4
HETATM    4  C   UNL     1      -9.788  12.762  66.516  1.00  0.00    -0.258 C  
HETATM    5  O   UNL     1      -8.623  12.879  65.669  1.00  0.00     0.861 OA 
HETATM    6  C   UNL     1      -8.555  11.932  64.583  1.00  0.00     1.154 C  
HETATM    7  C   UNL     1      -9.816  12.079  63.684  1.00  0.00    -0.284 C  
HETATM    8  H   UNL     1     -12.120  10.501  65.339  1.00  0.00     0.000 HD 
HETATM    9  C   UNL     1     -11.113  11.951  64.493  1.00  0.00    -0.325 C  
HETATM   10  O   UNL     1      -9.842  13.349  62.998  1.00  0.00     1.597 OA 
HETATM   11  H   UNL     1     -12.096  14.332  64.836  1.00  0.00     0.000 HD 
HETATM   12  C   UNL     1     -11.103  12.883  65.717  1.00  0.00    -0.284 C  
HETATM   13  H   UNL     1     -10.612  13.439  62.449  1.00  0.00     0.000 HD 
HETATM   14  O   UNL     1     -11.317  10.580  64.838  1.00  0.00     0.628 OA 
HETATM   15  O   UNL     1     -11.286  14.258  65.328  1.00  0.00    -0.313 OA 
BRANCH   6  16
HETATM   16  O   UNL     1      -8.340  10.624  65.116  1.00  0.00    -0.168 OA 
BRANCH  16  17
HETATM   17  C   UNL     1      -7.821  10.469  66.367  1.00  0.00    -0.138 A  
HETATM   18  C   UNL     1      -6.212  10.874  68.099  1.00  0.00    -0.049 A  
HETATM   19  C   UNL     1      -6.721   9.817  68.844  1.00  0.00    -0.050 A  
HETATM   20  O   UNL     1      -5.136  11.550  68.602  1.00  0.00    -0.044 OA 
HETATM   21  C   UNL     1      -6.767  11.223  66.874  1.00  0.00    -0.135 A  
HETATM   22  H   UNL     1      -4.757  11.311  69.439  1.00  0.00     0.000 HD 
HETATM   23  C   UNL     1      -7.807   9.070  68.373  1.00  0.00    -0.103 A  
HETATM   24  C   UNL     1      -8.330   9.388  67.110  1.00  0.00    -0.124 A  
BRANCH  23  25
HETATM   25  C   UNL     1      -8.298   7.972  69.230  1.00  0.00    -0.134 C  
HETATM   26  C   UNL     1      -7.586   6.919  69.667  1.00  0.00    -0.101 C  
BRANCH  26  27
HETATM   27  C   UNL     1      -8.189   5.753  70.352  1.00  0.00    -0.107 A  
HETATM   28  C   UNL     1      -9.504   5.386  70.027  1.00  0.00    -0.212 A  
HETATM   29  C   UNL     1     -10.155   4.347  70.702  1.00  0.00    -0.191 A  
HETATM   30  C   UNL     1      -9.481   3.655  71.702  1.00  0.00    -0.145 A  
HETATM   31  C   UNL     1      -8.163   3.962  72.007  1.00  0.00    -0.084 A  
HETATM   32  O   UNL     1     -10.089   2.664  72.415  1.00  0.00    -0.155 OA 
HETATM   33  H   UNL     1      -9.629   2.190  73.098  1.00  0.00     0.000 HD 
HETATM   34  C   UNL     1      -7.516   5.004  71.332  1.00  0.00    -0.086 A  
ENDBRANCH  26  27
ENDBRANCH  23  25
ENDBRANCH  16  17
ENDBRANCH   6  16
ENDBRANCH   3   4
TORSDOF 5
ENDMDL
MODEL      168
REMARK 921   NORMALIZED FREE ENERGY PREDICTED BY IDOCK:    7.39 KCAL/MOL
REMARK 922        TOTAL FREE ENERGY PREDICTED BY IDOCK:    8.46 KCAL/MOL
REMARK 923 INTER-LIGAND FREE ENERGY PREDICTED BY IDOCK:   -3.98 KCAL/MOL
REMARK 924 INTRA-LIGAND FREE ENERGY PREDICTED BY IDOCK:   12.45 KCAL/MOL
REMARK 927      BINDING AFFINITY PREDICTED BY RF-SCORE:    0.00 PKD
ROOT
HETATM    1  O   UNL     1     -10.468  12.065  65.342  1.00  0.00    -0.255 OA 
HETATM    2  H   UNL     1     -11.181  11.458  65.182  1.00  0.00     0.000 HD 
HETATM    3  C   UNL     1     -10.557  12.655  66.634  1.00  0.00    -0.248 C  
ENDROOT
BRANCH   3   4
HETATM    4  C   UNL     1      -9.400  13.641  66.892  1.00  0.00    -0.257 C  
HETATM    5  O   UNL     1      -9.843  15.016  66.922  1.00  0.00    -0.230 OA 
HETATM    6  C   UNL     1     -10.587  15.398  68.097  1.00  0.00    -0.263 C  
HETATM    7  C   UNL     1      -9.721  15.147  69.365  1.00  0.00    -0.202 C  
HETATM    8  H   UNL     1      -9.984  11.948  69.847  1.00  0.00     0.000 HD 
HETATM    9  C   UNL     1      -9.216  13.701  69.436  1.00  0.00     0.876 C  
HETATM   10  O   UNL     1      -8.575  16.024  69.416  1.00  0.00    -0.247 OA 
HETATM   11  H   UNL     1      -6.713  13.680  68.734  1.00  0.00     0.000 HD 
HETATM   12  C   UNL     1      -8.537  13.281  68.120  1.00  0.00    -0.177 C  
HETATM   13  H   UNL     1      -8.046  15.871  70.190  1.00  0.00     0.000 HD 
HETATM   14  O   UNL     1     -10.297  12.843  69.803  1.00  0.00     0.710 OA 
HETATM   15  O   UNL     1      -7.245  13.902  67.978  1.00  0.00    -0.108 OA 
BRANCH   6  16
HETATM   16  O   UNL     1     -11.852  14.734  68.086  1.00  0.00    -0.326 OA 
BRANCH  16  17
HETATM   17  C   UNL     1     -12.181  13.867  69.085  1.00  0.00    -0.267 A  
HETATM   18  C   UNL     1     -13.093  13.292  71.228  1.00  0.00    -0.218 A  
HETATM   19  C   UNL     1     -12.514  12.031  71.156  1.00  0.00    -0.353 A  
HETATM   20  O   UNL     1     -13.790  13.612  72.359  1.00  0.00    -0.543 OA 
HETATM   21  C   UNL     1     -12.954  14.207  70.192  1.00  0.00     0.039 A  
HETATM   22  H   UNL     1     -13.885  12.987  73.067  1.00  0.00     0.000 HD 
HETATM   23  C   UNL     1     -11.767  11.651  70.035  1.00  0.00    -0.402 A  
HETATM   24  C   UNL     1     -11.580  12.596  69.014  1.00  0.00    -0.367 A  
BRANCH  23  25
HETATM   25  C   UNL     1     -11.198  10.289  70.029  1.00  0.00    -0.376 C  
HETATM   26  C   UNL     1     -11.677   9.225  69.363  1.00  0.00     0.529 C  
BRANCH  26  27
HETATM   27  C   UNL     1     -11.179   7.844  69.561  1.00  0.00     0.123 A  
HETATM   28  C   UNL     1     -10.851   7.426  70.860  1.00  0.00    -0.255 A  
HETATM   29  C   UNL     1     -10.296   6.164  71.097  1.00  0.00    -0.257 A  
HETATM   30  C   UNL     1     -10.080   5.301  70.028  1.00  0.00    -0.266 A  
HETATM   31  C   UNL     1     -10.444   5.669  68.740  1.00  0.00    -0.289 A  
HETATM   32  O   UNL     1      -9.503   4.078  70.205  1.00  0.00    -0.150 OA 
HETATM   33  H   UNL     1      -9.356   3.488  69.475  1.00  0.00     0.000 HD 
HETATM   34  C   UNL     1     -10.997   6.933  68.507  1.00  0.00    -0.198 A  
ENDBRANCH  26  27
ENDBRANCH  23  25
ENDBRANCH  16  17
ENDBRANCH   6  16
ENDBRANCH   3   4
TORSDOF 5
ENDMDL
MODEL      169
REMARK 921   NORMALIZED FREE ENERGY PREDICTED BY IDOCK:    8.30 KCAL/MOL
REMARK 922        TOTAL FREE ENERGY PREDICTED BY IDOCK:    9.65 KCAL/MOL
REMARK 923 INTER-LIGAND FREE ENERGY PREDICTED BY IDOCK:    7.47 KCAL/MOL
REMARK 924 INTRA-LIGAND FREE ENERGY PREDICTED BY IDOCK:    2.18 KCAL/MOL
REMARK 927      BINDING AFFINITY PREDICTED BY RF-SCORE:    0.00 PKD
ROOT
HETATM    1  O   UNL     1     -10.450  19.407  67.318  1.00  0.00    -0.406 OA 
HETATM    2  H   UNL     1     -10.872  18.683  67.765  1.00  0.00     0.000 HD 
HETATM    3  C   UNL     1      -9.167  19.043  66.820  1.00  0.00    -0.319 C  
ENDROOT
BRANCH   3   4
HETATM    4  C   UNL     1      -8.482  20.218  66.094  1.00  0.00    -0.086 C  
HETATM    5  O   UNL     1      -7.580  20.948  66.955  1.00  0.00    -0.240 OA 
HETATM    6  C   UNL     1      -6.346  20.270  67.270  1.00  0.00    -0.205 C  
HETATM    7  C   UNL     1      -5.586  19.934  65.955  1.00  0.00    -0.169 C  
HETATM    8  H   UNL     1      -7.121  17.301  64.838  1.00  0.00     0.000 HD 
HETATM    9  C   UNL     1      -6.459  19.138  64.977  1.00  0.00    -0.206 C  
HETATM   10  O   UNL     1      -5.130  21.125  65.279  1.00  0.00    -0.194 OA 
HETATM   11  H   UNL     1      -7.278  20.758  63.116  1.00  0.00     0.000 HD 
HETATM   12  C   UNL     1      -7.820  19.823  64.757  1.00  0.00     1.555 C  
HETATM   13  H   UNL     1      -4.666  20.921  64.475  1.00  0.00     0.000 HD 
HETATM   14  O   UNL     1      -6.580  17.793  65.443  1.00  0.00    -0.242 OA 
HETATM   15  O   UNL     1      -7.685  21.001  63.939  1.00  0.00     0.797 OA 
BRANCH   6  16
HETATM   16  O   UNL     1      -6.631  19.148  68.108  1.00  0.00    -0.223 OA 
BRANCH  16  17
HETATM   17  C   UNL     1      -7.653  19.206  69.009  1.00  0.00    -0.302 A  
HETATM   18  C   UNL     1      -8.870  20.183  70.830  1.00  0.00     1.962 A  
HETATM   19  C   UNL     1      -9.622  19.023  70.973  1.00  0.00     3.192 A  
HETATM   20  O   UNL     1      -9.099  21.205  71.707  1.00  0.00     0.540 OA 
HETATM   21  C   UNL     1      -7.902  20.294  69.840  1.00  0.00     0.867 A  
HETATM   22  H   UNL     1      -9.761  21.129  72.384  1.00  0.00     0.000 HD 
HETATM   23  C   UNL     1      -9.418  17.931  70.122  1.00  0.00     1.952 A  
HETATM   24  C   UNL     1      -8.402  18.024  69.159  1.00  0.00     0.101 A  
BRANCH  23  25
HETATM   25  C   UNL     1     -10.269  16.741  70.330  1.00  0.00     0.668 C  
HETATM   26  C   UNL     1     -11.478  16.715  70.914  1.00  0.00     0.135 C  
BRANCH  26  27
HETATM   27  C   UNL     1     -12.186  15.465  71.273  1.00  0.00    -0.430 A  
HETATM   28  C   UNL     1     -12.117  15.008  72.599  1.00  0.00    -0.435 A  
HETATM   29  C   UNL     1     -12.694  13.790  72.976  1.00  0.00     0.089 A  
HETATM   30  C   UNL     1     -13.361  13.026  72.025  1.00  0.00    -0.492 A  
HETATM   31  C   UNL     1     -13.489  13.479  70.720  1.00  0.00     0.260 A  
HETATM   32  O   UNL     1     -13.902  11.814  72.339  1.00  0.00    -0.382 OA 
HETATM   33  H   UNL     1     -14.357  11.291  71.689  1.00  0.00     0.000 HD 
HETATM   34  C   UNL     1     -12.908  14.696  70.345  1.00  0.00    -0.321 A  
ENDBRANCH  26  27
ENDBRANCH  23  25
ENDBRANCH  16  17
ENDBRANCH   6  16
ENDBRANCH   3   4
TORSDOF 5
ENDMDL
MODEL      170
REMARK 921   NORMALIZED FREE ENERGY PREDICTED BY IDOCK:    8.71 KCAL/MOL
REMARK 922        TOTAL FREE ENERGY PREDICTED BY IDOCK:   10.18 KCAL/MOL
REMARK 923 INTER-LIGAND FREE ENERGY PREDICTED BY IDOCK:    0.84 KCAL/MOL
REMARK 924 INTRA-LIGAND FREE ENERGY PREDICTED BY IDOCK:    9.34 KCAL/MOL
REMARK 927      BINDING AFFINITY PREDICTED BY RF-SCORE:    0.00 PKD
ROOT
HETATM    1  O   UNL     1      -6.892   4.274  68.417  1.00  0.00    -0.046 OA 
HETATM    2  H   UNL     1      -6.704   4.881  69.124  1.00  0.00     0.000 HD 
HETATM    3  C   UNL     1      -5.704   3.846  67.760  1.00  0.00    -0.022 C  
ENDROOT
BRANCH   3   4
HETATM    4  C   UNL     1      -6.009   2.861  66.613  1.00  0.00    -0.024 C  
HETATM    5  O   UNL     1      -7.267   2.175  66.795  1.00  0.00    -0.054 OA 
HETATM    6  C   UNL     1      -8.444   2.980  66.575  1.00  0.00    -0.106 C  
HETATM    7  C   UNL     1      -8.417   3.555  65.130  1.00  0.00    -0.102 C  
HETATM    8  H   UNL     1      -6.357   6.055  65.343  1.00  0.00     0.000 HD 
HETATM    9  C   UNL     1      -7.120   4.323  64.844  1.00  0.00    -0.059 C  
HETATM   10  O   UNL     1      -8.551   2.518  64.135  1.00  0.00    -0.085 OA 
HETATM   11  H   UNL     1      -5.589   2.814  63.384  1.00  0.00     0.000 HD 
HETATM   12  C   UNL     1      -5.883   3.484  65.207  1.00  0.00    -0.022 C  
HETATM   13  H   UNL     1      -8.535   2.870  63.252  1.00  0.00     0.000 HD 
HETATM   14  O   UNL     1      -7.161   5.581  65.521  1.00  0.00    -0.064 OA 
HETATM   15  O   UNL     1      -5.667   2.430  64.250  1.00  0.00    -0.009 OA 
BRANCH   6  16
HETATM   16  O   UNL     1      -8.545   3.955  67.614  1.00  0.00    -0.097 OA 
BRANCH  16  17
HETATM   17  C   UNL     1      -8.785   5.262  67.308  1.00  0.00    -0.107 A  
HETATM   18  C   UNL     1      -9.410   7.054  65.842  1.00  0.00     0.121 A  
HETATM   19  C   UNL     1      -8.940   7.990  66.756  1.00  0.00    -0.169 A  
HETATM   20  O   UNL     1      -9.907   7.514  64.655  1.00  0.00     1.876 OA 
HETATM   21  C   UNL     1      -9.359   5.693  66.116  1.00  0.00    -0.167 A  
HETATM   22  H   UNL     1      -9.942   8.444  64.467  1.00  0.00     0.000 HD 
HETATM   23  C   UNL     1      -8.396   7.582  67.979  1.00  0.00    -0.124 A  
HETATM   24  C   UNL     1      -8.294   6.205  68.231  1.00  0.00    -0.114 A  
BRANCH  23  25
HETATM   25  C   UNL     1      -7.934   8.638  68.901  1.00  0.00    -0.113 C  
HETATM   26  C   UNL     1      -6.853   9.420  68.743  1.00  0.00    -0.053 C  
BRANCH  26  27
HETATM   27  C   UNL     1      -6.332  10.317  69.800  1.00  0.00    -0.071 A  
HETATM   28  C   UNL     1      -6.126   9.794  71.087  1.00  0.00    -0.038 A  
HETATM   29  C   UNL     1      -5.717  10.614  72.145  1.00  0.00     0.675 A  
HETATM   30  C   UNL     1      -5.495  11.967  71.915  1.00  0.00     0.481 A  
HETATM   31  C   UNL     1      -5.640  12.499  70.642  1.00  0.00    -0.175 A  
HETATM   32  O   UNL     1      -5.136  12.810  72.925  1.00  0.00    -0.373 OA 
HETATM   33  H   UNL     1      -4.984  13.735  72.768  1.00  0.00     0.000 HD 
HETATM   34  C   UNL     1      -6.051  11.677  69.586  1.00  0.00    -0.117 A  
ENDBRANCH  26  27
ENDBRANCH  23  25
ENDBRANCH  16  17
ENDBRANCH   6  16
ENDBRANCH   3   4
TORSDOF 5
ENDMDL
MODEL      171
REMARK 921   NORMALIZED FREE ENERGY PREDICTED BY IDOCK:   12.71 KCAL/MOL
REMARK 922        TOTAL FREE ENERGY PREDICTED BY IDOCK:   15.35 KCAL/MOL
REMARK 923 INTER-LIGAND FREE ENERGY PREDICTED BY IDOCK:    1.85 KCAL/MOL
REMARK 924 INTRA-LIGAND FREE ENERGY PREDICTED BY IDOCK:   13.50 KCAL/MOL
REMARK 927      BINDING AFFINITY PREDICTED BY RF-SCORE:    0.00 PKD
ROOT
HETATM    1  O   UNL     1      -7.162  12.006  66.058  1.00  0.00     0.018 OA 
HETATM    2  H   UNL     1      -7.293  12.577  66.806  1.00  0.00     0.000 HD 
HETATM    3  C   UNL     1      -8.387  11.716  65.395  1.00  0.00     0.564 C  
ENDROOT
BRANCH   3   4
HETATM    4  C   UNL     1      -8.174  10.788  64.181  1.00  0.00     0.116 C  
HETATM    5  O   UNL     1      -6.833  10.252  64.125  1.00  0.00    -0.123 OA 
HETATM    6  C   UNL     1      -6.536   9.235  65.104  1.00  0.00    -0.074 C  
HETATM    7  C   UNL     1      -7.532   8.051  64.942  1.00  0.00    -0.089 C  
HETATM    8  H   UNL     1     -10.229   9.118  66.401  1.00  0.00     0.000 HD 
HETATM    9  C   UNL     1      -8.992   8.518  65.007  1.00  0.00     0.050 C  
HETATM   10  O   UNL     1      -7.341   7.354  63.693  1.00  0.00    -0.079 OA 
HETATM   11  H   UNL     1      -9.938   8.562  62.587  1.00  0.00     0.000 HD 
HETATM   12  C   UNL     1      -9.247   9.688  64.041  1.00  0.00    -0.148 C  
HETATM   13  H   UNL     1      -7.949   6.631  63.593  1.00  0.00     0.000 HD 
HETATM   14  O   UNL     1      -9.325   8.829  66.361  1.00  0.00    -0.171 OA 
HETATM   15  O   UNL     1      -9.277   9.239  62.673  1.00  0.00    -0.171 OA 
BRANCH   6  16
HETATM   16  O   UNL     1      -6.508   9.830  66.403  1.00  0.00    -0.068 OA 
BRANCH  16  17
HETATM   17  C   UNL     1      -7.599   9.754  67.217  1.00  0.00    -0.088 A  
HETATM   18  C   UNL     1      -9.443  10.674  68.443  1.00  0.00    -0.165 A  
HETATM   19  C   UNL     1      -9.613   9.474  69.123  1.00  0.00    -0.170 A  
HETATM   20  O   UNL     1     -10.264  11.716  68.771  1.00  0.00    -0.229 OA 
HETATM   21  C   UNL     1      -8.457  10.818  67.474  1.00  0.00    -0.119 A  
HETATM   22  H   UNL     1     -10.937  11.618  69.433  1.00  0.00     0.000 HD 
HETATM   23  C   UNL     1      -8.788   8.377  68.851  1.00  0.00    -0.143 A  
HETATM   24  C   UNL     1      -7.758   8.541  67.913  1.00  0.00    -0.103 A  
BRANCH  23  25
HETATM   25  C   UNL     1      -9.043   7.133  69.606  1.00  0.00    -0.140 C  
HETATM   26  C   UNL     1     -10.099   6.315  69.464  1.00  0.00    -0.217 C  
BRANCH  26  27
HETATM   27  C   UNL     1     -10.397   5.197  70.389  1.00  0.00    -0.326 A  
HETATM   28  C   UNL     1      -9.522   4.099  70.424  1.00  0.00    -0.247 A  
HETATM   29  C   UNL     1      -9.798   2.978  71.214  1.00  0.00    -0.145 A  
HETATM   30  C   UNL     1     -10.950   2.957  71.992  1.00  0.00     1.023 A  
HETATM   31  C   UNL     1     -11.804   4.050  72.017  1.00  0.00     2.432 A  
HETATM   32  O   UNL     1     -11.280   1.869  72.746  1.00  0.00    -0.082 OA 
HETATM   33  H   UNL     1     -12.067   1.854  73.277  1.00  0.00     0.000 HD 
HETATM   34  C   UNL     1     -11.527   5.169  71.223  1.00  0.00     0.746 A  
ENDBRANCH  26  27
ENDBRANCH  23  25
ENDBRANCH  16  17
ENDBRANCH   6  16
ENDBRANCH   3   4
TORSDOF 5
ENDMDL
MODEL      172
REMARK 921   NORMALIZED FREE ENERGY PREDICTED BY IDOCK:   14.76 KCAL/MOL
REMARK 922        TOTAL FREE ENERGY PREDICTED BY IDOCK:   17.99 KCAL/MOL
REMARK 923 INTER-LIGAND FREE ENERGY PREDICTED BY IDOCK:   18.71 KCAL/MOL
REMARK 924 INTRA-LIGAND FREE ENERGY PREDICTED BY IDOCK:   -0.71 KCAL/MOL
REMARK 927      BINDING AFFINITY PREDICTED BY RF-SCORE:    0.00 PKD
ROOT
HETATM    1  O   UNL     1     -10.728  17.577  67.154  1.00  0.00    -0.298 OA 
HETATM    2  H   UNL     1     -11.168  17.724  66.325  1.00  0.00     0.000 HD 
HETATM    3  C   UNL     1      -9.887  18.670  67.506  1.00  0.00    -0.320 C  
ENDROOT
BRANCH   3   4
HETATM    4  C   UNL     1      -9.173  18.432  68.852  1.00  0.00    -0.178 C  
HETATM    5  O   UNL     1      -9.090  17.029  69.191  1.00  0.00    -0.193 OA 
HETATM    6  C   UNL     1      -8.142  16.264  68.419  1.00  0.00    -0.183 C  
HETATM    7  C   UNL     1      -6.723  16.880  68.580  1.00  0.00    -0.168 C  
HETATM    8  H   UNL     1      -6.771  19.438  66.581  1.00  0.00     0.000 HD 
HETATM    9  C   UNL     1      -6.703  18.372  68.221  1.00  0.00    -0.224 C  
HETATM   10  O   UNL     1      -6.224  16.737  69.926  1.00  0.00    -0.224 OA 
HETATM   11  H   UNL     1      -6.642  19.737  70.433  1.00  0.00     0.000 HD 
HETATM   12  C   UNL     1      -7.808  19.140  68.967  1.00  0.00    -0.259 C  
HETATM   13  H   UNL     1      -5.357  17.114  70.025  1.00  0.00     0.000 HD 
HETATM   14  O   UNL     1      -6.784  18.515  66.802  1.00  0.00    -0.183 OA 
HETATM   15  O   UNL     1      -7.483  19.300  70.362  1.00  0.00     0.702 OA 
BRANCH   6  16
HETATM   16  O   UNL     1      -8.610  16.163  67.073  1.00  0.00    -0.178 OA 
BRANCH  16  17
HETATM   17  C   UNL     1      -8.630  14.954  66.442  1.00  0.00     0.017 A  
HETATM   18  C   UNL     1      -8.388  13.507  64.545  1.00  0.00     6.779 A  
HETATM   19  C   UNL     1      -9.010  12.471  65.233  1.00  0.00     0.776 A  
HETATM   20  O   UNL     1      -8.011  13.279  63.252  1.00  0.00     7.031 OA 
HETATM   21  C   UNL     1      -8.173  14.741  65.146  1.00  0.00     5.483 A  
HETATM   22  H   UNL     1      -8.158  12.436  62.841  1.00  0.00     0.000 HD 
HETATM   23  C   UNL     1      -9.442  12.649  66.552  1.00  0.00    -0.247 A  
HETATM   24  C   UNL     1      -9.274  13.913  67.138  1.00  0.00    -0.242 A  
BRANCH  23  25
HETATM   25  C   UNL     1     -10.080  11.496  67.218  1.00  0.00    -0.223 C  
HETATM   26  C   UNL     1     -10.261  11.336  68.540  1.00  0.00    -0.214 C  
BRANCH  26  27
HETATM   27  C   UNL     1     -10.721  10.069  69.154  1.00  0.00    -0.244 A  
HETATM   28  C   UNL     1     -10.258   9.735  70.437  1.00  0.00    -0.343 A  
HETATM   29  C   UNL     1     -10.591   8.513  71.031  1.00  0.00    -0.267 A  
HETATM   30  C   UNL     1     -11.408   7.620  70.347  1.00  0.00    -0.219 A  
HETATM   31  C   UNL     1     -11.922   7.947  69.101  1.00  0.00     1.740 A  
HETATM   32  O   UNL     1     -11.724   6.400  70.870  1.00  0.00    -0.349 OA 
HETATM   33  H   UNL     1     -12.282   5.790  70.403  1.00  0.00     0.000 HD 
HETATM   34  C   UNL     1     -11.585   9.169  68.508  1.00  0.00     0.934 A  
ENDBRANCH  26  27
ENDBRANCH  23  25
ENDBRANCH  16  17
ENDBRANCH   6  16
ENDBRANCH   3   4
TORSDOF 5
ENDMDL
MODEL      173
REMARK 921   NORMALIZED FREE ENERGY PREDICTED BY IDOCK:   16.45 KCAL/MOL
REMARK 922        TOTAL FREE ENERGY PREDICTED BY IDOCK:   20.17 KCAL/MOL
REMARK 923 INTER-LIGAND FREE ENERGY PREDICTED BY IDOCK:    1.28 KCAL/MOL
REMARK 924 INTRA-LIGAND FREE ENERGY PREDICTED BY IDOCK:   18.89 KCAL/MOL
REMARK 927      BINDING AFFINITY PREDICTED BY RF-SCORE:    0.00 PKD
ROOT
HETATM    1  O   UNL     1      -9.596  10.068  70.821  1.00  0.00    -0.268 OA 
HETATM    2  H   UNL     1      -9.912  10.838  70.362  1.00  0.00     0.000 HD 
HETATM    3  C   UNL     1     -10.171   8.873  70.303  1.00  0.00    -0.201 C  
ENDROOT
BRANCH   3   4
HETATM    4  C   UNL     1      -9.658   7.624  71.048  1.00  0.00    -0.163 C  
HETATM    5  O   UNL     1     -10.617   7.118  72.003  1.00  0.00    -0.207 OA 
HETATM    6  C   UNL     1     -11.762   6.452  71.432  1.00  0.00    -0.306 C  
HETATM    7  C   UNL     1     -11.285   5.259  70.555  1.00  0.00     0.541 C  
HETATM    8  H   UNL     1     -10.330   6.675  67.794  1.00  0.00     0.000 HD 
HETATM    9  C   UNL     1     -10.272   5.700  69.491  1.00  0.00    -0.250 C  
HETATM   10  O   UNL     1     -10.676   4.218  71.348  1.00  0.00     0.178 OA 
HETATM   11  H   UNL     1      -7.901   4.989  70.284  1.00  0.00     0.000 HD 
HETATM   12  C   UNL     1      -9.127   6.516  70.114  1.00  0.00    -0.155 C  
HETATM   13  H   UNL     1     -10.385   3.489  70.813  1.00  0.00     0.000 HD 
HETATM   14  O   UNL     1     -10.958   6.402  68.453  1.00  0.00    -0.287 OA 
HETATM   15  O   UNL     1      -8.228   5.671  70.859  1.00  0.00    -0.115 OA 
BRANCH   6  16
HETATM   16  O   UNL     1     -12.573   7.415  70.756  1.00  0.00    -0.194 OA 
BRANCH  16  17
HETATM   17  C   UNL     1     -12.494   8.735  71.089  1.00  0.00    -0.193 A  
HETATM   18  C   UNL     1     -13.364  10.798  71.949  1.00  0.00    -0.340 A  
HETATM   19  C   UNL     1     -12.277  11.492  71.432  1.00  0.00    -0.086 A  
HETATM   20  O   UNL     1     -14.335  11.515  72.588  1.00  0.00     0.279 OA 
HETATM   21  C   UNL     1     -13.472   9.420  71.804  1.00  0.00    -0.485 A  
HETATM   22  H   UNL     1     -14.262  12.457  72.687  1.00  0.00     0.000 HD 
HETATM   23  C   UNL     1     -11.261  10.818  70.746  1.00  0.00     0.077 A  
HETATM   24  C   UNL     1     -11.398   9.435  70.552  1.00  0.00    -0.328 A  
BRANCH  23  25
HETATM   25  C   UNL     1     -10.132  11.626  70.242  1.00  0.00     2.354 C  
HETATM   26  C   UNL     1     -10.183  12.906  69.835  1.00  0.00     1.674 C  
BRANCH  26  27
HETATM   27  C   UNL     1      -9.063  13.592  69.152  1.00  0.00     0.530 A  
HETATM   28  C   UNL     1      -9.222  14.936  68.778  1.00  0.00    -0.193 A  
HETATM   29  C   UNL     1      -8.232  15.610  68.055  1.00  0.00    -0.146 A  
HETATM   30  C   UNL     1      -7.061  14.942  67.714  1.00  0.00    -0.174 A  
HETATM   31  C   UNL     1      -6.855  13.630  68.116  1.00  0.00    -0.121 A  
HETATM   32  O   UNL     1      -6.087  15.546  66.975  1.00  0.00    -0.277 OA 
HETATM   33  H   UNL     1      -5.287  15.090  66.741  1.00  0.00     0.000 HD 
HETATM   34  C   UNL     1      -7.849  12.958  68.837  1.00  0.00     0.139 A  
ENDBRANCH  26  27
ENDBRANCH  23  25
ENDBRANCH  16  17
ENDBRANCH   6  16
ENDBRANCH   3   4
TORSDOF 5
ENDMDL
MODEL      174
REMARK 921   NORMALIZED FREE ENERGY PREDICTED BY IDOCK:   17.81 KCAL/MOL
REMARK 922        TOTAL FREE ENERGY PREDICTED BY IDOCK:   21.93 KCAL/MOL
REMARK 923 INTER-LIGAND FREE ENERGY PREDICTED BY IDOCK:   -3.72 KCAL/MOL
REMARK 924 INTRA-LIGAND FREE ENERGY PREDICTED BY IDOCK:   25.65 KCAL/MOL
REMARK 927      BINDING AFFINITY PREDICTED BY RF-SCORE:    0.00 PKD
ROOT
HETATM    1  O   UNL     1      -8.816   6.201  68.578  1.00  0.00    -0.115 OA 
HETATM    2  H   UNL     1      -8.881   7.132  68.397  1.00  0.00     0.000 HD 
HETATM    3  C   UNL     1      -7.463   5.759  68.587  1.00  0.00    -0.085 C  
ENDROOT
BRANCH   3   4
HETATM    4  C   UNL     1      -7.358   4.248  68.880  1.00  0.00    -0.055 C  
HETATM    5  O   UNL     1      -6.782   3.977  70.178  1.00  0.00    -0.032 OA 
HETATM    6  C   UNL     1      -7.641   4.255  71.303  1.00  0.00    -0.060 C  
HETATM    7  C   UNL     1      -8.949   3.424  71.177  1.00  0.00    -0.098 C  
HETATM    8  H   UNL     1     -10.706   5.090  69.015  1.00  0.00     0.000 HD 
HETATM    9  C   UNL     1      -9.650   3.659  69.833  1.00  0.00    -0.168 C  
HETATM   10  O   UNL     1      -8.702   2.008  71.309  1.00  0.00    -0.057 OA 
HETATM   11  H   UNL     1      -9.181   1.611  68.303  1.00  0.00     0.000 HD 
HETATM   12  C   UNL     1      -8.675   3.477  68.656  1.00  0.00    -0.100 C  
HETATM   13  H   UNL     1      -9.501   1.500  71.232  1.00  0.00     0.000 HD 
HETATM   14  O   UNL     1     -10.273   4.944  69.847  1.00  0.00    -0.257 OA 
HETATM   15  O   UNL     1      -8.369   2.086  68.442  1.00  0.00    -0.056 OA 
BRANCH   6  16
HETATM   16  O   UNL     1      -7.828   5.668  71.409  1.00  0.00    -0.106 OA 
BRANCH  16  17
HETATM   17  C   UNL     1      -8.904   6.264  70.821  1.00  0.00    -0.144 A  
HETATM   18  C   UNL     1     -11.241   6.499  70.335  1.00  0.00    -0.355 A  
HETATM   19  C   UNL     1     -10.957   7.399  69.315  1.00  0.00    -0.091 A  
HETATM   20  O   UNL     1     -12.548   6.161  70.543  1.00  0.00     0.543 OA 
HETATM   21  C   UNL     1     -10.228   5.944  71.108  1.00  0.00    -0.266 A  
HETATM   22  H   UNL     1     -13.241   6.540  70.016  1.00  0.00     0.000 HD 
HETATM   23  C   UNL     1      -9.636   7.767  69.036  1.00  0.00    -0.155 A  
HETATM   24  C   UNL     1      -8.610   7.164  69.779  1.00  0.00    -0.141 A  
BRANCH  23  25
HETATM   25  C   UNL     1      -9.419   8.741  67.947  1.00  0.00    -0.160 C  
HETATM   26  C   UNL     1      -9.845   8.628  66.677  1.00  0.00    -0.336 C  
BRANCH  26  27
HETATM   27  C   UNL     1      -9.421   9.539  65.589  1.00  0.00    -0.326 A  
HETATM   28  C   UNL     1     -10.274  10.591  65.220  1.00  0.00    -0.352 A  
HETATM   29  C   UNL     1      -9.966  11.430  64.144  1.00  0.00    -0.335 A  
HETATM   30  C   UNL     1      -8.786  11.229  63.437  1.00  0.00     0.140 A  
HETATM   31  C   UNL     1      -7.900  10.230  63.813  1.00  0.00    -0.118 A  
HETATM   32  O   UNL     1      -8.465  11.996  62.355  1.00  0.00    -0.292 OA 
HETATM   33  H   UNL     1      -7.658  11.859  61.872  1.00  0.00     0.000 HD 
HETATM   34  C   UNL     1      -8.212   9.391  64.889  1.00  0.00    -0.143 A  
ENDBRANCH  26  27
ENDBRANCH  23  25
ENDBRANCH  16  17
ENDBRANCH   6  16
ENDBRANCH   3   4
TORSDOF 5
ENDMDL
MODEL      175
REMARK 921   NORMALIZED FREE ENERGY PREDICTED BY IDOCK:   18.21 KCAL/MOL
REMARK 922        TOTAL FREE ENERGY PREDICTED BY IDOCK:   22.45 KCAL/MOL
REMARK 923 INTER-LIGAND FREE ENERGY PREDICTED BY IDOCK:   15.46 KCAL/MOL
REMARK 924 INTRA-LIGAND FREE ENERGY PREDICTED BY IDOCK:    6.99 KCAL/MOL
REMARK 927      BINDING AFFINITY PREDICTED BY RF-SCORE:    0.00 PKD
ROOT
HETATM    1  O   UNL     1     -10.700  20.368  66.353  1.00  0.00    -0.125 OA 
HETATM    2  H   UNL     1     -11.647  20.368  66.438  1.00  0.00     0.000 HD 
HETATM    3  C   UNL     1     -10.227  19.181  65.726  1.00  0.00    -0.206 C  
ENDROOT
BRANCH   3   4
HETATM    4  C   UNL     1      -8.691  19.181  65.589  1.00  0.00     0.564 C  
HETATM    5  O   UNL     1      -8.024  18.949  66.849  1.00  0.00    -0.243 OA 
HETATM    6  C   UNL     1      -8.097  17.596  67.344  1.00  0.00    -0.207 C  
HETATM    7  C   UNL     1      -7.486  16.625  66.294  1.00  0.00    -0.139 C  
HETATM    8  H   UNL     1      -9.854  16.289  64.099  1.00  0.00     0.000 HD 
HETATM    9  C   UNL     1      -8.146  16.782  64.918  1.00  0.00     4.869 C  
HETATM   10  O   UNL     1      -6.066  16.828  66.135  1.00  0.00    -0.159 OA 
HETATM   11  H   UNL     1      -6.529  18.128  63.392  1.00  0.00     0.000 HD 
HETATM   12  C   UNL     1      -8.165  18.254  64.473  1.00  0.00     6.102 C  
HETATM   13  H   UNL     1      -5.693  16.235  65.493  1.00  0.00     0.000 HD 
HETATM   14  O   UNL     1      -9.446  16.191  64.951  1.00  0.00     0.251 OA 
HETATM   15  O   UNL     1      -6.853  18.699  64.079  1.00  0.00     1.413 OA 
BRANCH   6  16
HETATM   16  O   UNL     1      -9.444  17.310  67.724  1.00  0.00    -0.249 OA 
BRANCH  16  17
HETATM   17  C   UNL     1     -10.101  16.248  67.176  1.00  0.00    -0.268 A  
HETATM   18  C   UNL     1     -11.539  15.199  65.568  1.00  0.00    -0.142 A  
HETATM   19  C   UNL     1     -11.614  14.056  66.356  1.00  0.00    -0.381 A  
HETATM   20  O   UNL     1     -12.260  15.224  64.409  1.00  0.00    -0.427 OA 
HETATM   21  C   UNL     1     -10.769  16.288  65.956  1.00  0.00    -0.217 A  
HETATM   22  H   UNL     1     -12.787  14.480  64.144  1.00  0.00     0.000 HD 
HETATM   23  C   UNL     1     -10.918  13.977  67.567  1.00  0.00    -0.288 A  
HETATM   24  C   UNL     1     -10.186  15.099  67.984  1.00  0.00    -0.230 A  
BRANCH  23  25
HETATM   25  C   UNL     1     -11.038  12.722  68.338  1.00  0.00    -0.293 C  
HETATM   26  C   UNL     1     -11.917  11.730  68.118  1.00  0.00    -0.214 C  
BRANCH  26  27
HETATM   27  C   UNL     1     -12.119  10.596  69.049  1.00  0.00    -0.084 A  
HETATM   28  C   UNL     1     -11.844  10.787  70.413  1.00  0.00    -0.450 A  
HETATM   29  C   UNL     1     -11.935   9.729  71.325  1.00  0.00    -0.471 A  
HETATM   30  C   UNL     1     -12.319   8.471  70.876  1.00  0.00    -0.042 A  
HETATM   31  C   UNL     1     -12.648   8.268  69.543  1.00  0.00     2.809 A  
HETATM   32  O   UNL     1     -12.381   7.402  71.721  1.00  0.00    -0.308 OA 
HETATM   33  H   UNL     1     -12.644   6.542  71.415  1.00  0.00     0.000 HD 
HETATM   34  C   UNL     1     -12.554   9.327  68.633  1.00  0.00     4.601 A  
ENDBRANCH  26  27
ENDBRANCH  23  25
ENDBRANCH  16  17
ENDBRANCH   6  16
ENDBRANCH   3   4
TORSDOF 5
ENDMDL
MODEL      176
REMARK 921   NORMALIZED FREE ENERGY PREDICTED BY IDOCK:   18.47 KCAL/MOL
REMARK 922        TOTAL FREE ENERGY PREDICTED BY IDOCK:   22.79 KCAL/MOL
REMARK 923 INTER-LIGAND FREE ENERGY PREDICTED BY IDOCK:    0.86 KCAL/MOL
REMARK 924 INTRA-LIGAND FREE ENERGY PREDICTED BY IDOCK:   21.94 KCAL/MOL
REMARK 927      BINDING AFFINITY PREDICTED BY RF-SCORE:    0.00 PKD
ROOT
HETATM    1  O   UNL     1      -8.730  15.448  69.101  1.00  0.00    -0.208 OA 
HETATM    2  H   UNL     1      -8.550  14.515  69.087  1.00  0.00     0.000 HD 
HETATM    3  C   UNL     1      -7.550  16.217  68.902  1.00  0.00    -0.212 C  
ENDROOT
BRANCH   3   4
HETATM    4  C   UNL     1      -7.843  17.731  68.925  1.00  0.00    -0.184 C  
HETATM    5  O   UNL     1      -7.026  18.466  67.987  1.00  0.00    -0.217 OA 
HETATM    6  C   UNL     1      -7.381  18.299  66.599  1.00  0.00    -0.223 C  
HETATM    7  C   UNL     1      -8.860  18.730  66.385  1.00  0.00    -0.291 C  
HETATM    8  H   UNL     1     -10.560  16.180  67.457  1.00  0.00     0.000 HD 
HETATM    9  C   UNL     1      -9.815  17.986  67.327  1.00  0.00    -0.306 C  
HETATM   10  O   UNL     1      -9.043  20.147  66.590  1.00  0.00    -0.394 OA 
HETATM   11  H   UNL     1     -10.488  19.606  69.245  1.00  0.00     0.000 HD 
HETATM   12  C   UNL     1      -9.341  18.077  68.788  1.00  0.00    -0.241 C  
HETATM   13  H   UNL     1      -9.947  20.410  66.460  1.00  0.00     0.000 HD 
HETATM   14  O   UNL     1      -9.969  16.640  66.873  1.00  0.00    -0.254 OA 
HETATM   15  O   UNL     1      -9.565  19.393  69.329  1.00  0.00    -0.346 OA 
BRANCH   6  16
HETATM   16  O   UNL     1      -7.075  16.963  66.195  1.00  0.00    -0.206 OA 
BRANCH  16  17
HETATM   17  C   UNL     1      -8.048  16.008  66.186  1.00  0.00     0.089 A  
HETATM   18  C   UNL     1     -10.259  15.178  66.605  1.00  0.00    -0.266 A  
HETATM   19  C   UNL     1      -9.832  13.875  66.378  1.00  0.00    -0.304 A  
HETATM   20  O   UNL     1     -11.563  15.370  66.964  1.00  0.00    -0.194 OA 
HETATM   21  C   UNL     1      -9.384  16.252  66.489  1.00  0.00    -0.298 A  
HETATM   22  H   UNL     1     -12.161  14.637  67.044  1.00  0.00     0.000 HD 
HETATM   23  C   UNL     1      -8.502  13.610  66.032  1.00  0.00     1.210 A  
HETATM   24  C   UNL     1      -7.607  14.689  65.969  1.00  0.00     3.257 A  
BRANCH  23  25
HETATM   25  C   UNL     1      -8.132  12.200  65.792  1.00  0.00     1.004 C  
HETATM   26  C   UNL     1      -7.498  11.384  66.650  1.00  0.00    -0.110 C  
BRANCH  26  27
HETATM   27  C   UNL     1      -6.977  10.050  66.275  1.00  0.00    -0.104 A  
HETATM   28  C   UNL     1      -7.294   9.535  65.007  1.00  0.00    -0.110 A  
HETATM   29  C   UNL     1      -6.901   8.245  64.631  1.00  0.00    -0.068 A  
HETATM   30  C   UNL     1      -6.171   7.466  65.521  1.00  0.00    -0.038 A  
HETATM   31  C   UNL     1      -5.800   7.969  66.759  1.00  0.00    -0.044 A  
HETATM   32  O   UNL     1      -5.804   6.189  65.212  1.00  0.00    -0.024 OA 
HETATM   33  H   UNL     1      -5.305   5.656  65.820  1.00  0.00     0.000 HD 
HETATM   34  C   UNL     1      -6.196   9.258  67.133  1.00  0.00    -0.058 A  
ENDBRANCH  26  27
ENDBRANCH  23  25
ENDBRANCH  16  17
ENDBRANCH   6  16
ENDBRANCH   3   4
TORSDOF 5
ENDMDL
MODEL      177
REMARK 921   NORMALIZED FREE ENERGY PREDICTED BY IDOCK:   18.57 KCAL/MOL
REMARK 922        TOTAL FREE ENERGY PREDICTED BY IDOCK:   22.91 KCAL/MOL
REMARK 923 INTER-LIGAND FREE ENERGY PREDICTED BY IDOCK:    9.49 KCAL/MOL
REMARK 924 INTRA-LIGAND FREE ENERGY PREDICTED BY IDOCK:   13.43 KCAL/MOL
REMARK 927      BINDING AFFINITY PREDICTED BY RF-SCORE:    0.00 PKD
ROOT
HETATM    1  O   UNL     1     -10.517  10.285  66.853  1.00  0.00    -0.231 OA 
HETATM    2  H   UNL     1     -10.041   9.718  67.447  1.00  0.00     0.000 HD 
HETATM    3  C   UNL     1     -10.227  11.658  67.088  1.00  0.00    -0.213 C  
ENDROOT
BRANCH   3   4
HETATM    4  C   UNL     1     -11.001  12.579  66.122  1.00  0.00    -0.284 C  
HETATM    5  O   UNL     1     -10.393  12.641  64.813  1.00  0.00    -0.299 OA 
HETATM    6  C   UNL     1     -10.555  11.459  64.003  1.00  0.00    -0.383 C  
HETATM    7  C   UNL     1     -12.070  11.162  63.813  1.00  0.00     0.866 C  
HETATM    8  H   UNL     1     -12.926   9.752  66.609  1.00  0.00     0.000 HD 
HETATM    9  C   UNL     1     -12.805  11.057  65.156  1.00  0.00     4.704 C  
HETATM   10  O   UNL     1     -12.723  12.179  63.024  1.00  0.00    -0.747 OA 
HETATM   11  H   UNL     1     -14.130  13.262  65.529  1.00  0.00     0.000 HD 
HETATM   12  C   UNL     1     -12.512  12.275  66.049  1.00  0.00     0.585 C  
HETATM   13  H   UNL     1     -13.649  11.998  62.909  1.00  0.00     0.000 HD 
HETATM   14  O   UNL     1     -12.471   9.816  65.778  1.00  0.00     7.095 OA 
HETATM   15  O   UNL     1     -13.200  13.449  65.574  1.00  0.00    -0.500 OA 
BRANCH   6  16
HETATM   16  O   UNL     1      -9.795  10.393  64.575  1.00  0.00    -0.308 OA 
BRANCH  16  17
HETATM   17  C   UNL     1      -8.932  10.638  65.601  1.00  0.00    -0.185 A  
HETATM   18  C   UNL     1      -7.119  11.795  66.664  1.00  0.00     0.026 A  
HETATM   19  C   UNL     1      -7.050  10.817  67.650  1.00  0.00    -0.091 A  
HETATM   20  O   UNL     1      -6.212  12.815  66.711  1.00  0.00    -0.446 OA 
HETATM   21  C   UNL     1      -8.068  11.728  65.651  1.00  0.00     0.672 A  
HETATM   22  H   UNL     1      -5.563  12.860  67.403  1.00  0.00     0.000 HD 
HETATM   23  C   UNL     1      -7.936   9.733  67.643  1.00  0.00    -0.105 A  
HETATM   24  C   UNL     1      -8.857   9.638  66.588  1.00  0.00    -0.153 A  
BRANCH  23  25
HETATM   25  C   UNL     1      -7.807   8.746  68.734  1.00  0.00    -0.101 C  
HETATM   26  C   UNL     1      -7.144   8.914  69.890  1.00  0.00    -0.055 C  
BRANCH  26  27
HETATM   27  C   UNL     1      -6.883   7.817  70.850  1.00  0.00    -0.042 A  
HETATM   28  C   UNL     1      -5.787   6.969  70.622  1.00  0.00    -0.027 A  
HETATM   29  C   UNL     1      -5.542   5.865  71.446  1.00  0.00    -0.021 A  
HETATM   30  C   UNL     1      -6.389   5.612  72.519  1.00  0.00    -0.052 A  
HETATM   31  C   UNL     1      -7.449   6.463  72.797  1.00  0.00    -0.095 A  
HETATM   32  O   UNL     1      -6.213   4.524  73.323  1.00  0.00    -0.029 OA 
HETATM   33  H   UNL     1      -6.791   4.350  74.056  1.00  0.00     0.000 HD 
HETATM   34  C   UNL     1      -7.693   7.565  71.970  1.00  0.00    -0.094 A  
ENDBRANCH  26  27
ENDBRANCH  23  25
ENDBRANCH  16  17
ENDBRANCH   6  16
ENDBRANCH   3   4
TORSDOF 5
ENDMDL
MODEL      178
REMARK 921   NORMALIZED FREE ENERGY PREDICTED BY IDOCK:   19.71 KCAL/MOL
REMARK 922        TOTAL FREE ENERGY PREDICTED BY IDOCK:   24.39 KCAL/MOL
REMARK 923 INTER-LIGAND FREE ENERGY PREDICTED BY IDOCK:   11.15 KCAL/MOL
REMARK 924 INTRA-LIGAND FREE ENERGY PREDICTED BY IDOCK:   13.24 KCAL/MOL
REMARK 927      BINDING AFFINITY PREDICTED BY RF-SCORE:    0.00 PKD
ROOT
HETATM    1  O   UNL     1     -12.409  14.622  63.114  1.00  0.00    -0.685 OA 
HETATM    2  H   UNL     1     -12.445  15.477  62.703  1.00  0.00     0.000 HD 
HETATM    3  C   UNL     1     -13.272  13.691  62.470  1.00  0.00     3.810 C  
ENDROOT
BRANCH   3   4
HETATM    4  C   UNL     1     -13.214  12.302  63.138  1.00  0.00     0.663 C  
HETATM    5  O   UNL     1     -11.875  11.757  63.164  1.00  0.00    -0.320 OA 
HETATM    6  C   UNL     1     -10.976  12.378  64.106  1.00  0.00    -0.367 C  
HETATM    7  C   UNL     1     -11.566  12.265  65.540  1.00  0.00    -0.371 C  
HETATM    8  H   UNL     1     -13.801  14.617  65.634  1.00  0.00     0.000 HD 
HETATM    9  C   UNL     1     -12.987  12.837  65.622  1.00  0.00     0.615 C  
HETATM   10  O   UNL     1     -11.609  10.896  65.998  1.00  0.00     0.123 OA 
HETATM   11  H   UNL     1     -14.662  10.850  65.669  1.00  0.00     0.000 HD 
HETATM   12  C   UNL     1     -13.890  12.248  64.524  1.00  0.00     2.518 C  
HETATM   13  H   UNL     1     -11.970  10.826  66.874  1.00  0.00     0.000 HD 
HETATM   14  O   UNL     1     -12.921  14.263  65.584  1.00  0.00    -0.535 OA 
HETATM   15  O   UNL     1     -14.245  10.883  64.816  1.00  0.00     6.028 OA 
BRANCH   6  16
HETATM   16  O   UNL     1     -10.691  13.709  63.671  1.00  0.00     0.172 OA 
BRANCH  16  17
HETATM   17  C   UNL     1     -10.951  14.769  64.489  1.00  0.00    -0.210 A  
HETATM   18  C   UNL     1     -11.203  17.103  64.979  1.00  0.00     0.358 A  
HETATM   19  C   UNL     1     -11.207  16.834  66.343  1.00  0.00     0.509 A  
HETATM   20  O   UNL     1     -11.285  18.408  64.586  1.00  0.00    -0.171 OA 
HETATM   21  C   UNL     1     -11.099  16.080  64.046  1.00  0.00     0.624 A  
HETATM   22  H   UNL     1     -11.356  19.108  65.224  1.00  0.00     0.000 HD 
HETATM   23  C   UNL     1     -11.101  15.520  66.812  1.00  0.00    -0.206 A  
HETATM   24  C   UNL     1     -10.940  14.492  65.869  1.00  0.00    -0.320 A  
BRANCH  23  25
HETATM   25  C   UNL     1     -11.128  15.317  68.274  1.00  0.00    -0.301 C  
HETATM   26  C   UNL     1     -11.741  14.317  68.931  1.00  0.00    -0.363 C  
BRANCH  26  27
HETATM   27  C   UNL     1     -11.902  14.285  70.403  1.00  0.00    -0.375 A  
HETATM   28  C   UNL     1     -13.072  13.724  70.941  1.00  0.00    -0.222 A  
HETATM   29  C   UNL     1     -13.317  13.743  72.318  1.00  0.00    -0.617 A  
HETATM   30  C   UNL     1     -12.379  14.313  73.172  1.00  0.00     0.015 A  
HETATM   31  C   UNL     1     -11.191  14.826  72.672  1.00  0.00     0.603 A  
HETATM   32  O   UNL     1     -12.595  14.390  74.516  1.00  0.00    -0.047 OA 
HETATM   33  H   UNL     1     -11.954  14.779  75.100  1.00  0.00     0.000 HD 
HETATM   34  C   UNL     1     -10.949  14.808  71.293  1.00  0.00     0.220 A  
ENDBRANCH  26  27
ENDBRANCH  23  25
ENDBRANCH  16  17
ENDBRANCH   6  16
ENDBRANCH   3   4
TORSDOF 5
ENDMDL
MODEL      179
REMARK 921   NORMALIZED FREE ENERGY PREDICTED BY IDOCK:   21.88 KCAL/MOL
REMARK 922        TOTAL FREE ENERGY PREDICTED BY IDOCK:   27.20 KCAL/MOL
REMARK 923 INTER-LIGAND FREE ENERGY PREDICTED BY IDOCK:   21.20 KCAL/MOL
REMARK 924 INTRA-LIGAND FREE ENERGY PREDICTED BY IDOCK:    5.99 KCAL/MOL
REMARK 927      BINDING AFFINITY PREDICTED BY RF-SCORE:    0.00 PKD
ROOT
HETATM    1  O   UNL     1      -7.215  17.764  68.687  1.00  0.00    -0.241 OA 
HETATM    2  H   UNL     1      -6.819  17.596  67.840  1.00  0.00     0.000 HD 
HETATM    3  C   UNL     1      -7.718  19.092  68.779  1.00  0.00    -0.355 C  
ENDROOT
BRANCH   3   4
HETATM    4  C   UNL     1      -8.362  19.365  70.154  1.00  0.00     1.263 C  
HETATM    5  O   UNL     1      -9.708  19.880  70.041  1.00  0.00     0.093 OA 
HETATM    6  C   UNL     1     -10.703  18.918  69.634  1.00  0.00     1.458 C  
HETATM    7  C   UNL     1     -10.726  17.735  70.645  1.00  0.00     1.787 C  
HETATM    8  H   UNL     1      -8.168  15.937  69.773  1.00  0.00     0.000 HD 
HETATM    9  C   UNL     1      -9.339  17.105  70.820  1.00  0.00     4.295 C  
HETATM   10  O   UNL     1     -11.197  18.148  71.945  1.00  0.00     1.298 OA 
HETATM   11  H   UNL     1      -8.352  17.931  73.079  1.00  0.00     0.000 HD 
HETATM   12  C   UNL     1      -8.275  18.173  71.130  1.00  0.00     7.331 C  
HETATM   13  H   UNL     1     -11.212  17.426  72.563  1.00  0.00     0.000 HD 
HETATM   14  O   UNL     1      -9.027  16.326  69.664  1.00  0.00    -0.050 OA 
HETATM   15  O   UNL     1      -8.406  18.665  72.477  1.00  0.00     9.183 OA 
BRANCH   6  16
HETATM   16  O   UNL     1     -10.467  18.548  68.274  1.00  0.00    -0.363 OA 
BRANCH  16  17
HETATM   17  C   UNL     1     -10.571  17.244  67.889  1.00  0.00    -0.384 A  
HETATM   18  C   UNL     1     -10.703  15.477  66.273  1.00  0.00    -0.307 A  
HETATM   19  C   UNL     1     -11.092  14.579  67.260  1.00  0.00    -0.317 A  
HETATM   20  O   UNL     1     -10.627  15.020  64.988  1.00  0.00    -0.384 OA 
HETATM   21  C   UNL     1     -10.418  16.802  66.579  1.00  0.00    -0.258 A  
HETATM   22  H   UNL     1     -10.822  14.114  64.779  1.00  0.00     0.000 HD 
HETATM   23  C   UNL     1     -11.213  14.991  68.592  1.00  0.00    -0.289 A  
HETATM   24  C   UNL     1     -10.979  16.343  68.890  1.00  0.00    -0.332 A  
BRANCH  23  25
HETATM   25  C   UNL     1     -11.617  13.973  69.583  1.00  0.00    -0.348 C  
HETATM   26  C   UNL     1     -11.950  12.697  69.328  1.00  0.00    -0.301 C  
BRANCH  26  27
HETATM   27  C   UNL     1     -12.540  11.789  70.337  1.00  0.00    -0.186 A  
HETATM   28  C   UNL     1     -12.241  10.418  70.267  1.00  0.00    -0.349 A  
HETATM   29  C   UNL     1     -12.837   9.502  71.141  1.00  0.00    -0.361 A  
HETATM   30  C   UNL     1     -13.727   9.957  72.106  1.00  0.00    -0.206 A  
HETATM   31  C   UNL     1     -13.999  11.312  72.232  1.00  0.00     0.553 A  
HETATM   32  O   UNL     1     -14.363   9.095  72.952  1.00  0.00    -1.006 OA 
HETATM   33  H   UNL     1     -14.971   9.406  73.612  1.00  0.00     0.000 HD 
HETATM   34  C   UNL     1     -13.404  12.226  71.355  1.00  0.00    -0.017 A  
ENDBRANCH  26  27
ENDBRANCH  23  25
ENDBRANCH  16  17
ENDBRANCH   6  16
ENDBRANCH   3   4
TORSDOF 5
ENDMDL
MODEL      180
REMARK 921   NORMALIZED FREE ENERGY PREDICTED BY IDOCK:   25.15 KCAL/MOL
REMARK 922        TOTAL FREE ENERGY PREDICTED BY IDOCK:   31.43 KCAL/MOL
REMARK 923 INTER-LIGAND FREE ENERGY PREDICTED BY IDOCK:   -4.32 KCAL/MOL
REMARK 924 INTRA-LIGAND FREE ENERGY PREDICTED BY IDOCK:   35.75 KCAL/MOL
REMARK 927      BINDING AFFINITY PREDICTED BY RF-SCORE:    0.00 PKD
ROOT
HETATM    1  O   UNL     1     -10.350   6.945  71.625  1.00  0.00    -0.200 OA 
HETATM    2  H   UNL     1     -10.493   7.803  71.244  1.00  0.00     0.000 HD 
HETATM    3  C   UNL     1      -9.319   6.232  70.950  1.00  0.00    -0.161 C  
ENDROOT
BRANCH   3   4
HETATM    4  C   UNL     1      -9.089   4.838  71.569  1.00  0.00    -0.136 C  
HETATM    5  O   UNL     1      -8.437   4.907  72.857  1.00  0.00    -0.107 OA 
HETATM    6  C   UNL     1      -9.264   5.381  73.940  1.00  0.00    -0.122 C  
HETATM    7  C   UNL     1     -10.511   4.463  74.083  1.00  0.00    -0.256 C  
HETATM    8  H   UNL     1     -12.482   5.477  71.711  1.00  0.00     0.000 HD 
HETATM    9  C   UNL     1     -11.286   4.340  72.765  1.00  0.00     0.073 C  
HETATM   10  O   UNL     1     -10.153   3.133  74.516  1.00  0.00    -0.126 OA 
HETATM   11  H   UNL     1     -10.733   2.030  71.710  1.00  0.00     0.000 HD 
HETATM   12  C   UNL     1     -10.354   3.955  71.603  1.00  0.00     0.089 C  
HETATM   13  H   UNL     1     -10.914   2.571  74.603  1.00  0.00     0.000 HD 
HETATM   14  O   UNL     1     -12.002   5.553  72.527  1.00  0.00    -0.223 OA 
HETATM   15  O   UNL     1      -9.954   2.574  71.689  1.00  0.00    -0.162 OA 
BRANCH   6  16
HETATM   16  O   UNL     1      -9.552   6.766  73.737  1.00  0.00    -0.173 OA 
BRANCH  16  17
HETATM   17  C   UNL     1     -10.610   7.141  72.963  1.00  0.00    -0.308 A  
HETATM   18  C   UNL     1     -12.907   7.081  72.276  1.00  0.00     0.076 A  
HETATM   19  C   UNL     1     -12.596   7.778  71.114  1.00  0.00    -0.221 A  
HETATM   20  O   UNL     1     -14.202   6.686  72.456  1.00  0.00    -0.500 OA 
HETATM   21  C   UNL     1     -11.930   6.779  73.216  1.00  0.00     0.974 A  
HETATM   22  H   UNL     1     -14.870   6.893  71.814  1.00  0.00     0.000 HD 
HETATM   23  C   UNL     1     -11.283   8.189  70.859  1.00  0.00    -0.286 A  
HETATM   24  C   UNL     1     -10.287   7.834  71.782  1.00  0.00    -0.243 A  
BRANCH  23  25
HETATM   25  C   UNL     1     -11.038   8.938  69.609  1.00  0.00    -0.056 C  
HETATM   26  C   UNL     1     -10.646   8.422  68.432  1.00  0.00    -0.155 C  
BRANCH  26  27
HETATM   27  C   UNL     1     -10.222   9.249  67.279  1.00  0.00    -0.315 A  
HETATM   28  C   UNL     1     -10.366  10.643  67.359  1.00  0.00    -0.262 A  
HETATM   29  C   UNL     1     -10.063  11.467  66.270  1.00  0.00    -0.261 A  
HETATM   30  C   UNL     1      -9.596  10.897  65.091  1.00  0.00    -0.243 A  
HETATM   31  C   UNL     1      -9.395   9.527  65.001  1.00  0.00    -0.294 A  
HETATM   32  O   UNL     1      -9.328  11.657  63.990  1.00  0.00    -0.431 OA 
HETATM   33  H   UNL     1      -9.009  11.268  63.185  1.00  0.00     0.000 HD 
HETATM   34  C   UNL     1      -9.701   8.706  66.093  1.00  0.00    -0.292 A  
ENDBRANCH  26  27
ENDBRANCH  23  25
ENDBRANCH  16  17
ENDBRANCH   6  16
ENDBRANCH   3   4
TORSDOF 5
ENDMDL
MODEL      181
REMARK 921   NORMALIZED FREE ENERGY PREDICTED BY IDOCK:   25.95 KCAL/MOL
REMARK 922        TOTAL FREE ENERGY PREDICTED BY IDOCK:   32.46 KCAL/MOL
REMARK 923 INTER-LIGAND FREE ENERGY PREDICTED BY IDOCK:   16.87 KCAL/MOL
REMARK 924 INTRA-LIGAND FREE ENERGY PREDICTED BY IDOCK:   15.58 KCAL/MOL
REMARK 927      BINDING AFFINITY PREDICTED BY RF-SCORE:    0.00 PKD
ROOT
HETATM    1  O   UNL     1     -10.149  19.024  67.630  1.00  0.00    -0.335 OA 
HETATM    2  H   UNL     1     -10.389  18.230  68.092  1.00  0.00     0.000 HD 
HETATM    3  C   UNL     1      -9.125  18.788  66.671  1.00  0.00    -0.322 C  
ENDROOT
BRANCH   3   4
HETATM    4  C   UNL     1      -8.736  20.078  65.921  1.00  0.00    -0.097 C  
HETATM    5  O   UNL     1      -7.529  20.677  66.443  1.00  0.00    -0.190 OA 
HETATM    6  C   UNL     1      -6.307  19.982  66.122  1.00  0.00    -0.196 C  
HETATM    7  C   UNL     1      -6.159  19.877  64.577  1.00  0.00    -0.267 C  
HETATM    8  H   UNL     1      -8.138  17.428  63.785  1.00  0.00     0.000 HD 
HETATM    9  C   UNL     1      -7.389  19.232  63.927  1.00  0.00     4.080 C  
HETATM   10  O   UNL     1      -5.958  21.170  63.967  1.00  0.00    -0.278 OA 
HETATM   11  H   UNL     1      -8.811  21.113  62.833  1.00  0.00     0.000 HD 
HETATM   12  C   UNL     1      -8.688  19.916  64.387  1.00  0.00     4.256 C  
HETATM   13  H   UNL     1      -5.868  21.107  63.023  1.00  0.00     0.000 HD 
HETATM   14  O   UNL     1      -7.375  17.828  64.188  1.00  0.00     4.936 OA 
HETATM   15  O   UNL     1      -8.840  21.213  63.778  1.00  0.00     2.170 OA 
BRANCH   6  16
HETATM   16  O   UNL     1      -6.282  18.735  66.819  1.00  0.00    -0.175 OA 
BRANCH  16  17
HETATM   17  C   UNL     1      -7.364  18.332  67.545  1.00  0.00    -0.210 A  
HETATM   18  C   UNL     1      -8.788  18.336  69.474  1.00  0.00     0.670 A  
HETATM   19  C   UNL     1      -9.434  17.191  69.022  1.00  0.00    -0.162 A  
HETATM   20  O   UNL     1      -9.173  18.852  70.679  1.00  0.00     2.286 OA 
HETATM   21  C   UNL     1      -7.771  18.926  68.735  1.00  0.00    -0.366 A  
HETATM   22  H   UNL     1      -9.868  18.449  71.184  1.00  0.00     0.000 HD 
HETATM   23  C   UNL     1      -9.070  16.600  67.807  1.00  0.00    -0.212 A  
HETATM   24  C   UNL     1      -8.005  17.165  67.089  1.00  0.00    -0.216 A  
BRANCH  23  25
HETATM   25  C   UNL     1      -9.815  15.395  67.389  1.00  0.00    -0.216 C  
HETATM   26  C   UNL     1      -9.422  14.486  66.481  1.00  0.00    -0.310 C  
BRANCH  26  27
HETATM   27  C   UNL     1     -10.303  13.416  65.961  1.00  0.00    -0.297 A  
HETATM   28  C   UNL     1     -10.140  12.994  64.632  1.00  0.00    -0.253 A  
HETATM   29  C   UNL     1     -10.998  12.048  64.061  1.00  0.00    -0.442 A  
HETATM   30  C   UNL     1     -12.021  11.503  64.828  1.00  0.00     0.239 A  
HETATM   31  C   UNL     1     -12.173  11.863  66.160  1.00  0.00     0.553 A  
HETATM   32  O   UNL     1     -12.907  10.610  64.301  1.00  0.00     2.593 OA 
HETATM   33  H   UNL     1     -13.607  10.237  64.825  1.00  0.00     0.000 HD 
HETATM   34  C   UNL     1     -11.314  12.811  66.727  1.00  0.00    -0.362 A  
ENDBRANCH  26  27
ENDBRANCH  23  25
ENDBRANCH  16  17
ENDBRANCH   6  16
ENDBRANCH   3   4
TORSDOF 5
ENDMDL
MODEL      182
REMARK 921   NORMALIZED FREE ENERGY PREDICTED BY IDOCK:   27.36 KCAL/MOL
REMARK 922        TOTAL FREE ENERGY PREDICTED BY IDOCK:   34.27 KCAL/MOL
REMARK 923 INTER-LIGAND FREE ENERGY PREDICTED BY IDOCK:   35.03 KCAL/MOL
REMARK 924 INTRA-LIGAND FREE ENERGY PREDICTED BY IDOCK:   -0.76 KCAL/MOL
REMARK 927      BINDING AFFINITY PREDICTED BY RF-SCORE:    0.00 PKD
ROOT
HETATM    1  O   UNL     1      -9.449  17.795  66.157  1.00  0.00    -0.457 OA 
HETATM    2  H   UNL     1      -9.931  18.514  66.548  1.00  0.00     0.000 HD 
HETATM    3  C   UNL     1     -10.211  17.132  65.154  1.00  0.00     0.454 C  
ENDROOT
BRANCH   3   4
HETATM    4  C   UNL     1      -9.428  15.965  64.519  1.00  0.00     3.196 C  
HETATM    5  O   UNL     1      -8.583  15.284  65.473  1.00  0.00     0.827 OA 
HETATM    6  C   UNL     1      -9.277  14.455  66.427  1.00  0.00    -0.213 C  
HETATM    7  C   UNL     1     -10.110  13.379  65.673  1.00  0.00    -0.274 C  
HETATM    8  H   UNL     1     -12.743  15.004  64.691  1.00  0.00     0.000 HD 
HETATM    9  C   UNL     1     -11.058  14.008  64.645  1.00  0.00    -0.382 C  
HETATM   10  O   UNL     1      -9.267  12.432  64.983  1.00  0.00    -0.350 OA 
HETATM   11  H   UNL     1     -10.029  13.676  62.281  1.00  0.00     0.000 HD 
HETATM   12  C   UNL     1     -10.311  14.984  63.720  1.00  0.00     3.409 C  
HETATM   13  H   UNL     1      -9.775  11.775  64.522  1.00  0.00     0.000 HD 
HETATM   14  O   UNL     1     -12.156  14.615  65.328  1.00  0.00    -0.347 OA 
HETATM   15  O   UNL     1      -9.485  14.280  62.774  1.00  0.00     9.351 OA 
BRANCH   6  16
HETATM   16  O   UNL     1     -10.025  15.288  67.315  1.00  0.00    -0.225 OA 
BRANCH  16  17
HETATM   17  C   UNL     1     -10.352  14.844  68.562  1.00  0.00    -0.237 A  
HETATM   18  C   UNL     1     -11.008  15.133  70.850  1.00  0.00    -0.195 A  
HETATM   19  C   UNL     1     -10.699  13.806  71.125  1.00  0.00     3.010 A  
HETATM   20  O   UNL     1     -11.444  15.915  71.883  1.00  0.00    -0.406 OA 
HETATM   21  C   UNL     1     -10.861  15.655  69.571  1.00  0.00    -0.271 A  
HETATM   22  H   UNL     1     -11.545  15.558  72.757  1.00  0.00     0.000 HD 
HETATM   23  C   UNL     1     -10.224  12.961  70.117  1.00  0.00     2.471 A  
HETATM   24  C   UNL     1     -10.023  13.504  68.838  1.00  0.00     0.009 A  
BRANCH  23  25
HETATM   25  C   UNL     1      -9.932  11.561  70.487  1.00  0.00     3.357 C  
HETATM   26  C   UNL     1      -9.767  11.081  71.731  1.00  0.00     9.068 C  
BRANCH  26  27
HETATM   27  C   UNL     1      -9.278   9.714  72.021  1.00  0.00     1.991 A  
HETATM   28  C   UNL     1      -9.390   8.731  71.023  1.00  0.00    -0.280 A  
HETATM   29  C   UNL     1      -9.024   7.404  71.269  1.00  0.00    -0.140 A  
HETATM   30  C   UNL     1      -8.524   7.053  72.518  1.00  0.00    -0.112 A  
HETATM   31  C   UNL     1      -8.352   8.013  73.504  1.00  0.00    -0.292 A  
HETATM   32  O   UNL     1      -8.193   5.764  72.815  1.00  0.00    -0.111 OA 
HETATM   33  H   UNL     1      -7.851   5.523  73.669  1.00  0.00     0.000 HD 
HETATM   34  C   UNL     1      -8.723   9.340  73.256  1.00  0.00     2.180 A  
ENDBRANCH  26  27
ENDBRANCH  23  25
ENDBRANCH  16  17
ENDBRANCH   6  16
ENDBRANCH   3   4
TORSDOF 5
ENDMDL
MODEL      183
REMARK 921   NORMALIZED FREE ENERGY PREDICTED BY IDOCK:   27.64 KCAL/MOL
REMARK 922        TOTAL FREE ENERGY PREDICTED BY IDOCK:   34.64 KCAL/MOL
REMARK 923 INTER-LIGAND FREE ENERGY PREDICTED BY IDOCK:   -1.10 KCAL/MOL
REMARK 924 INTRA-LIGAND FREE ENERGY PREDICTED BY IDOCK:   35.74 KCAL/MOL
REMARK 927      BINDING AFFINITY PREDICTED BY RF-SCORE:    0.00 PKD
ROOT
HETATM    1  O   UNL     1      -6.322  12.011  67.104  1.00  0.00    -0.138 OA 
HETATM    2  H   UNL     1      -5.918  12.711  67.604  1.00  0.00     0.000 HD 
HETATM    3  C   UNL     1      -7.633  12.359  66.674  1.00  0.00     0.298 C  
ENDROOT
BRANCH   3   4
HETATM    4  C   UNL     1      -8.289  11.223  65.863  1.00  0.00    -0.023 C  
HETATM    5  O   UNL     1      -7.471  10.032  65.821  1.00  0.00    -0.109 OA 
HETATM    6  C   UNL     1      -7.414   9.281  67.051  1.00  0.00    -0.091 C  
HETATM    7  C   UNL     1      -8.851   8.859  67.469  1.00  0.00    -0.130 C  
HETATM    8  H   UNL     1     -10.080  11.554  68.799  1.00  0.00     0.000 HD 
HETATM    9  C   UNL     1      -9.797  10.064  67.562  1.00  0.00    -0.175 C  
HETATM   10  O   UNL     1      -9.425   7.911  66.545  1.00  0.00    -0.196 OA 
HETATM   11  H   UNL     1     -11.308  10.073  65.447  1.00  0.00     0.000 HD 
HETATM   12  C   UNL     1      -9.741  10.916  66.282  1.00  0.00    -0.204 C  
HETATM   13  H   UNL     1     -10.303   7.653  66.800  1.00  0.00     0.000 HD 
HETATM   14  O   UNL     1      -9.494  10.808  68.742  1.00  0.00    -0.170 OA 
HETATM   15  O   UNL     1     -10.413  10.262  65.189  1.00  0.00    -0.222 OA 
BRANCH   6  16
HETATM   16  O   UNL     1      -6.695  10.037  68.027  1.00  0.00    -0.063 OA 
BRANCH  16  17
HETATM   17  C   UNL     1      -6.859  11.388  68.106  1.00  0.00    -0.064 A  
HETATM   18  C   UNL     1      -6.171  13.665  67.796  1.00  0.00    -0.152 A  
HETATM   19  C   UNL     1      -7.207  14.107  68.612  1.00  0.00    -0.116 A  
HETATM   20  O   UNL     1      -5.313  14.600  67.291  1.00  0.00    -0.290 OA 
HETATM   21  C   UNL     1      -6.002  12.314  67.519  1.00  0.00    -0.136 A  
HETATM   22  H   UNL     1      -5.428  15.523  67.481  1.00  0.00     0.000 HD 
HETATM   23  C   UNL     1      -8.105  13.197  69.180  1.00  0.00     0.473 A  
HETATM   24  C   UNL     1      -7.900  11.829  68.944  1.00  0.00    -0.013 A  
BRANCH  23  25
HETATM   25  C   UNL     1      -9.187  13.748  70.022  1.00  0.00     2.309 C  
HETATM   26  C   UNL     1     -10.507  13.613  69.817  1.00  0.00     0.612 C  
BRANCH  26  27
HETATM   27  C   UNL     1     -11.534  14.359  70.580  1.00  0.00    -0.170 A  
HETATM   28  C   UNL     1     -11.185  15.595  71.149  1.00  0.00    -0.409 A  
HETATM   29  C   UNL     1     -12.086  16.303  71.952  1.00  0.00    -0.447 A  
HETATM   30  C   UNL     1     -13.355  15.781  72.178  1.00  0.00    -0.407 A  
HETATM   31  C   UNL     1     -13.744  14.588  71.586  1.00  0.00    -0.486 A  
HETATM   32  O   UNL     1     -14.251  16.416  72.987  1.00  0.00    -0.250 OA 
HETATM   33  H   UNL     1     -15.119  16.060  73.142  1.00  0.00     0.000 HD 
HETATM   34  C   UNL     1     -12.839  13.882  70.785  1.00  0.00    -0.329 A  
ENDBRANCH  26  27
ENDBRANCH  23  25
ENDBRANCH  16  17
ENDBRANCH   6  16
ENDBRANCH   3   4
TORSDOF 5
ENDMDL
MODEL      184
REMARK 921   NORMALIZED FREE ENERGY PREDICTED BY IDOCK:   31.00 KCAL/MOL
REMARK 922        TOTAL FREE ENERGY PREDICTED BY IDOCK:   38.98 KCAL/MOL
REMARK 923 INTER-LIGAND FREE ENERGY PREDICTED BY IDOCK:   28.43 KCAL/MOL
REMARK 924 INTRA-LIGAND FREE ENERGY PREDICTED BY IDOCK:   10.54 KCAL/MOL
REMARK 927      BINDING AFFINITY PREDICTED BY RF-SCORE:    0.00 PKD
ROOT
HETATM    1  O   UNL     1      -7.221  17.759  68.707  1.00  0.00    -0.256 OA 
HETATM    2  H   UNL     1      -6.848  17.597  67.849  1.00  0.00     0.000 HD 
HETATM    3  C   UNL     1      -7.720  19.087  68.823  1.00  0.00    -0.347 C  
ENDROOT
BRANCH   3   4
HETATM    4  C   UNL     1      -8.325  19.350  70.217  1.00  0.00     1.496 C  
HETATM    5  O   UNL     1      -9.673  19.866  70.145  1.00  0.00     0.185 OA 
HETATM    6  C   UNL     1     -10.679  18.908  69.759  1.00  0.00     1.610 C  
HETATM    7  C   UNL     1     -10.676  17.718  70.761  1.00  0.00     1.941 C  
HETATM    8  H   UNL     1      -8.144  15.924  69.806  1.00  0.00     0.000 HD 
HETATM    9  C   UNL     1      -9.284  17.086  70.894  1.00  0.00     4.959 C  
HETATM   10  O   UNL     1     -11.110  18.121  72.077  1.00  0.00     1.157 OA 
HETATM   11  H   UNL     1      -8.235  17.894  73.130  1.00  0.00     0.000 HD 
HETATM   12  C   UNL     1      -8.212  18.151  71.182  1.00  0.00     7.331 C  
HETATM   13  H   UNL     1     -11.108  17.395  72.690  1.00  0.00     0.000 HD 
HETATM   14  O   UNL     1      -9.006  16.315  69.724  1.00  0.00     0.088 OA 
HETATM   15  O   UNL     1      -8.305  18.633  72.536  1.00  0.00     9.183 OA 
BRANCH   6  16
HETATM   16  O   UNL     1     -10.482  18.548  68.391  1.00  0.00    -0.345 OA 
BRANCH  16  17
HETATM   17  C   UNL     1     -10.582  17.245  68.002  1.00  0.00    -0.394 A  
HETATM   18  C   UNL     1     -11.733  15.351  67.085  1.00  0.00     0.040 A  
HETATM   19  C   UNL     1     -10.732  14.500  67.540  1.00  0.00    -0.276 A  
HETATM   20  O   UNL     1     -12.804  14.793  66.446  1.00  0.00    -0.142 OA 
HETATM   21  C   UNL     1     -11.657  16.723  67.289  1.00  0.00     0.747 A  
HETATM   22  H   UNL     1     -12.856  13.855  66.306  1.00  0.00     0.000 HD 
HETATM   23  C   UNL     1      -9.621  15.007  68.223  1.00  0.00    -0.210 A  
HETATM   24  C   UNL     1      -9.574  16.386  68.478  1.00  0.00    -0.229 A  
BRANCH  23  25
HETATM   25  C   UNL     1      -8.595  14.039  68.661  1.00  0.00    -0.100 C  
HETATM   26  C   UNL     1      -8.651  12.703  68.534  1.00  0.00    -0.051 C  
BRANCH  26  27
HETATM   27  C   UNL     1      -7.685  11.780  69.174  1.00  0.00     0.115 A  
HETATM   28  C   UNL     1      -7.364  10.580  68.519  1.00  0.00    -0.088 A  
HETATM   29  C   UNL     1      -6.525   9.632  69.114  1.00  0.00    -0.044 A  
HETATM   30  C   UNL     1      -5.987   9.889  70.371  1.00  0.00    -0.075 A  
HETATM   31  C   UNL     1      -6.246  11.089  71.017  1.00  0.00     0.421 A  
HETATM   32  O   UNL     1      -5.198   8.976  71.007  1.00  0.00    -0.027 OA 
HETATM   33  H   UNL     1      -4.830   9.150  71.865  1.00  0.00     0.000 HD 
HETATM   34  C   UNL     1      -7.087  12.034  70.419  1.00  0.00     1.745 A  
ENDBRANCH  26  27
ENDBRANCH  23  25
ENDBRANCH  16  17
ENDBRANCH   6  16
ENDBRANCH   3   4
TORSDOF 5
ENDMDL
MODEL      185
REMARK 921   NORMALIZED FREE ENERGY PREDICTED BY IDOCK:   35.91 KCAL/MOL
REMARK 922        TOTAL FREE ENERGY PREDICTED BY IDOCK:   45.32 KCAL/MOL
REMARK 923 INTER-LIGAND FREE ENERGY PREDICTED BY IDOCK:   14.19 KCAL/MOL
REMARK 924 INTRA-LIGAND FREE ENERGY PREDICTED BY IDOCK:   31.13 KCAL/MOL
REMARK 927      BINDING AFFINITY PREDICTED BY RF-SCORE:    0.00 PKD
ROOT
HETATM    1  O   UNL     1      -9.973   6.449  66.973  1.00  0.00    -0.142 OA 
HETATM    2  H   UNL     1     -10.682   6.578  66.353  1.00  0.00     0.000 HD 
HETATM    3  C   UNL     1      -8.757   7.024  66.508  1.00  0.00    -0.134 C  
ENDROOT
BRANCH   3   4
HETATM    4  C   UNL     1      -7.606   6.815  67.513  1.00  0.00    -0.106 C  
HETATM    5  O   UNL     1      -8.060   6.835  68.885  1.00  0.00    -0.117 OA 
HETATM    6  C   UNL     1      -8.798   5.669  69.306  1.00  0.00    -0.111 C  
HETATM    7  C   UNL     1      -7.919   4.400  69.112  1.00  0.00    -0.068 C  
HETATM    8  H   UNL     1      -8.150   3.791  65.932  1.00  0.00     0.000 HD 
HETATM    9  C   UNL     1      -7.401   4.278  67.674  1.00  0.00    -0.069 C  
HETATM   10  O   UNL     1      -6.780   4.394  69.999  1.00  0.00    -0.032 OA 
HETATM   11  H   UNL     1      -4.904   5.000  67.646  1.00  0.00     0.000 HD 
HETATM   12  C   UNL     1      -6.729   5.582  67.209  1.00  0.00    -0.059 C  
HETATM   13  H   UNL     1      -6.243   3.619  69.881  1.00  0.00     0.000 HD 
HETATM   14  O   UNL     1      -8.471   3.867  66.822  1.00  0.00    -0.103 OA 
HETATM   15  O   UNL     1      -5.444   5.759  67.834  1.00  0.00    -0.007 OA 
BRANCH   6  16
HETATM   16  O   UNL     1     -10.057   5.643  68.631  1.00  0.00    -0.156 OA 
BRANCH  16  17
HETATM   17  C   UNL     1     -10.389   6.638  67.760  1.00  0.00    -0.196 A  
HETATM   18  C   UNL     1     -11.074   7.497  65.628  1.00  0.00     4.850 A  
HETATM   19  C   UNL     1     -10.746   8.789  66.023  1.00  0.00     1.249 A  
HETATM   20  O   UNL     1     -11.533   7.316  64.354  1.00  0.00    11.493 OA 
HETATM   21  C   UNL     1     -10.922   6.421  66.493  1.00  0.00    -0.014 A  
HETATM   22  H   UNL     1     -11.636   8.052  63.763  1.00  0.00     0.000 HD 
HETATM   23  C   UNL     1     -10.247   9.037  67.307  1.00  0.00    -0.323 A  
HETATM   24  C   UNL     1     -10.042   7.942  68.160  1.00  0.00    -0.228 A  
BRANCH  23  25
HETATM   25  C   UNL     1      -9.938  10.439  67.655  1.00  0.00    -0.205 C  
HETATM   26  C   UNL     1      -9.074  11.248  67.020  1.00  0.00    -0.167 C  
BRANCH  26  27
HETATM   27  C   UNL     1      -8.659  12.571  67.540  1.00  0.00    -0.183 A  
HETATM   28  C   UNL     1      -9.295  13.720  67.043  1.00  0.00    -0.250 A  
HETATM   29  C   UNL     1      -8.887  15.000  67.434  1.00  0.00    -0.202 A  
HETATM   30  C   UNL     1      -7.844  15.137  68.344  1.00  0.00    -0.127 A  
HETATM   31  C   UNL     1      -7.234  14.018  68.891  1.00  0.00    -0.108 A  
HETATM   32  O   UNL     1      -7.386  16.365  68.721  1.00  0.00    -0.177 OA 
HETATM   33  H   UNL     1      -6.674  16.459  69.343  1.00  0.00     0.000 HD 
HETATM   34  C   UNL     1      -7.643  12.738  68.496  1.00  0.00    -0.120 A  
ENDBRANCH  26  27
ENDBRANCH  23  25
ENDBRANCH  16  17
ENDBRANCH   6  16
ENDBRANCH   3   4
TORSDOF 5
ENDMDL
MODEL      186
REMARK 921   NORMALIZED FREE ENERGY PREDICTED BY IDOCK:   37.20 KCAL/MOL
REMARK 922        TOTAL FREE ENERGY PREDICTED BY IDOCK:   46.99 KCAL/MOL
REMARK 923 INTER-LIGAND FREE ENERGY PREDICTED BY IDOCK:   22.30 KCAL/MOL
REMARK 924 INTRA-LIGAND FREE ENERGY PREDICTED BY IDOCK:   24.68 KCAL/MOL
REMARK 927      BINDING AFFINITY PREDICTED BY RF-SCORE:    0.00 PKD
ROOT
HETATM    1  O   UNL     1      -9.482   3.101  69.745  1.00  0.00    -0.162 OA 
HETATM    2  H   UNL     1     -10.419   3.099  69.903  1.00  0.00     0.000 HD 
HETATM    3  C   UNL     1      -9.105   4.119  68.825  1.00  0.00    -0.133 C  
ENDROOT
BRANCH   3   4
HETATM    4  C   UNL     1      -7.584   4.122  68.569  1.00  0.00    -0.063 C  
HETATM    5  O   UNL     1      -7.199   3.206  67.520  1.00  0.00    -0.053 OA 
HETATM    6  C   UNL     1      -7.543   3.623  66.182  1.00  0.00    -0.081 C  
HETATM    7  C   UNL     1      -6.886   4.999  65.881  1.00  0.00    -0.061 C  
HETATM    8  H   UNL     1      -8.830   7.119  67.386  1.00  0.00     0.000 HD 
HETATM    9  C   UNL     1      -7.252   6.052  66.935  1.00  0.00    -0.071 C  
HETATM   10  O   UNL     1      -5.446   4.907  65.823  1.00  0.00    -0.012 OA 
HETATM   11  H   UNL     1      -5.215   6.357  68.520  1.00  0.00     0.000 HD 
HETATM   12  C   UNL     1      -6.990   5.531  68.359  1.00  0.00    -0.064 C  
HETATM   13  H   UNL     1      -5.044   5.748  65.639  1.00  0.00     0.000 HD 
HETATM   14  O   UNL     1      -8.603   6.468  66.732  1.00  0.00    -0.113 OA 
HETATM   15  O   UNL     1      -5.580   5.489  68.649  1.00  0.00    -0.007 OA 
BRANCH   6  16
HETATM   16  O   UNL     1      -8.964   3.584  66.032  1.00  0.00    -0.127 OA 
BRANCH  16  17
HETATM   17  C   UNL     1      -9.759   4.370  66.813  1.00  0.00    -0.215 A  
HETATM   18  C   UNL     1     -11.708   4.829  68.132  1.00  0.00     6.169 A  
HETATM   19  C   UNL     1     -11.410   6.187  68.132  1.00  0.00     0.069 A  
HETATM   20  O   UNL     1     -12.852   4.426  68.760  1.00  0.00    16.270 OA 
HETATM   21  C   UNL     1     -10.880   3.912  67.497  1.00  0.00     2.741 A  
HETATM   22  H   UNL     1     -13.419   5.053  69.194  1.00  0.00     0.000 HD 
HETATM   23  C   UNL     1     -10.266   6.666  67.485  1.00  0.00    -0.229 A  
HETATM   24  C   UNL     1      -9.460   5.745  66.797  1.00  0.00    -0.154 A  
BRANCH  23  25
HETATM   25  C   UNL     1     -10.012   8.120  67.544  1.00  0.00    -0.251 C  
HETATM   26  C   UNL     1      -8.812   8.720  67.601  1.00  0.00    -0.138 C  
BRANCH  26  27
HETATM   27  C   UNL     1      -8.633  10.166  67.863  1.00  0.00    -0.118 A  
HETATM   28  C   UNL     1      -7.447  10.598  68.479  1.00  0.00    -0.093 A  
HETATM   29  C   UNL     1      -7.259  11.940  68.829  1.00  0.00    -0.112 A  
HETATM   30  C   UNL     1      -8.257  12.866  68.547  1.00  0.00    -0.065 A  
HETATM   31  C   UNL     1      -9.416  12.476  67.892  1.00  0.00    -0.196 A  
HETATM   32  O   UNL     1      -8.135  14.176  68.907  1.00  0.00    -0.248 OA 
HETATM   33  H   UNL     1      -8.817  14.809  68.715  1.00  0.00     0.000 HD 
HETATM   34  C   UNL     1      -9.602  11.132  67.546  1.00  0.00    -0.181 A  
ENDBRANCH  26  27
ENDBRANCH  23  25
ENDBRANCH  16  17
ENDBRANCH   6  16
ENDBRANCH   3   4
TORSDOF 5
ENDMDL
MODEL      187
REMARK 921   NORMALIZED FREE ENERGY PREDICTED BY IDOCK:   39.15 KCAL/MOL
REMARK 922        TOTAL FREE ENERGY PREDICTED BY IDOCK:   49.51 KCAL/MOL
REMARK 923 INTER-LIGAND FREE ENERGY PREDICTED BY IDOCK:   45.24 KCAL/MOL
REMARK 924 INTRA-LIGAND FREE ENERGY PREDICTED BY IDOCK:    4.27 KCAL/MOL
REMARK 927      BINDING AFFINITY PREDICTED BY RF-SCORE:    0.00 PKD
ROOT
HETATM    1  O   UNL     1      -9.445  15.699  70.420  1.00  0.00     0.070 OA 
HETATM    2  H   UNL     1      -9.988  15.110  69.910  1.00  0.00     0.000 HD 
HETATM    3  C   UNL     1      -9.028  15.104  71.644  1.00  0.00     4.531 C  
ENDROOT
BRANCH   3   4
HETATM    4  C   UNL     1      -8.146  16.060  72.473  1.00  0.00    12.270 C  
HETATM    5  O   UNL     1      -6.765  15.636  72.519  1.00  0.00     3.118 OA 
HETATM    6  C   UNL     1      -6.023  15.821  71.296  1.00  0.00     0.672 C  
HETATM    7  C   UNL     1      -6.049  17.324  70.895  1.00  0.00     0.983 C  
HETATM    8  H   UNL     1      -8.979  17.705  69.551  1.00  0.00     0.000 HD 
HETATM    9  C   UNL     1      -7.481  17.867  70.800  1.00  0.00     4.023 C  
HETATM   10  O   UNL     1      -5.322  18.144  71.835  1.00  0.00    -0.435 OA 
HETATM   11  H   UNL     1      -7.956  19.280  72.929  1.00  0.00     0.000 HD 
HETATM   12  C   UNL     1      -8.286  17.543  72.070  1.00  0.00    13.673 C  
HETATM   13  H   UNL     1      -5.337  19.062  71.590  1.00  0.00     0.000 HD 
HETATM   14  O   UNL     1      -8.093  17.369  69.609  1.00  0.00     0.420 OA 
HETATM   15  O   UNL     1      -7.870  18.366  73.177  1.00  0.00     8.193 OA 
BRANCH   6  16
HETATM   16  O   UNL     1      -6.523  14.921  70.305  1.00  0.00    -0.172 OA 
BRANCH  16  17
HETATM   17  C   UNL     1      -6.661  15.331  69.012  1.00  0.00    -0.122 A  
HETATM   18  C   UNL     1      -6.388  16.878  67.200  1.00  0.00    -0.186 A  
HETATM   19  C   UNL     1      -7.286  16.155  66.424  1.00  0.00     0.138 A  
HETATM   20  O   UNL     1      -5.860  18.020  66.668  1.00  0.00    -0.139 OA 
HETATM   21  C   UNL     1      -6.051  16.464  68.482  1.00  0.00    -0.123 A  
HETATM   22  H   UNL     1      -6.090  18.303  65.791  1.00  0.00     0.000 HD 
HETATM   23  C   UNL     1      -7.881  14.989  66.920  1.00  0.00    -0.056 A  
HETATM   24  C   UNL     1      -7.583  14.604  68.236  1.00  0.00    -0.118 A  
BRANCH  23  25
HETATM   25  C   UNL     1      -8.813  14.270  66.028  1.00  0.00     0.443 C  
HETATM   26  C   UNL     1     -10.138  14.470  65.927  1.00  0.00    -0.346 C  
BRANCH  26  27
HETATM   27  C   UNL     1     -11.042  13.580  65.165  1.00  0.00    -0.326 A  
HETATM   28  C   UNL     1     -10.480  12.636  64.290  1.00  0.00    -0.417 A  
HETATM   29  C   UNL     1     -11.286  11.828  63.480  1.00  0.00    -0.496 A  
HETATM   30  C   UNL     1     -12.669  11.949  63.556  1.00  0.00    -0.405 A  
HETATM   31  C   UNL     1     -13.252  12.835  64.450  1.00  0.00     0.207 A  
HETATM   32  O   UNL     1     -13.492  11.211  62.756  1.00  0.00     0.352 OA 
HETATM   33  H   UNL     1     -14.437  11.293  62.808  1.00  0.00     0.000 HD 
HETATM   34  C   UNL     1     -12.443  13.644  65.256  1.00  0.00    -0.517 A  
ENDBRANCH  26  27
ENDBRANCH  23  25
ENDBRANCH  16  17
ENDBRANCH   6  16
ENDBRANCH   3   4
TORSDOF 5
ENDMDL
MODEL      188
REMARK 921   NORMALIZED FREE ENERGY PREDICTED BY IDOCK:   54.09 KCAL/MOL
REMARK 922        TOTAL FREE ENERGY PREDICTED BY IDOCK:   68.82 KCAL/MOL
REMARK 923 INTER-LIGAND FREE ENERGY PREDICTED BY IDOCK:   35.57 KCAL/MOL
REMARK 924 INTRA-LIGAND FREE ENERGY PREDICTED BY IDOCK:   33.25 KCAL/MOL
REMARK 927      BINDING AFFINITY PREDICTED BY RF-SCORE:    0.00 PKD
ROOT
HETATM    1  O   UNL     1      -9.970  16.236  69.839  1.00  0.00    -0.143 OA 
HETATM    2  H   UNL     1     -10.709  16.484  70.382  1.00  0.00     0.000 HD 
HETATM    3  C   UNL     1     -10.000  14.852  69.508  1.00  0.00    -0.077 C  
ENDROOT
BRANCH   3   4
HETATM    4  C   UNL     1      -8.801  14.449  68.627  1.00  0.00    -0.167 C  
HETATM    5  O   UNL     1      -8.815  13.045  68.283  1.00  0.00    -0.189 OA 
HETATM    6  C   UNL     1      -9.809  12.660  67.312  1.00  0.00    -0.206 C  
HETATM    7  C   UNL     1      -9.597  13.471  66.001  1.00  0.00    -0.161 C  
HETATM    8  H   UNL     1     -10.913  16.362  66.674  1.00  0.00     0.000 HD 
HETATM    9  C   UNL     1      -9.586  14.983  66.260  1.00  0.00    -0.307 C  
HETATM   10  O   UNL     1      -8.360  13.121  65.346  1.00  0.00     1.475 OA 
HETATM   11  H   UNL     1      -7.120  15.801  66.186  1.00  0.00     0.000 HD 
HETATM   12  C   UNL     1      -8.607  15.349  67.389  1.00  0.00    -0.179 C  
HETATM   13  H   UNL     1      -8.230  13.617  64.545  1.00  0.00     0.000 HD 
HETATM   14  O   UNL     1     -10.920  15.426  66.513  1.00  0.00    -0.315 OA 
HETATM   15  O   UNL     1      -7.239  15.246  66.948  1.00  0.00    -0.161 OA 
BRANCH   6  16
HETATM   16  O   UNL     1     -11.107  12.782  67.897  1.00  0.00    -0.225 OA 
BRANCH  16  17
HETATM   17  C   UNL     1     -11.238  13.087  69.220  1.00  0.00    -0.199 A  
HETATM   18  C   UNL     1     -12.219  12.864  71.397  1.00  0.00     0.224 A  
HETATM   19  C   UNL     1     -11.589  14.029  71.819  1.00  0.00     0.900 A  
HETATM   20  O   UNL     1     -13.042  12.226  72.281  1.00  0.00    -0.396 OA 
HETATM   21  C   UNL     1     -12.032  12.372  70.111  1.00  0.00    -0.376 A  
HETATM   22  H   UNL     1     -13.170  12.563  73.160  1.00  0.00     0.000 HD 
HETATM   23  C   UNL     1     -10.753  14.742  70.953  1.00  0.00     0.286 A  
HETATM   24  C   UNL     1     -10.610  14.275  69.637  1.00  0.00     0.035 A  
BRANCH  23  25
HETATM   25  C   UNL     1     -10.110  15.962  71.482  1.00  0.00     2.233 C  
HETATM   26  C   UNL     1     -10.061  17.164  70.884  1.00  0.00     2.691 C  
BRANCH  26  27
HETATM   27  C   UNL     1      -9.229  18.287  71.373  1.00  0.00     7.744 A  
HETATM   28  C   UNL     1      -8.586  19.109  70.433  1.00  0.00     2.081 A  
HETATM   29  C   UNL     1      -7.720  20.131  70.837  1.00  0.00     1.401 A  
HETATM   30  C   UNL     1      -7.503  20.347  72.193  1.00  0.00     1.921 A  
HETATM   31  C   UNL     1      -8.165  19.584  73.144  1.00  0.00     4.919 A  
HETATM   32  O   UNL     1      -6.635  21.304  72.631  1.00  0.00     1.507 OA 
HETATM   33  H   UNL     1      -6.487  21.452  73.558  1.00  0.00     0.000 HD 
HETATM   34  C   UNL     1      -9.029  18.561  72.737  1.00  0.00    11.258 A  
ENDBRANCH  26  27
ENDBRANCH  23  25
ENDBRANCH  16  17
ENDBRANCH   6  16
ENDBRANCH   3   4
TORSDOF 5
ENDMDL
MODEL      189
REMARK 921   NORMALIZED FREE ENERGY PREDICTED BY IDOCK:   75.14 KCAL/MOL
REMARK 922        TOTAL FREE ENERGY PREDICTED BY IDOCK:   96.02 KCAL/MOL
REMARK 923 INTER-LIGAND FREE ENERGY PREDICTED BY IDOCK:   56.97 KCAL/MOL
REMARK 924 INTRA-LIGAND FREE ENERGY PREDICTED BY IDOCK:   39.05 KCAL/MOL
REMARK 927      BINDING AFFINITY PREDICTED BY RF-SCORE:    0.00 PKD
ROOT
HETATM    1  O   UNL     1      -6.296  12.003  66.953  1.00  0.00    -0.252 OA 
HETATM    2  H   UNL     1      -5.849  12.825  67.124  1.00  0.00     0.000 HD 
HETATM    3  C   UNL     1      -7.676  12.202  66.668  1.00  0.00     0.127 C  
ENDROOT
BRANCH   3   4
HETATM    4  C   UNL     1      -8.399  10.869  66.391  1.00  0.00    -0.162 C  
HETATM    5  O   UNL     1      -7.480   9.792  66.099  1.00  0.00    -0.097 OA 
HETATM    6  C   UNL     1      -6.741   9.291  67.231  1.00  0.00    -0.069 C  
HETATM    7  C   UNL     1      -7.732   8.792  68.321  1.00  0.00    -0.100 C  
HETATM    8  H   UNL     1      -8.716  11.526  69.768  1.00  0.00     0.000 HD 
HETATM    9  C   UNL     1      -8.743   9.876  68.715  1.00  0.00    -0.132 C  
HETATM   10  O   UNL     1      -8.470   7.630  67.885  1.00  0.00    -0.122 OA 
HETATM   11  H   UNL     1     -11.012   9.324  67.573  1.00  0.00     0.000 HD 
HETATM   12  C   UNL     1      -9.426  10.480  67.475  1.00  0.00    -0.149 C  
HETATM   13  H   UNL     1      -9.076   7.325  68.550  1.00  0.00     0.000 HD 
HETATM   14  O   UNL     1      -8.090  10.855  69.524  1.00  0.00    -0.059 OA 
HETATM   15  O   UNL     1     -10.380   9.563  66.905  1.00  0.00    -0.240 OA 
BRANCH   6  16
HETATM   16  O   UNL     1      -5.817  10.291  67.665  1.00  0.00    -0.045 OA 
BRANCH  16  17
HETATM   17  C   UNL     1      -6.068  11.609  67.424  1.00  0.00    -0.097 A  
HETATM   18  C   UNL     1      -5.905  13.639  66.157  1.00  0.00     5.297 A  
HETATM   19  C   UNL     1      -6.410  14.368  67.227  1.00  0.00     0.369 A  
HETATM   20  O   UNL     1      -5.546  14.322  65.030  1.00  0.00    12.381 OA 
HETATM   21  C   UNL     1      -5.752  12.260  66.236  1.00  0.00     1.270 A  
HETATM   22  H   UNL     1      -5.650  15.265  64.976  1.00  0.00     0.000 HD 
HETATM   23  C   UNL     1      -6.773  13.730  68.418  1.00  0.00    -0.100 A  
HETATM   24  C   UNL     1      -6.565  12.345  68.516  1.00  0.00    -0.073 A  
BRANCH  23  25
HETATM   25  C   UNL     1      -7.315  14.574  69.502  1.00  0.00    -0.063 C  
HETATM   26  C   UNL     1      -8.531  14.469  70.064  1.00  0.00     0.886 C  
BRANCH  26  27
HETATM   27  C   UNL     1      -9.087  15.472  71.001  1.00  0.00     2.616 A  
HETATM   28  C   UNL     1     -10.425  15.870  70.846  1.00  0.00     0.389 A  
HETATM   29  C   UNL     1     -10.978  16.875  71.647  1.00  0.00     1.195 A  
HETATM   30  C   UNL     1     -10.195  17.480  72.624  1.00  0.00     6.760 A  
HETATM   31  C   UNL     1      -8.887  17.069  72.833  1.00  0.00    16.798 A  
HETATM   32  O   UNL     1     -10.681  18.492  73.399  1.00  0.00     1.395 OA 
HETATM   33  H   UNL     1     -10.146  18.905  74.067  1.00  0.00     0.000 HD 
HETATM   34  C   UNL     1      -8.335  16.065  72.029  1.00  0.00     9.247 A  
ENDBRANCH  26  27
ENDBRANCH  23  25
ENDBRANCH  16  17
ENDBRANCH   6  16
ENDBRANCH   3   4
TORSDOF 5
ENDMDL
MODEL      190
REMARK 921   NORMALIZED FREE ENERGY PREDICTED BY IDOCK:   86.32 KCAL/MOL
REMARK 922        TOTAL FREE ENERGY PREDICTED BY IDOCK:  110.47 KCAL/MOL
REMARK 923 INTER-LIGAND FREE ENERGY PREDICTED BY IDOCK:  100.59 KCAL/MOL
REMARK 924 INTRA-LIGAND FREE ENERGY PREDICTED BY IDOCK:    9.89 KCAL/MOL
REMARK 927      BINDING AFFINITY PREDICTED BY RF-SCORE:    0.00 PKD
ROOT
HETATM    1  O   UNL     1     -11.171  17.760  72.651  1.00  0.00     0.733 OA 
HETATM    2  H   UNL     1     -11.040  17.354  73.500  1.00  0.00     0.000 HD 
HETATM    3  C   UNL     1     -12.540  18.074  72.423  1.00  0.00     8.081 C  
ENDROOT
BRANCH   3   4
HETATM    4  C   UNL     1     -12.752  18.732  71.044  1.00  0.00    19.843 C  
HETATM    5  O   UNL     1     -11.510  19.144  70.432  1.00  0.00     4.319 OA 
HETATM    6  C   UNL     1     -10.689  18.071  69.925  1.00  0.00     1.274 C  
HETATM    7  C   UNL     1     -11.492  17.253  68.874  1.00  0.00     0.817 C  
HETATM    8  H   UNL     1     -13.408  15.359  70.684  1.00  0.00     0.000 HD 
HETATM    9  C   UNL     1     -12.827  16.752  69.438  1.00  0.00     3.766 C  
HETATM   10  O   UNL     1     -11.770  18.027  67.688  1.00  0.00     0.872 OA 
HETATM   11  H   UNL     1     -14.724  18.259  68.494  1.00  0.00     0.000 HD 
HETATM   12  C   UNL     1     -13.626  17.898  70.084  1.00  0.00    18.822 C  
HETATM   13  H   UNL     1     -12.261  17.528  67.045  1.00  0.00     0.000 HD 
HETATM   14  O   UNL     1     -12.581  15.668  70.335  1.00  0.00    -0.426 OA 
HETATM   15  O   UNL     1     -14.185  18.773  69.085  1.00  0.00    15.631 OA 
BRANCH   6  16
HETATM   16  O   UNL     1     -10.180  17.313  71.024  1.00  0.00     1.964 OA 
BRANCH  16  17
HETATM   17  C   UNL     1     -10.388  15.966  71.083  1.00  0.00     0.980 A  
HETATM   18  C   UNL     1     -10.412  13.835  72.182  1.00  0.00     6.695 A  
HETATM   19  C   UNL     1     -10.567  13.188  70.961  1.00  0.00     4.572 A  
HETATM   20  O   UNL     1     -10.308  13.064  73.305  1.00  0.00    11.172 OA 
HETATM   21  C   UNL     1     -10.345  15.220  72.257  1.00  0.00     2.218 A  
HETATM   22  H   UNL     1     -10.354  12.117  73.254  1.00  0.00     0.000 HD 
HETATM   23  C   UNL     1     -10.655  13.919  69.772  1.00  0.00     0.333 A  
HETATM   24  C   UNL     1     -10.531  15.315  69.843  1.00  0.00    -0.277 A  
BRANCH  23  25
HETATM   25  C   UNL     1     -10.835  13.158  68.519  1.00  0.00    -0.285 C  
HETATM   26  C   UNL     1      -9.977  13.103  67.487  1.00  0.00    -0.223 C  
BRANCH  26  27
HETATM   27  C   UNL     1     -10.308  12.488  66.181  1.00  0.00    -0.274 A  
HETATM   28  C   UNL     1      -9.511  12.801  65.067  1.00  0.00     0.307 A  
HETATM   29  C   UNL     1      -9.827  12.318  63.793  1.00  0.00    -0.204 A  
HETATM   30  C   UNL     1     -10.939  11.500  63.628  1.00  0.00    -0.404 A  
HETATM   31  C   UNL     1     -11.712  11.132  64.719  1.00  0.00     0.480 A  
HETATM   32  O   UNL     1     -11.308  11.040  62.397  1.00  0.00     0.056 OA 
HETATM   33  H   UNL     1     -12.067  10.481  62.284  1.00  0.00     0.000 HD 
HETATM   34  C   UNL     1     -11.395  11.619  65.993  1.00  0.00    -0.261 A  
ENDBRANCH  26  27
ENDBRANCH  23  25
ENDBRANCH  16  17
ENDBRANCH   6  16
ENDBRANCH   3   4
TORSDOF 5
ENDMDL
