MODEL        1
REMARK 921   NORMALIZED FREE ENERGY PREDICTED BY IDOCK:   -7.40 KCAL/MOL
REMARK 922        TOTAL FREE ENERGY PREDICTED BY IDOCK:   -9.49 KCAL/MOL
REMARK 923 INTER-LIGAND FREE ENERGY PREDICTED BY IDOCK:   -9.13 KCAL/MOL
REMARK 924 INTRA-LIGAND FREE ENERGY PREDICTED BY IDOCK:   -0.36 KCAL/MOL
REMARK 927      BINDING AFFINITY PREDICTED BY RF-SCORE:    0.00 PKD
ROOT
HETATM    1  C   UNL     1     -13.554  13.595  72.363  1.00  0.00    -0.602 C  
HETATM    2  N   UNL     1     -13.042  13.550  70.977  1.00  0.00    -0.205 N  
HETATM    3  C   UNL     1     -12.228  12.375  70.620  1.00  0.00    -0.278 C  
HETATM    4  N   UNL     1     -12.172  12.303  69.158  1.00  0.00    -0.128 NA 
HETATM    5 CL   UNL     1     -10.338  13.931  64.709  1.00  0.00    -0.446 Cl 
HETATM    6  C   UNL     1     -11.667  13.389  68.446  1.00  0.00    -0.355 A  
HETATM    7  C   UNL     1     -11.230  15.782  68.186  1.00  0.00    -0.344 A  
HETATM    8  H   UNL     1     -12.497  11.469  68.668  1.00  0.00     0.000 HD 
HETATM    9  C   UNL     1     -11.277  13.219  67.109  1.00  0.00    -0.327 A  
HETATM   10  O   UNL     1     -11.014  15.023  71.418  1.00  0.00    -0.221 OA 
HETATM   11  O   UNL     1     -13.150  16.062  70.568  1.00  0.00    -0.292 OA 
HETATM   12  C   UNL     1     -10.832  14.299  66.323  1.00  0.00    -0.310 A  
HETATM   13  C   UNL     1     -10.803  15.584  66.870  1.00  0.00    -0.301 A  
HETATM   14  S   UNL     1     -12.197  14.973  70.586  1.00  0.00    -0.357 S  
HETATM   15  C   UNL     1     -11.660  14.688  68.943  1.00  0.00    -0.310 A  
ENDROOT
BRANCH   3  16
HETATM   16  C   UNL     1     -12.819  11.039  71.152  1.00  0.00    -0.392 C  
BRANCH  16  17
HETATM   17  S   UNL     1     -11.570   9.683  71.089  1.00  0.00    -0.408 SA 
BRANCH  17  18
HETATM   18  C   UNL     1     -12.353   8.468  72.228  1.00  0.00    -0.387 C  
HETATM   19  F   UNL     1     -12.359   6.931  70.375  1.00  0.00    -0.377 F  
HETATM   20  C   UNL     1     -12.677   7.079  71.679  1.00  0.00    -0.377 C  
HETATM   21  F   UNL     1     -13.994   6.801  71.808  1.00  0.00    -0.405 F  
HETATM   22  F   UNL     1     -11.994   6.133  72.365  1.00  0.00    -0.333 F  
ENDBRANCH  17  18
ENDBRANCH  16  17
ENDBRANCH   3  16
BRANCH  13  23
HETATM   23  S   UNL     1     -10.287  16.996  65.948  1.00  0.00    -0.225 S  
HETATM   24  H2  UNL     1     -11.121  18.258  67.869  1.00  0.00     0.000 HD 
HETATM   25  H1  UNL     1     -10.387  19.101  66.415  1.00  0.00     0.000 HD 
HETATM   26  N   UNL     1     -10.684  18.284  66.948  1.00  0.00    -0.312 N  
HETATM   27  O   UNL     1      -8.853  16.981  65.818  1.00  0.00    -0.523 OA 
HETATM   28  O   UNL     1     -11.158  17.146  64.804  1.00  0.00    -0.909 OA 
ENDBRANCH  13  23
TORSDOF 4
ENDMDL
MODEL        2
REMARK 921   NORMALIZED FREE ENERGY PREDICTED BY IDOCK:   -6.96 KCAL/MOL
REMARK 922        TOTAL FREE ENERGY PREDICTED BY IDOCK:   -8.95 KCAL/MOL
REMARK 923 INTER-LIGAND FREE ENERGY PREDICTED BY IDOCK:   -8.63 KCAL/MOL
REMARK 924 INTRA-LIGAND FREE ENERGY PREDICTED BY IDOCK:   -0.32 KCAL/MOL
REMARK 927      BINDING AFFINITY PREDICTED BY RF-SCORE:    0.00 PKD
ROOT
HETATM    1  C   UNL     1     -11.783  14.665  66.573  1.00  0.00    -0.325 C  
HETATM    2  N   UNL     1     -11.784  13.573  67.568  1.00  0.00    -0.345 N  
HETATM    3  C   UNL     1     -11.290  13.915  68.913  1.00  0.00    -0.282 C  
HETATM    4  N   UNL     1     -11.745  12.867  69.831  1.00  0.00    -0.485 NA 
HETATM    5 CL   UNL     1     -11.350   8.179  71.746  1.00  0.00    -0.311 Cl 
HETATM    6  C   UNL     1     -11.383  11.545  69.581  1.00  0.00    -0.256 A  
HETATM    7  C   UNL     1     -10.770   9.728  68.062  1.00  0.00    -0.298 A  
HETATM    8  H   UNL     1     -12.318  13.102  70.642  1.00  0.00     0.000 HD 
HETATM    9  C   UNL     1     -11.496  10.591  70.604  1.00  0.00    -0.418 A  
HETATM   10  O   UNL     1      -9.562  12.573  66.832  1.00  0.00    -0.216 OA 
HETATM   11  O   UNL     1     -11.715  11.669  65.877  1.00  0.00    -0.348 OA 
HETATM   12  C   UNL     1     -11.216   9.229  70.382  1.00  0.00    -0.247 A  
HETATM   13  C   UNL     1     -10.845   8.801  69.106  1.00  0.00    -0.053 A  
HETATM   14  S   UNL     1     -10.954  12.208  66.983  1.00  0.00    -0.287 S  
HETATM   15  C   UNL     1     -11.048  11.074  68.316  1.00  0.00    -0.257 A  
ENDROOT
BRANCH   3  16
HETATM   16  C   UNL     1     -11.825  15.280  69.429  1.00  0.00    -0.343 C  
BRANCH  16  17
HETATM   17  S   UNL     1     -12.973  15.053  70.855  1.00  0.00    -0.409 SA 
BRANCH  17  18
HETATM   18  C   UNL     1     -11.863  15.530  72.244  1.00  0.00    -0.467 C  
HETATM   19  F   UNL     1     -13.858  15.889  73.544  1.00  0.00    -0.521 F  
HETATM   20  C   UNL     1     -12.508  15.920  73.574  1.00  0.00    -0.568 C  
HETATM   21  F   UNL     1     -12.140  17.168  73.943  1.00  0.00    -0.455 F  
HETATM   22  F   UNL     1     -12.112  15.074  74.553  1.00  0.00    -0.703 F  
ENDBRANCH  17  18
ENDBRANCH  16  17
ENDBRANCH   3  16
BRANCH  13  23
HETATM   23  S   UNL     1     -10.504   7.111  68.734  1.00  0.00    -0.194 S  
HETATM   24  H2  UNL     1     -11.058   7.751  66.441  1.00  0.00     0.000 HD 
HETATM   25  H1  UNL     1     -10.573   6.034  66.865  1.00  0.00     0.000 HD 
HETATM   26  N   UNL     1     -10.769   7.011  67.080  1.00  0.00    -0.338 N  
HETATM   27  O   UNL     1      -9.107   6.846  68.962  1.00  0.00    -0.139 OA 
HETATM   28  O   UNL     1     -11.543   6.290  69.315  1.00  0.00    -0.363 OA 
ENDBRANCH  13  23
TORSDOF 4
ENDMDL
MODEL        3
REMARK 921   NORMALIZED FREE ENERGY PREDICTED BY IDOCK:   -6.95 KCAL/MOL
REMARK 922        TOTAL FREE ENERGY PREDICTED BY IDOCK:   -8.94 KCAL/MOL
REMARK 923 INTER-LIGAND FREE ENERGY PREDICTED BY IDOCK:   -8.66 KCAL/MOL
REMARK 924 INTRA-LIGAND FREE ENERGY PREDICTED BY IDOCK:   -0.27 KCAL/MOL
REMARK 927      BINDING AFFINITY PREDICTED BY RF-SCORE:    0.00 PKD
ROOT
HETATM    1  C   UNL     1      -8.283  15.849  66.401  1.00  0.00    -0.228 C  
HETATM    2  N   UNL     1      -9.164  15.200  67.393  1.00  0.00    -0.190 N  
HETATM    3  C   UNL     1     -10.201  14.301  66.856  1.00  0.00    -0.266 C  
HETATM    4  N   UNL     1     -10.676  13.463  67.960  1.00  0.00    -0.242 NA 
HETATM    5 CL   UNL     1     -13.442  12.835  72.175  1.00  0.00    -0.637 Cl 
HETATM    6  C   UNL     1     -11.205  14.074  69.095  1.00  0.00    -0.269 A  
HETATM    7  C   UNL     1     -11.360  15.947  70.661  1.00  0.00    -0.421 A  
HETATM    8  H   UNL     1     -10.620  12.446  67.899  1.00  0.00     0.000 HD 
HETATM    9  C   UNL     1     -11.974  13.319  69.993  1.00  0.00    -0.399 A  
HETATM   10  O   UNL     1     -10.761  17.168  67.625  1.00  0.00    -0.352 OA 
HETATM   11  O   UNL     1      -8.828  16.934  69.228  1.00  0.00    -0.127 OA 
HETATM   12  C   UNL     1     -12.468  13.868  71.191  1.00  0.00    -0.372 A  
HETATM   13  C   UNL     1     -12.163  15.191  71.520  1.00  0.00    -0.340 A  
HETATM   14  S   UNL     1      -9.879  16.347  68.426  1.00  0.00    -0.241 S  
HETATM   15  C   UNL     1     -10.891  15.375  69.475  1.00  0.00    -0.267 A  
ENDROOT
BRANCH   3  16
HETATM   16  C   UNL     1      -9.676  13.370  65.728  1.00  0.00    -0.129 C  
BRANCH  16  17
HETATM   17  S   UNL     1     -10.556  11.749  65.735  1.00  0.00    -0.277 SA 
BRANCH  17  18
HETATM   18  C   UNL     1     -12.134  12.232  64.920  1.00  0.00    -0.356 C  
HETATM   19  F   UNL     1     -10.896  12.303  62.857  1.00  0.00    -0.376 F  
HETATM   20  C   UNL     1     -12.118  12.463  63.410  1.00  0.00    -0.524 C  
HETATM   21  F   UNL     1     -12.539  13.711  63.105  1.00  0.00    -0.482 F  
HETATM   22  F   UNL     1     -12.951  11.592  62.793  1.00  0.00    -0.519 F  
ENDBRANCH  17  18
ENDBRANCH  16  17
ENDBRANCH   3  16
BRANCH  13  23
HETATM   23  S   UNL     1     -12.715  15.949  73.013  1.00  0.00    -0.546 S  
HETATM   24  H2  UNL     1     -11.762  13.972  74.089  1.00  0.00     0.000 HD 
HETATM   25  H1  UNL     1     -12.568  15.299  75.066  1.00  0.00     0.000 HD 
HETATM   26  N   UNL     1     -12.249  14.861  74.202  1.00  0.00    -0.481 N  
HETATM   27  O   UNL     1     -11.976  17.165  73.231  1.00  0.00    -0.106 OA 
HETATM   28  O   UNL     1     -14.161  15.917  73.043  1.00  0.00    -0.518 OA 
ENDBRANCH  13  23
TORSDOF 4
ENDMDL
MODEL        4
REMARK 921   NORMALIZED FREE ENERGY PREDICTED BY IDOCK:   -6.81 KCAL/MOL
REMARK 922        TOTAL FREE ENERGY PREDICTED BY IDOCK:   -8.77 KCAL/MOL
REMARK 923 INTER-LIGAND FREE ENERGY PREDICTED BY IDOCK:   -8.04 KCAL/MOL
REMARK 924 INTRA-LIGAND FREE ENERGY PREDICTED BY IDOCK:   -0.72 KCAL/MOL
REMARK 927      BINDING AFFINITY PREDICTED BY RF-SCORE:    0.00 PKD
ROOT
HETATM    1  C   UNL     1     -12.370  12.208  63.560  1.00  0.00    -0.574 C  
HETATM    2  N   UNL     1     -11.380  13.021  64.296  1.00  0.00    -0.357 N  
HETATM    3  C   UNL     1     -10.785  12.400  65.492  1.00  0.00    -0.280 C  
HETATM    4  N   UNL     1      -9.574  13.154  65.827  1.00  0.00    -0.478 NA 
HETATM    5 CL   UNL     1      -7.309  17.249  67.803  1.00  0.00    -0.174 Cl 
HETATM    6  C   UNL     1      -9.676  14.520  66.076  1.00  0.00    -0.303 A  
HETATM    7  C   UNL     1     -10.752  16.695  65.765  1.00  0.00    -0.210 A  
HETATM    8  H   UNL     1      -8.669  12.684  65.876  1.00  0.00     0.000 HD 
HETATM    9  C   UNL     1      -8.626  15.184  66.730  1.00  0.00    -0.297 A  
HETATM   10  O   UNL     1     -13.096  14.339  65.636  1.00  0.00    -0.561 OA 
HETATM   11  O   UNL     1     -12.217  15.280  63.466  1.00  0.00    -0.217 OA 
HETATM   12  C   UNL     1      -8.645  16.576  66.940  1.00  0.00    -0.207 A  
HETATM   13  C   UNL     1      -9.718  17.331  66.460  1.00  0.00    -0.288 A  
HETATM   14  S   UNL     1     -12.014  14.547  64.697  1.00  0.00    -0.463 S  
HETATM   15  C   UNL     1     -10.707  15.311  65.580  1.00  0.00    -0.365 A  
ENDROOT
BRANCH   3  16
HETATM   16  C   UNL     1     -10.389  10.913  65.273  1.00  0.00    -0.268 C  
BRANCH  16  17
HETATM   17  S   UNL     1      -9.919  10.105  66.864  1.00  0.00    -0.216 SA 
BRANCH  17  18
HETATM   18  C   UNL     1     -11.330  10.628  67.923  1.00  0.00    -0.268 C  
HETATM   19  F   UNL     1      -9.863  12.310  68.825  1.00  0.00    -0.200 F  
HETATM   20  C   UNL     1     -11.115  11.807  68.871  1.00  0.00    -0.243 C  
HETATM   21  F   UNL     1     -11.360  11.450  70.152  1.00  0.00    -0.340 F  
HETATM   22  F   UNL     1     -11.962  12.817  68.563  1.00  0.00    -0.320 F  
ENDBRANCH  17  18
ENDBRANCH  16  17
ENDBRANCH   3  16
BRANCH  13  23
HETATM   23  S   UNL     1      -9.808  19.082  66.652  1.00  0.00    -0.380 S  
HETATM   24  H2  UNL     1     -11.577  18.937  64.972  1.00  0.00     0.000 HD 
HETATM   25  H1  UNL     1     -11.075  20.545  65.697  1.00  0.00     0.000 HD 
HETATM   26  N   UNL     1     -11.023  19.533  65.586  1.00  0.00    -0.302 N  
HETATM   27  O   UNL     1     -10.268  19.390  67.982  1.00  0.00    -0.379 OA 
HETATM   28  O   UNL     1      -8.608  19.671  66.102  1.00  0.00    -0.355 OA 
ENDBRANCH  13  23
TORSDOF 4
ENDMDL
MODEL        5
REMARK 921   NORMALIZED FREE ENERGY PREDICTED BY IDOCK:   -6.80 KCAL/MOL
REMARK 922        TOTAL FREE ENERGY PREDICTED BY IDOCK:   -8.75 KCAL/MOL
REMARK 923 INTER-LIGAND FREE ENERGY PREDICTED BY IDOCK:   -8.30 KCAL/MOL
REMARK 924 INTRA-LIGAND FREE ENERGY PREDICTED BY IDOCK:   -0.45 KCAL/MOL
REMARK 927      BINDING AFFINITY PREDICTED BY RF-SCORE:    0.00 PKD
ROOT
HETATM    1  C   UNL     1     -12.033  13.896  67.378  1.00  0.00    -0.401 C  
HETATM    2  N   UNL     1     -12.014  12.807  68.376  1.00  0.00    -0.293 N  
HETATM    3  C   UNL     1     -11.736  13.202  69.768  1.00  0.00    -0.280 C  
HETATM    4  N   UNL     1     -12.160  12.099  70.635  1.00  0.00    -0.473 NA 
HETATM    5 CL   UNL     1     -11.402   7.490  72.631  1.00  0.00    -0.379 Cl 
HETATM    6  C   UNL     1     -11.604  10.836  70.443  1.00  0.00    -0.339 A  
HETATM    7  C   UNL     1     -10.583   9.121  69.028  1.00  0.00    -0.219 A  
HETATM    8  H   UNL     1     -12.853  12.254  71.368  1.00  0.00     0.000 HD 
HETATM    9  C   UNL     1     -11.717   9.870  71.454  1.00  0.00    -0.449 A  
HETATM   10  O   UNL     1      -9.610  12.105  67.925  1.00  0.00    -0.185 OA 
HETATM   11  O   UNL     1     -11.497  10.937  66.725  1.00  0.00    -0.285 OA 
HETATM   12  C   UNL     1     -11.239   8.557  71.283  1.00  0.00    -0.265 A  
HETATM   13  C   UNL     1     -10.664   8.187  70.065  1.00  0.00    -0.243 A  
HETATM   14  S   UNL     1     -10.952  11.563  67.910  1.00  0.00    -0.253 S  
HETATM   15  C   UNL     1     -11.060  10.419  69.233  1.00  0.00    -0.253 A  
ENDROOT
BRANCH   3  16
HETATM   16  C   UNL     1     -12.500  14.484  70.202  1.00  0.00    -0.321 C  
BRANCH  16  17
HETATM   17  S   UNL     1     -13.717  14.118  71.539  1.00  0.00    -0.283 SA 
BRANCH  17  18
HETATM   18  C   UNL     1     -13.594  15.668  72.523  1.00  0.00    -0.552 C  
HETATM   19  F   UNL     1     -11.330  15.019  73.022  1.00  0.00    -0.454 F  
HETATM   20  C   UNL     1     -12.265  15.975  73.212  1.00  0.00    -0.527 C  
HETATM   21  F   UNL     1     -12.431  16.119  74.546  1.00  0.00    -0.593 F  
HETATM   22  F   UNL     1     -11.750  17.135  72.740  1.00  0.00    -0.489 F  
ENDBRANCH  17  18
ENDBRANCH  16  17
ENDBRANCH   3  16
BRANCH  13  23
HETATM   23  S   UNL     1     -10.067   6.557  69.754  1.00  0.00    -0.184 S  
HETATM   24  H2  UNL     1      -9.968   7.293  67.425  1.00  0.00     0.000 HD 
HETATM   25  H1  UNL     1      -9.469   5.597  67.916  1.00  0.00     0.000 HD 
HETATM   26  N   UNL     1      -9.814   6.540  68.095  1.00  0.00    -0.129 N  
HETATM   27  O   UNL     1      -8.783   6.392  70.385  1.00  0.00    -0.143 OA 
HETATM   28  O   UNL     1     -11.147   5.619  69.963  1.00  0.00    -0.310 OA 
ENDBRANCH  13  23
TORSDOF 4
ENDMDL
MODEL        6
REMARK 921   NORMALIZED FREE ENERGY PREDICTED BY IDOCK:   -6.70 KCAL/MOL
REMARK 922        TOTAL FREE ENERGY PREDICTED BY IDOCK:   -8.63 KCAL/MOL
REMARK 923 INTER-LIGAND FREE ENERGY PREDICTED BY IDOCK:   -7.86 KCAL/MOL
REMARK 924 INTRA-LIGAND FREE ENERGY PREDICTED BY IDOCK:   -0.76 KCAL/MOL
REMARK 927      BINDING AFFINITY PREDICTED BY RF-SCORE:    0.00 PKD
ROOT
HETATM    1  C   UNL     1      -8.213   7.265  69.442  1.00  0.00    -0.131 C  
HETATM    2  N   UNL     1      -8.884   8.562  69.215  1.00  0.00    -0.141 N  
HETATM    3  C   UNL     1      -9.858   8.981  70.238  1.00  0.00    -0.194 C  
HETATM    4  N   UNL     1     -10.091  10.417  70.065  1.00  0.00    -0.436 NA 
HETATM    5 CL   UNL     1     -12.241  14.288  67.575  1.00  0.00    -0.332 Cl 
HETATM    6  C   UNL     1     -10.554  10.884  68.837  1.00  0.00    -0.210 A  
HETATM    7  C   UNL     1     -10.754  10.720  66.404  1.00  0.00    -0.228 A  
HETATM    8  H   UNL     1      -9.918  11.066  70.833  1.00  0.00     0.000 HD 
HETATM    9  C   UNL     1     -11.112  12.168  68.750  1.00  0.00    -0.297 A  
HETATM   10  O   UNL     1     -10.674   7.640  67.658  1.00  0.00    -0.232 OA 
HETATM   11  O   UNL     1      -8.551   8.598  66.689  1.00  0.00    -0.113 OA 
HETATM   12  C   UNL     1     -11.526  12.717  67.521  1.00  0.00    -0.340 A  
HETATM   13  C   UNL     1     -11.350  11.983  66.346  1.00  0.00    -0.354 A  
HETATM   14  S   UNL     1      -9.608   8.619  67.677  1.00  0.00    -0.162 S  
HETATM   15  C   UNL     1     -10.361  10.200  67.640  1.00  0.00    -0.219 A  
ENDROOT
BRANCH   3  16
HETATM   16  C   UNL     1      -9.358   8.739  71.690  1.00  0.00    -0.275 C  
BRANCH  16  17
HETATM   17  S   UNL     1     -10.583   7.762  72.664  1.00  0.00    -0.346 SA 
BRANCH  17  18
HETATM   18  C   UNL     1     -12.011   7.781  71.504  1.00  0.00    -0.300 C  
HETATM   19  F   UNL     1     -12.991   9.443  72.942  1.00  0.00    -0.389 F  
HETATM   20  C   UNL     1     -13.166   8.735  71.806  1.00  0.00    -0.367 C  
HETATM   21  F   UNL     1     -14.333   8.062  71.925  1.00  0.00    -0.422 F  
HETATM   22  F   UNL     1     -13.314   9.627  70.799  1.00  0.00    -0.341 F  
ENDBRANCH  17  18
ENDBRANCH  16  17
ENDBRANCH   3  16
BRANCH  13  23
HETATM   23  S   UNL     1     -11.812  12.605  64.761  1.00  0.00    -0.404 S  
HETATM   24  H2  UNL     1     -10.501  10.727  63.906  1.00  0.00     0.000 HD 
HETATM   25  H1  UNL     1     -11.345  11.900  62.775  1.00  0.00     0.000 HD 
HETATM   26  N   UNL     1     -11.078  11.541  63.691  1.00  0.00    -0.408 N  
HETATM   27  O   UNL     1     -13.236  12.468  64.593  1.00  0.00    -0.848 OA 
HETATM   28  O   UNL     1     -11.133  13.863  64.541  1.00  0.00    -0.377 OA 
ENDBRANCH  13  23
TORSDOF 4
ENDMDL
MODEL        7
REMARK 921   NORMALIZED FREE ENERGY PREDICTED BY IDOCK:   -6.67 KCAL/MOL
REMARK 922        TOTAL FREE ENERGY PREDICTED BY IDOCK:   -8.59 KCAL/MOL
REMARK 923 INTER-LIGAND FREE ENERGY PREDICTED BY IDOCK:   -8.08 KCAL/MOL
REMARK 924 INTRA-LIGAND FREE ENERGY PREDICTED BY IDOCK:   -0.51 KCAL/MOL
REMARK 927      BINDING AFFINITY PREDICTED BY RF-SCORE:    0.00 PKD
ROOT
HETATM    1  C   UNL     1      -8.885   9.757  65.960  1.00  0.00    -0.147 C  
HETATM    2  N   UNL     1      -9.674  10.186  67.133  1.00  0.00    -0.168 N  
HETATM    3  C   UNL     1     -10.849   9.363  67.466  1.00  0.00    -0.138 C  
HETATM    4  N   UNL     1     -11.238   9.681  68.843  1.00  0.00    -0.459 NA 
HETATM    5 CL   UNL     1     -13.436  12.768  72.225  1.00  0.00    -0.656 Cl 
HETATM    6  C   UNL     1     -11.548  10.998  69.170  1.00  0.00    -0.319 A  
HETATM    7  C   UNL     1     -11.320  13.412  68.846  1.00  0.00    -0.331 A  
HETATM    8  H   UNL     1     -11.280   8.947  69.551  1.00  0.00     0.000 HD 
HETATM    9  C   UNL     1     -12.248  11.270  70.356  1.00  0.00    -0.453 A  
HETATM   10  O   UNL     1     -11.045  11.927  65.882  1.00  0.00    -0.302 OA 
HETATM   11  O   UNL     1      -8.935  12.623  67.078  1.00  0.00    -0.204 OA 
HETATM   12  C   UNL     1     -12.521  12.587  70.771  1.00  0.00    -0.268 A  
HETATM   13  C   UNL     1     -12.059  13.660  70.006  1.00  0.00    -0.348 A  
HETATM   14  S   UNL     1     -10.135  11.818  67.002  1.00  0.00    -0.211 S  
HETATM   15  C   UNL     1     -11.072  12.093  68.457  1.00  0.00    -0.252 A  
ENDROOT
BRANCH   3  16
HETATM   16  C   UNL     1     -10.569   7.836  67.378  1.00  0.00    -0.275 C  
BRANCH  16  17
HETATM   17  S   UNL     1      -9.838   7.200  68.948  1.00  0.00    -0.159 SA 
BRANCH  17  18
HETATM   18  C   UNL     1     -11.268   6.250  69.610  1.00  0.00    -0.437 C  
HETATM   19  F   UNL     1     -11.275   7.796  71.455  1.00  0.00    -0.241 F  
HETATM   20  C   UNL     1     -11.895   6.721  70.922  1.00  0.00    -0.385 C  
HETATM   21  F   UNL     1     -11.871   5.739  71.851  1.00  0.00    -0.313 F  
HETATM   22  F   UNL     1     -13.189   7.064  70.727  1.00  0.00    -0.364 F  
ENDBRANCH  17  18
ENDBRANCH  16  17
ENDBRANCH   3  16
BRANCH  13  23
HETATM   23  S   UNL     1     -12.331  15.341  70.468  1.00  0.00    -0.413 S  
HETATM   24  H2  UNL     1     -10.957  14.779  72.410  1.00  0.00     0.000 HD 
HETATM   25  H1  UNL     1     -11.652  16.462  72.183  1.00  0.00     0.000 HD 
HETATM   26  N   UNL     1     -11.495  15.491  71.915  1.00  0.00    -0.423 N  
HETATM   27  O   UNL     1     -11.691  16.206  69.511  1.00  0.00    -0.294 OA 
HETATM   28  O   UNL     1     -13.720  15.503  70.836  1.00  0.00    -0.524 OA 
ENDBRANCH  13  23
TORSDOF 4
ENDMDL
MODEL        8
REMARK 921   NORMALIZED FREE ENERGY PREDICTED BY IDOCK:   -6.65 KCAL/MOL
REMARK 922        TOTAL FREE ENERGY PREDICTED BY IDOCK:   -8.56 KCAL/MOL
REMARK 923 INTER-LIGAND FREE ENERGY PREDICTED BY IDOCK:   -7.94 KCAL/MOL
REMARK 924 INTRA-LIGAND FREE ENERGY PREDICTED BY IDOCK:   -0.62 KCAL/MOL
REMARK 927      BINDING AFFINITY PREDICTED BY RF-SCORE:    0.00 PKD
ROOT
HETATM    1  C   UNL     1      -8.690  16.509  66.182  1.00  0.00    -0.300 C  
HETATM    2  N   UNL     1      -9.488  15.699  67.126  1.00  0.00    -0.215 N  
HETATM    3  C   UNL     1     -10.527  14.840  66.533  1.00  0.00    -0.291 C  
HETATM    4  N   UNL     1     -10.905  13.843  67.539  1.00  0.00    -0.264 NA 
HETATM    5 CL   UNL     1     -13.384  12.552  71.780  1.00  0.00    -0.466 Cl 
HETATM    6  C   UNL     1     -11.382  14.277  68.774  1.00  0.00    -0.275 A  
HETATM    7  C   UNL     1     -11.499  15.917  70.585  1.00  0.00    -0.426 A  
HETATM    8  H   UNL     1     -10.821  12.847  67.337  1.00  0.00     0.000 HD 
HETATM    9  C   UNL     1     -12.070  13.379  69.604  1.00  0.00    -0.349 A  
HETATM   10  O   UNL     1     -11.129  17.554  67.712  1.00  0.00    -0.235 OA 
HETATM   11  O   UNL     1      -9.093  17.186  69.157  1.00  0.00    -0.176 OA 
HETATM   12  C   UNL     1     -12.506  13.744  70.892  1.00  0.00    -0.377 A  
HETATM   13  C   UNL     1     -12.223  15.023  71.378  1.00  0.00    -0.328 A  
HETATM   14  S   UNL     1     -10.173  16.669  68.344  1.00  0.00    -0.303 S  
HETATM   15  C   UNL     1     -11.087  15.527  69.308  1.00  0.00    -0.285 A  
ENDROOT
BRANCH   3  16
HETATM   16  C   UNL     1     -10.043  14.089  65.261  1.00  0.00    -0.318 C  
BRANCH  16  17
HETATM   17  S   UNL     1     -11.099  12.617  64.911  1.00  0.00    -0.310 SA 
BRANCH  17  18
HETATM   18  C   UNL     1      -9.917  11.266  65.313  1.00  0.00    -0.253 C  
HETATM   19  F   UNL     1     -11.344  10.750  67.182  1.00  0.00    -0.353 F  
HETATM   20  C   UNL     1     -10.221  10.387  66.526  1.00  0.00    -0.229 C  
HETATM   21  F   UNL     1      -9.204  10.421  67.417  1.00  0.00    -0.139 F  
HETATM   22  F   UNL     1     -10.382   9.098  66.143  1.00  0.00    -0.351 F  
ENDBRANCH  17  18
ENDBRANCH  16  17
ENDBRANCH   3  16
BRANCH  13  23
HETATM   23  S   UNL     1     -12.706  15.553  72.989  1.00  0.00    -0.516 S  
HETATM   24  H2  UNL     1     -11.134  17.384  72.598  1.00  0.00     0.000 HD 
HETATM   25  H1  UNL     1     -12.082  17.253  74.163  1.00  0.00     0.000 HD 
HETATM   26  N   UNL     1     -11.804  16.947  73.232  1.00  0.00    -0.198 N  
HETATM   27  O   UNL     1     -14.093  15.939  72.967  1.00  0.00    -0.518 OA 
HETATM   28  O   UNL     1     -12.189  14.615  73.961  1.00  0.00    -0.464 OA 
ENDBRANCH  13  23
TORSDOF 4
ENDMDL
MODEL        9
REMARK 921   NORMALIZED FREE ENERGY PREDICTED BY IDOCK:   -6.58 KCAL/MOL
REMARK 922        TOTAL FREE ENERGY PREDICTED BY IDOCK:   -8.48 KCAL/MOL
REMARK 923 INTER-LIGAND FREE ENERGY PREDICTED BY IDOCK:   -7.73 KCAL/MOL
REMARK 924 INTRA-LIGAND FREE ENERGY PREDICTED BY IDOCK:   -0.75 KCAL/MOL
REMARK 927      BINDING AFFINITY PREDICTED BY RF-SCORE:    0.00 PKD
ROOT
HETATM    1  C   UNL     1      -9.775  13.014  66.220  1.00  0.00    -0.263 C  
HETATM    2  N   UNL     1     -10.542  12.383  67.315  1.00  0.00    -0.221 N  
HETATM    3  C   UNL     1     -11.121  13.295  68.316  1.00  0.00    -0.266 C  
HETATM    4  N   UNL     1     -12.151  12.554  69.048  1.00  0.00    -0.213 NA 
HETATM    5 CL   UNL     1     -13.502   9.133  72.551  1.00  0.00    -0.520 Cl 
HETATM    6  C   UNL     1     -11.798  11.381  69.711  1.00  0.00    -0.364 A  
HETATM    7  C   UNL     1     -10.403   9.389  69.974  1.00  0.00    -0.265 A  
HETATM    8  H   UNL     1     -13.114  12.892  69.071  1.00  0.00     0.000 HD 
HETATM    9  C   UNL     1     -12.656  10.854  70.688  1.00  0.00    -0.435 A  
HETATM   10  O   UNL     1      -8.512  11.837  68.750  1.00  0.00    -0.105 OA 
HETATM   11  O   UNL     1      -9.415  10.104  67.155  1.00  0.00    -0.154 OA 
HETATM   12  C   UNL     1     -12.383   9.633  71.335  1.00  0.00    -0.378 A  
HETATM   13  C   UNL     1     -11.246   8.904  70.978  1.00  0.00    -0.281 A  
HETATM   14  S   UNL     1      -9.625  11.182  68.096  1.00  0.00    -0.185 S  
HETATM   15  C   UNL     1     -10.698  10.608  69.357  1.00  0.00    -0.244 A  
ENDROOT
BRANCH   3  16
HETATM   16  C   UNL     1     -11.780  14.553  67.685  1.00  0.00    -0.382 C  
BRANCH  16  17
HETATM   17  S   UNL     1     -11.017  16.104  68.330  1.00  0.00    -0.353 SA 
BRANCH  17  18
HETATM   18  C   UNL     1     -10.668  15.596  70.064  1.00  0.00    -0.335 C  
HETATM   19  F   UNL     1     -13.008  15.950  70.503  1.00  0.00    -0.468 F  
HETATM   20  C   UNL     1     -11.836  15.562  71.049  1.00  0.00    -0.382 C  
HETATM   21  F   UNL     1     -11.600  16.366  72.110  1.00  0.00    -0.509 F  
HETATM   22  F   UNL     1     -12.014  14.307  71.523  1.00  0.00    -0.381 F  
ENDBRANCH  17  18
ENDBRANCH  16  17
ENDBRANCH   3  16
BRANCH  13  23
HETATM   23  S   UNL     1     -10.845   7.353  71.715  1.00  0.00    -0.226 S  
HETATM   24  H2  UNL     1      -8.844   7.475  70.315  1.00  0.00     0.000 HD 
HETATM   25  H1  UNL     1      -9.145   6.052  71.433  1.00  0.00     0.000 HD 
HETATM   26  N   UNL     1      -9.378   6.949  71.007  1.00  0.00    -0.156 N  
HETATM   27  O   UNL     1     -10.604   7.543  73.122  1.00  0.00    -0.328 OA 
HETATM   28  O   UNL     1     -11.768   6.353  71.225  1.00  0.00    -0.316 OA 
ENDBRANCH  13  23
TORSDOF 4
ENDMDL
MODEL       10
REMARK 921   NORMALIZED FREE ENERGY PREDICTED BY IDOCK:   -6.46 KCAL/MOL
REMARK 922        TOTAL FREE ENERGY PREDICTED BY IDOCK:   -8.34 KCAL/MOL
REMARK 923 INTER-LIGAND FREE ENERGY PREDICTED BY IDOCK:   -7.89 KCAL/MOL
REMARK 924 INTRA-LIGAND FREE ENERGY PREDICTED BY IDOCK:   -0.44 KCAL/MOL
REMARK 927      BINDING AFFINITY PREDICTED BY RF-SCORE:    0.00 PKD
ROOT
HETATM    1  C   UNL     1     -10.013  14.034  66.342  1.00  0.00    -0.294 C  
HETATM    2  N   UNL     1     -10.697  13.289  67.419  1.00  0.00    -0.256 N  
HETATM    3  C   UNL     1     -11.051  14.061  68.623  1.00  0.00    -0.264 C  
HETATM    4  N   UNL     1     -12.052  13.290  69.365  1.00  0.00    -0.283 NA 
HETATM    5 CL   UNL     1     -13.292   9.442  72.440  1.00  0.00    -0.523 Cl 
HETATM    6  C   UNL     1     -11.739  11.998  69.779  1.00  0.00    -0.319 A  
HETATM    7  C   UNL     1     -10.530   9.886  69.527  1.00  0.00    -0.261 A  
HETATM    8  H   UNL     1     -12.965  13.694  69.576  1.00  0.00     0.000 HD 
HETATM    9  C   UNL     1     -12.516  11.382  70.772  1.00  0.00    -0.460 A  
HETATM   10  O   UNL     1      -8.569  12.349  68.452  1.00  0.00    -0.173 OA 
HETATM   11  O   UNL     1      -9.835  10.989  66.745  1.00  0.00    -0.189 OA 
HETATM   12  C   UNL     1     -12.289  10.051  71.173  1.00  0.00    -0.377 A  
HETATM   13  C   UNL     1     -11.286   9.306  70.550  1.00  0.00    -0.265 A  
HETATM   14  S   UNL     1      -9.816  11.905  67.865  1.00  0.00    -0.195 S  
HETATM   15  C   UNL     1     -10.775  11.211  69.157  1.00  0.00    -0.221 A  
ENDROOT
BRANCH   3  16
HETATM   16  C   UNL     1     -11.654  15.456  68.296  1.00  0.00    -0.348 C  
BRANCH  16  17
HETATM   17  S   UNL     1     -10.653  16.810  69.051  1.00  0.00    -0.336 SA 
BRANCH  17  18
HETATM   18  C   UNL     1     -10.169  17.738  67.537  1.00  0.00    -0.356 C  
HETATM   19  F   UNL     1     -10.375  19.742  68.855  1.00  0.00    -0.499 F  
HETATM   20  C   UNL     1     -10.061  19.259  67.633  1.00  0.00    -0.387 C  
HETATM   21  F   UNL     1     -10.878  19.861  66.739  1.00  0.00    -0.561 F  
HETATM   22  F   UNL     1      -8.797  19.659  67.360  1.00  0.00    -0.312 F  
ENDBRANCH  17  18
ENDBRANCH  16  17
ENDBRANCH   3  16
BRANCH  13  23
HETATM   23  S   UNL     1     -10.954   7.625  70.969  1.00  0.00    -0.252 S  
HETATM   24  H2  UNL     1      -9.299   7.753  69.175  1.00  0.00     0.000 HD 
HETATM   25  H1  UNL     1      -9.549   6.212  70.140  1.00  0.00     0.000 HD 
HETATM   26  N   UNL     1      -9.740   7.184  69.897  1.00  0.00    -0.170 N  
HETATM   27  O   UNL     1     -10.397   7.567  72.296  1.00  0.00    -0.201 OA 
HETATM   28  O   UNL     1     -12.089   6.817  70.581  1.00  0.00    -0.392 OA 
ENDBRANCH  13  23
TORSDOF 4
ENDMDL
MODEL       11
REMARK 921   NORMALIZED FREE ENERGY PREDICTED BY IDOCK:   -6.45 KCAL/MOL
REMARK 922        TOTAL FREE ENERGY PREDICTED BY IDOCK:   -8.32 KCAL/MOL
REMARK 923 INTER-LIGAND FREE ENERGY PREDICTED BY IDOCK:   -7.47 KCAL/MOL
REMARK 924 INTRA-LIGAND FREE ENERGY PREDICTED BY IDOCK:   -0.84 KCAL/MOL
REMARK 927      BINDING AFFINITY PREDICTED BY RF-SCORE:    0.00 PKD
ROOT
HETATM    1  C   UNL     1     -13.489  13.195  72.332  1.00  0.00    -0.543 C  
HETATM    2  N   UNL     1     -12.995  13.160  70.940  1.00  0.00    -0.135 N  
HETATM    3  C   UNL     1     -12.193  11.983  70.562  1.00  0.00    -0.325 C  
HETATM    4  N   UNL     1     -12.155  11.924  69.099  1.00  0.00    -0.251 NA 
HETATM    5 CL   UNL     1     -10.366  13.582  64.643  1.00  0.00    -0.427 Cl 
HETATM    6  C   UNL     1     -11.652  13.013  68.391  1.00  0.00    -0.335 A  
HETATM    7  C   UNL     1     -11.203  15.406  68.148  1.00  0.00    -0.326 A  
HETATM    8  H   UNL     1     -12.492  11.097  68.605  1.00  0.00     0.000 HD 
HETATM    9  C   UNL     1     -11.280  12.854  67.047  1.00  0.00    -0.329 A  
HETATM   10  O   UNL     1     -10.952  14.616  71.369  1.00  0.00     0.132 OA 
HETATM   11  O   UNL     1     -13.092  15.676  70.555  1.00  0.00    -0.436 OA 
HETATM   12  C   UNL     1     -10.837  13.938  66.266  1.00  0.00    -0.290 A  
HETATM   13  C   UNL     1     -10.794  15.217  66.825  1.00  0.00    -0.312 A  
HETATM   14  S   UNL     1     -12.146  14.581  70.552  1.00  0.00    -0.348 S  
HETATM   15  C   UNL     1     -11.631  14.308  68.899  1.00  0.00    -0.305 A  
ENDROOT
BRANCH   3  16
HETATM   16  C   UNL     1     -12.786  10.646  71.089  1.00  0.00    -0.420 C  
BRANCH  16  17
HETATM   17  S   UNL     1     -11.455   9.501  71.654  1.00  0.00    -0.282 SA 
BRANCH  17  18
HETATM   18  C   UNL     1     -11.028   8.688  70.059  1.00  0.00    -0.203 C  
HETATM   19  F   UNL     1      -9.333  10.377  69.800  1.00  0.00    -0.214 F  
HETATM   20  C   UNL     1      -9.882   9.279  69.239  1.00  0.00    -0.172 C  
HETATM   21  F   UNL     1     -10.300   9.625  68.000  1.00  0.00    -0.198 F  
HETATM   22  F   UNL     1      -8.891   8.369  69.093  1.00  0.00    -0.136 F  
ENDBRANCH  17  18
ENDBRANCH  16  17
ENDBRANCH   3  16
BRANCH  13  23
HETATM   23  S   UNL     1     -10.280  16.635  65.909  1.00  0.00    -0.306 S  
HETATM   24  H2  UNL     1     -10.783  17.851  67.969  1.00  0.00     0.000 HD 
HETATM   25  H1  UNL     1     -10.160  18.714  66.475  1.00  0.00     0.000 HD 
HETATM   26  N   UNL     1     -10.457  17.895  67.004  1.00  0.00    -0.358 N  
HETATM   27  O   UNL     1      -8.877  16.523  65.607  1.00  0.00    -0.428 OA 
HETATM   28  O   UNL     1     -11.264  16.907  64.885  1.00  0.00    -0.524 OA 
ENDBRANCH  13  23
TORSDOF 4
ENDMDL
MODEL       12
REMARK 921   NORMALIZED FREE ENERGY PREDICTED BY IDOCK:   -6.41 KCAL/MOL
REMARK 922        TOTAL FREE ENERGY PREDICTED BY IDOCK:   -8.27 KCAL/MOL
REMARK 923 INTER-LIGAND FREE ENERGY PREDICTED BY IDOCK:   -7.85 KCAL/MOL
REMARK 924 INTRA-LIGAND FREE ENERGY PREDICTED BY IDOCK:   -0.42 KCAL/MOL
REMARK 927      BINDING AFFINITY PREDICTED BY RF-SCORE:    0.00 PKD
ROOT
HETATM    1  C   UNL     1     -10.559   9.605  66.969  1.00  0.00    -0.197 C  
HETATM    2  N   UNL     1      -9.947  10.913  67.281  1.00  0.00    -0.182 N  
HETATM    3  C   UNL     1      -9.687  11.189  68.705  1.00  0.00    -0.198 C  
HETATM    4  N   UNL     1      -8.735  12.301  68.774  1.00  0.00    -0.371 NA 
HETATM    5 CL   UNL     1      -7.683  17.259  68.444  1.00  0.00    -0.237 Cl 
HETATM    6  C   UNL     1      -9.065  13.512  68.172  1.00  0.00    -0.199 A  
HETATM    7  C   UNL     1     -10.233  14.827  66.471  1.00  0.00    -0.281 A  
HETATM    8  H   UNL     1      -7.843  12.189  69.257  1.00  0.00     0.000 HD 
HETATM    9  C   UNL     1      -8.355  14.672  68.516  1.00  0.00    -0.162 A  
HETATM   10  O   UNL     1     -12.134  12.215  67.263  1.00  0.00    -0.565 OA 
HETATM   11  O   UNL     1     -10.737  12.092  65.166  1.00  0.00    -0.273 OA 
HETATM   12  C   UNL     1      -8.598  15.906  67.882  1.00  0.00    -0.163 A  
HETATM   13  C   UNL     1      -9.547  15.981  66.860  1.00  0.00    -0.226 A  
HETATM   14  S   UNL     1     -10.845  12.190  66.605  1.00  0.00    -0.281 S  
HETATM   15  C   UNL     1      -9.975  13.619  67.124  1.00  0.00    -0.247 A  
ENDROOT
BRANCH   3  16
HETATM   16  C   UNL     1      -9.075   9.975  69.458  1.00  0.00    -0.220 C  
BRANCH  16  17
HETATM   17  S   UNL     1     -10.077   9.536  70.944  1.00  0.00    -0.196 SA 
BRANCH  17  18
HETATM   18  C   UNL     1     -11.604  10.506  70.604  1.00  0.00    -0.352 C  
HETATM   19  F   UNL     1     -12.650   9.230  72.357  1.00  0.00    -0.430 F  
HETATM   20  C   UNL     1     -12.841  10.215  71.454  1.00  0.00    -0.428 C  
HETATM   21  F   UNL     1     -13.888   9.856  70.679  1.00  0.00    -0.353 F  
HETATM   22  F   UNL     1     -13.206  11.321  72.143  1.00  0.00    -0.575 F  
ENDBRANCH  17  18
ENDBRANCH  16  17
ENDBRANCH   3  16
BRANCH  13  23
HETATM   23  S   UNL     1      -9.892  17.478  65.994  1.00  0.00    -0.115 S  
HETATM   24  H2  UNL     1     -11.050  18.120  68.050  1.00  0.00     0.000 HD 
HETATM   25  H1  UNL     1     -10.976  19.243  66.601  1.00  0.00     0.000 HD 
HETATM   26  N   UNL     1     -10.776  18.378  67.101  1.00  0.00    -0.376 N  
HETATM   27  O   UNL     1      -8.660  18.184  65.755  1.00  0.00    -0.472 OA 
HETATM   28  O   UNL     1     -10.829  17.194  64.931  1.00  0.00    -0.751 OA 
ENDBRANCH  13  23
TORSDOF 4
ENDMDL
MODEL       13
REMARK 921   NORMALIZED FREE ENERGY PREDICTED BY IDOCK:   -6.39 KCAL/MOL
REMARK 922        TOTAL FREE ENERGY PREDICTED BY IDOCK:   -8.25 KCAL/MOL
REMARK 923 INTER-LIGAND FREE ENERGY PREDICTED BY IDOCK:   -7.95 KCAL/MOL
REMARK 924 INTRA-LIGAND FREE ENERGY PREDICTED BY IDOCK:   -0.30 KCAL/MOL
REMARK 927      BINDING AFFINITY PREDICTED BY RF-SCORE:    0.00 PKD
ROOT
HETATM    1  C   UNL     1     -12.171  12.659  63.487  1.00  0.00    -0.547 C  
HETATM    2  N   UNL     1     -11.170  13.408  64.273  1.00  0.00    -0.383 N  
HETATM    3  C   UNL     1     -10.484  12.660  65.340  1.00  0.00    -0.283 C  
HETATM    4  N   UNL     1      -9.283  13.414  65.708  1.00  0.00    -0.402 NA 
HETATM    5 CL   UNL     1      -7.053  17.303  68.099  1.00  0.00    -0.184 Cl 
HETATM    6  C   UNL     1      -9.418  14.729  66.147  1.00  0.00    -0.292 A  
HETATM    7  C   UNL     1     -10.588  16.877  66.192  1.00  0.00    -0.195 A  
HETATM    8  H   UNL     1      -8.360  12.982  65.645  1.00  0.00     0.000 HD 
HETATM    9  C   UNL     1      -8.357  15.345  66.827  1.00  0.00    -0.285 A  
HETATM   10  O   UNL     1     -12.850  14.460  65.869  1.00  0.00    -0.359 OA 
HETATM   11  O   UNL     1     -12.135  15.719  63.804  1.00  0.00    -0.648 OA 
HETATM   12  C   UNL     1      -8.413  16.694  67.225  1.00  0.00    -0.194 A  
HETATM   13  C   UNL     1      -9.539  17.458  66.910  1.00  0.00    -0.277 A  
HETATM   14  S   UNL     1     -11.833  14.838  64.912  1.00  0.00    -0.351 S  
HETATM   15  C   UNL     1     -10.505  15.533  65.819  1.00  0.00    -0.361 A  
ENDROOT
BRANCH   3  16
HETATM   16  C   UNL     1     -10.048  11.234  64.900  1.00  0.00    -0.281 C  
BRANCH  16  17
HETATM   17  S   UNL     1      -8.744  10.559  66.017  1.00  0.00    -0.170 SA 
BRANCH  17  18
HETATM   18  C   UNL     1      -9.584  10.742  67.645  1.00  0.00    -0.158 C  
HETATM   19  F   UNL     1     -11.008   8.922  66.969  1.00  0.00    -0.307 F  
HETATM   20  C   UNL     1     -10.733   9.787  67.968  1.00  0.00    -0.247 C  
HETATM   21  F   UNL     1     -11.869  10.469  68.236  1.00  0.00    -0.338 F  
HETATM   22  F   UNL     1     -10.435   9.049  69.063  1.00  0.00    -0.210 F  
ENDBRANCH  17  18
ENDBRANCH  16  17
ENDBRANCH   3  16
BRANCH  13  23
HETATM   23  S   UNL     1      -9.680  19.162  67.344  1.00  0.00    -0.333 S  
HETATM   24  H2  UNL     1      -9.694  18.330  69.642  1.00  0.00     0.000 HD 
HETATM   25  H1  UNL     1      -9.815  20.123  69.272  1.00  0.00     0.000 HD 
HETATM   26  N   UNL     1      -9.734  19.138  69.021  1.00  0.00    -0.390 N  
HETATM   27  O   UNL     1      -8.475  19.851  66.963  1.00  0.00    -0.302 OA 
HETATM   28  O   UNL     1     -10.988  19.635  66.949  1.00  0.00    -0.452 OA 
ENDBRANCH  13  23
TORSDOF 4
ENDMDL
MODEL       14
REMARK 921   NORMALIZED FREE ENERGY PREDICTED BY IDOCK:   -6.37 KCAL/MOL
REMARK 922        TOTAL FREE ENERGY PREDICTED BY IDOCK:   -8.22 KCAL/MOL
REMARK 923 INTER-LIGAND FREE ENERGY PREDICTED BY IDOCK:   -7.42 KCAL/MOL
REMARK 924 INTRA-LIGAND FREE ENERGY PREDICTED BY IDOCK:   -0.80 KCAL/MOL
REMARK 927      BINDING AFFINITY PREDICTED BY RF-SCORE:    0.00 PKD
ROOT
HETATM    1  C   UNL     1      -8.524   6.489  68.591  1.00  0.00    -0.121 C  
HETATM    2  N   UNL     1      -9.110   7.845  68.594  1.00  0.00    -0.137 N  
HETATM    3  C   UNL     1     -10.121   8.117  69.630  1.00  0.00    -0.199 C  
HETATM    4  N   UNL     1     -10.267   9.571  69.735  1.00  0.00    -0.212 NA 
HETATM    5 CL   UNL     1     -12.054  13.983  67.962  1.00  0.00    -0.373 Cl 
HETATM    6  C   UNL     1     -10.629  10.298  68.604  1.00  0.00    -0.208 A  
HETATM    7  C   UNL     1     -10.688  10.626  66.180  1.00  0.00    -0.146 A  
HETATM    8  H   UNL     1     -10.107  10.045  70.625  1.00  0.00     0.000 HD 
HETATM    9  C   UNL     1     -11.112  11.607  68.747  1.00  0.00    -0.283 A  
HETATM   10  O   UNL     1     -10.848   7.362  66.798  1.00  0.00    -0.303 OA 
HETATM   11  O   UNL     1      -8.622   8.354  66.146  1.00  0.00    -0.125 OA 
HETATM   12  C   UNL     1     -11.421  12.411  67.633  1.00  0.00    -0.337 A  
HETATM   13  C   UNL     1     -11.213  11.911  66.345  1.00  0.00    -0.331 A  
HETATM   14  S   UNL     1      -9.735   8.248  67.064  1.00  0.00    -0.235 S  
HETATM   15  C   UNL     1     -10.400   9.851  67.306  1.00  0.00    -0.245 A  
ENDROOT
BRANCH   3  16
HETATM   16  C   UNL     1      -9.724   7.564  71.028  1.00  0.00    -0.167 C  
BRANCH  16  17
HETATM   17  S   UNL     1     -11.179   6.834  71.896  1.00  0.00    -0.273 SA 
BRANCH  17  18
HETATM   18  C   UNL     1     -11.868   8.340  72.698  1.00  0.00    -0.315 C  
HETATM   19  F   UNL     1     -13.529   8.351  70.956  1.00  0.00    -0.219 F  
HETATM   20  C   UNL     1     -13.106   8.982  72.072  1.00  0.00    -0.414 C  
HETATM   21  F   UNL     1     -12.870  10.271  71.743  1.00  0.00    -0.433 F  
HETATM   22  F   UNL     1     -14.136   8.970  72.951  1.00  0.00    -0.475 F  
ENDBRANCH  17  18
ENDBRANCH  16  17
ENDBRANCH   3  16
BRANCH  13  23
HETATM   23  S   UNL     1     -11.544  12.860  64.895  1.00  0.00    -0.346 S  
HETATM   24  H2  UNL     1     -10.604  10.938  63.712  1.00  0.00     0.000 HD 
HETATM   25  H1  UNL     1     -11.208  12.417  62.810  1.00  0.00     0.000 HD 
HETATM   26  N   UNL     1     -11.017  11.869  63.648  1.00  0.00    -0.408 N  
HETATM   27  O   UNL     1     -12.967  13.018  64.745  1.00  0.00    -0.735 OA 
HETATM   28  O   UNL     1     -10.641  13.989  64.863  1.00  0.00    -0.379 OA 
ENDBRANCH  13  23
TORSDOF 4
ENDMDL
MODEL       15
REMARK 921   NORMALIZED FREE ENERGY PREDICTED BY IDOCK:   -6.36 KCAL/MOL
REMARK 922        TOTAL FREE ENERGY PREDICTED BY IDOCK:   -8.21 KCAL/MOL
REMARK 923 INTER-LIGAND FREE ENERGY PREDICTED BY IDOCK:   -7.67 KCAL/MOL
REMARK 924 INTRA-LIGAND FREE ENERGY PREDICTED BY IDOCK:   -0.54 KCAL/MOL
REMARK 927      BINDING AFFINITY PREDICTED BY RF-SCORE:    0.00 PKD
ROOT
HETATM    1  C   UNL     1      -9.873  10.442  64.372  1.00  0.00    -0.328 C  
HETATM    2  N   UNL     1     -10.535  10.492  65.692  1.00  0.00    -0.192 N  
HETATM    3  C   UNL     1     -10.712  11.830  66.283  1.00  0.00    -0.270 C  
HETATM    4  N   UNL     1     -11.719  11.717  67.341  1.00  0.00    -0.588 NA 
HETATM    5 CL   UNL     1     -13.073  10.336  72.038  1.00  0.00    -0.553 Cl 
HETATM    6  C   UNL     1     -11.501  10.826  68.390  1.00  0.00    -0.288 A  
HETATM    7  C   UNL     1     -10.530   8.780  69.314  1.00  0.00    -0.228 A  
HETATM    8  H   UNL     1     -12.567  12.283  67.311  1.00  0.00     0.000 HD 
HETATM    9  C   UNL     1     -12.251  10.949  69.569  1.00  0.00    -0.331 A  
HETATM   10  O   UNL     1      -8.433   9.998  67.038  1.00  0.00    -0.124 OA 
HETATM   11  O   UNL     1      -9.961   8.105  66.372  1.00  0.00    -0.240 OA 
HETATM   12  C   UNL     1     -12.123  10.031  70.629  1.00  0.00    -0.292 A  
HETATM   13  C   UNL     1     -11.252   8.946  70.499  1.00  0.00    -0.252 A  
HETATM   14  S   UNL     1      -9.760   9.470  66.808  1.00  0.00    -0.213 S  
HETATM   15  C   UNL     1     -10.673   9.713  68.284  1.00  0.00    -0.217 A  
ENDROOT
BRANCH   3  16
HETATM   16  C   UNL     1     -11.200  12.890  65.256  1.00  0.00    -0.288 C  
BRANCH  16  17
HETATM   17  S   UNL     1     -12.269  14.159  66.063  1.00  0.00    -0.422 SA 
BRANCH  17  18
HETATM   18  C   UNL     1     -10.982  15.315  66.691  1.00  0.00    -0.297 C  
HETATM   19  F   UNL     1     -10.877  16.208  64.458  1.00  0.00    -0.431 F  
HETATM   20  C   UNL     1     -10.384  16.322  65.710  1.00  0.00    -0.374 C  
HETATM   21  F   UNL     1      -9.041  16.183  65.629  1.00  0.00    -0.335 F  
HETATM   22  F   UNL     1     -10.636  17.586  66.123  1.00  0.00    -0.341 F  
ENDBRANCH  17  18
ENDBRANCH  16  17
ENDBRANCH   3  16
BRANCH  13  23
HETATM   23  S   UNL     1     -11.053   7.733  71.764  1.00  0.00    -0.255 S  
HETATM   24  H2  UNL     1      -9.544   6.662  70.168  1.00  0.00     0.000 HD 
HETATM   25  H1  UNL     1      -9.864   5.933  71.821  1.00  0.00     0.000 HD 
HETATM   26  N   UNL     1      -9.979   6.635  71.090  1.00  0.00    -0.182 N  
HETATM   27  O   UNL     1     -10.399   8.332  72.899  1.00  0.00    -0.302 OA 
HETATM   28  O   UNL     1     -12.289   6.994  71.897  1.00  0.00    -0.324 OA 
ENDBRANCH  13  23
TORSDOF 4
ENDMDL
MODEL       16
REMARK 921   NORMALIZED FREE ENERGY PREDICTED BY IDOCK:   -6.32 KCAL/MOL
REMARK 922        TOTAL FREE ENERGY PREDICTED BY IDOCK:   -8.17 KCAL/MOL
REMARK 923 INTER-LIGAND FREE ENERGY PREDICTED BY IDOCK:   -7.77 KCAL/MOL
REMARK 924 INTRA-LIGAND FREE ENERGY PREDICTED BY IDOCK:   -0.40 KCAL/MOL
REMARK 927      BINDING AFFINITY PREDICTED BY RF-SCORE:    0.00 PKD
ROOT
HETATM    1  C   UNL     1      -8.553  11.716  66.336  1.00  0.00    -0.143 C  
HETATM    2  N   UNL     1      -9.567  11.378  67.357  1.00  0.00    -0.173 N  
HETATM    3  C   UNL     1     -10.160  12.511  68.088  1.00  0.00    -0.225 C  
HETATM    4  N   UNL     1     -11.390  12.033  68.725  1.00  0.00    -0.253 NA 
HETATM    5 CL   UNL     1     -13.760   9.452  72.403  1.00  0.00    -0.500 Cl 
HETATM    6  C   UNL     1     -11.320  10.960  69.610  1.00  0.00    -0.292 A  
HETATM    7  C   UNL     1     -10.287   8.895  70.418  1.00  0.00    -0.240 A  
HETATM    8  H   UNL     1     -12.285  12.480  68.523  1.00  0.00     0.000 HD 
HETATM    9  C   UNL     1     -12.389  10.714  70.485  1.00  0.00    -0.448 A  
HETATM   10  O   UNL     1      -7.892  10.856  69.200  1.00  0.00    -0.139 OA 
HETATM   11  O   UNL     1      -8.770   8.990  67.748  1.00  0.00    -0.124 OA 
HETATM   12  C   UNL     1     -12.401   9.600  71.346  1.00  0.00    -0.378 A  
HETATM   13  C   UNL     1     -11.340   8.693  71.314  1.00  0.00    -0.281 A  
HETATM   14  S   UNL     1      -8.969  10.232  68.463  1.00  0.00    -0.140 S  
HETATM   15  C   UNL     1     -10.300  10.014  69.581  1.00  0.00    -0.247 A  
ENDROOT
BRANCH   3  16
HETATM   16  C   UNL     1     -10.522  13.709  67.166  1.00  0.00    -0.264 C  
BRANCH  16  17
HETATM   17  S   UNL     1     -12.223  13.531  66.475  1.00  0.00    -0.339 SA 
BRANCH  17  18
HETATM   18  C   UNL     1     -11.918  12.254  65.185  1.00  0.00    -0.337 C  
HETATM   19  F   UNL     1     -12.420  13.960  63.562  1.00  0.00    -0.498 F  
HETATM   20  C   UNL     1     -12.053  12.670  63.721  1.00  0.00    -0.522 C  
HETATM   21  F   UNL     1     -12.971  11.909  63.083  1.00  0.00    -0.685 F  
HETATM   22  F   UNL     1     -10.874  12.510  63.076  1.00  0.00    -0.439 F  
ENDBRANCH  17  18
ENDBRANCH  16  17
ENDBRANCH   3  16
BRANCH  13  23
HETATM   23  S   UNL     1     -11.289   7.256  72.337  1.00  0.00    -0.287 S  
HETATM   24  H2  UNL     1      -9.368   6.635  70.959  1.00  0.00     0.000 HD 
HETATM   25  H1  UNL     1      -9.955   5.560  72.325  1.00  0.00     0.000 HD 
HETATM   26  N   UNL     1      -9.985   6.390  71.734  1.00  0.00    -0.177 N  
HETATM   27  O   UNL     1     -10.960   7.644  73.684  1.00  0.00    -0.301 OA 
HETATM   28  O   UNL     1     -12.439   6.432  72.038  1.00  0.00    -0.333 OA 
ENDBRANCH  13  23
TORSDOF 4
ENDMDL
MODEL       17
REMARK 921   NORMALIZED FREE ENERGY PREDICTED BY IDOCK:   -6.31 KCAL/MOL
REMARK 922        TOTAL FREE ENERGY PREDICTED BY IDOCK:   -8.14 KCAL/MOL
REMARK 923 INTER-LIGAND FREE ENERGY PREDICTED BY IDOCK:   -7.65 KCAL/MOL
REMARK 924 INTRA-LIGAND FREE ENERGY PREDICTED BY IDOCK:   -0.49 KCAL/MOL
REMARK 927      BINDING AFFINITY PREDICTED BY RF-SCORE:    0.00 PKD
ROOT
HETATM    1  C   UNL     1     -10.306  11.850  63.870  1.00  0.00    -0.389 C  
HETATM    2  N   UNL     1     -10.813  11.629  65.241  1.00  0.00    -0.292 N  
HETATM    3  C   UNL     1     -11.181  12.835  66.003  1.00  0.00    -0.299 C  
HETATM    4  N   UNL     1     -12.021  12.409  67.126  1.00  0.00    -0.549 NA 
HETATM    5 CL   UNL     1     -12.540  10.313  71.724  1.00  0.00    -0.509 Cl 
HETATM    6  C   UNL     1     -11.515  11.483  68.035  1.00  0.00    -0.311 A  
HETATM    7  C   UNL     1     -10.064   9.600  68.614  1.00  0.00    -0.196 A  
HETATM    8  H   UNL     1     -12.962  12.787  67.241  1.00  0.00     0.000 HD 
HETATM    9  C   UNL     1     -12.137  11.328  69.283  1.00  0.00    -0.372 A  
HETATM   10  O   UNL     1      -8.516  11.450  66.323  1.00  0.00    -0.177 OA 
HETATM   11  O   UNL     1      -9.708   9.357  65.573  1.00  0.00    -0.284 OA 
HETATM   12  C   UNL     1     -11.713  10.354  70.208  1.00  0.00    -0.321 A  
HETATM   13  C   UNL     1     -10.667   9.493  69.870  1.00  0.00    -0.240 A  
HETATM   14  S   UNL     1      -9.731  10.683  66.151  1.00  0.00    -0.216 S  
HETATM   15  C   UNL     1     -10.503  10.582  67.722  1.00  0.00    -0.224 A  
ENDROOT
BRANCH   3  16
HETATM   16  C   UNL     1     -11.980  13.868  65.160  1.00  0.00    -0.385 C  
BRANCH  16  17
HETATM   17  S   UNL     1     -10.977  15.380  64.830  1.00  0.00    -0.401 SA 
BRANCH  17  18
HETATM   18  C   UNL     1     -10.425  15.783  66.539  1.00  0.00    -0.303 C  
HETATM   19  F   UNL     1     -10.609  18.100  65.914  1.00  0.00    -0.393 F  
HETATM   20  C   UNL     1     -10.307  17.257  66.924  1.00  0.00    -0.310 C  
HETATM   21  F   UNL     1      -9.054  17.553  67.336  1.00  0.00    -0.230 F  
HETATM   22  F   UNL     1     -11.148  17.543  67.946  1.00  0.00    -0.365 F  
ENDBRANCH  17  18
ENDBRANCH  16  17
ENDBRANCH   3  16
BRANCH  13  23
HETATM   23  S   UNL     1     -10.093   8.227  70.956  1.00  0.00    -0.196 S  
HETATM   24  H2  UNL     1      -8.491   7.754  69.171  1.00  0.00     0.000 HD 
HETATM   25  H1  UNL     1      -8.507   6.781  70.727  1.00  0.00     0.000 HD 
HETATM   26  N   UNL     1      -8.839   7.513  70.100  1.00  0.00    -0.146 N  
HETATM   27  O   UNL     1      -9.520   8.832  72.131  1.00  0.00    -0.301 OA 
HETATM   28  O   UNL     1     -11.103   7.197  71.043  1.00  0.00    -0.247 OA 
ENDBRANCH  13  23
TORSDOF 4
ENDMDL
MODEL       18
REMARK 921   NORMALIZED FREE ENERGY PREDICTED BY IDOCK:   -6.30 KCAL/MOL
REMARK 922        TOTAL FREE ENERGY PREDICTED BY IDOCK:   -8.14 KCAL/MOL
REMARK 923 INTER-LIGAND FREE ENERGY PREDICTED BY IDOCK:   -7.55 KCAL/MOL
REMARK 924 INTRA-LIGAND FREE ENERGY PREDICTED BY IDOCK:   -0.58 KCAL/MOL
REMARK 927      BINDING AFFINITY PREDICTED BY RF-SCORE:    0.00 PKD
ROOT
HETATM    1  C   UNL     1      -8.056   7.420  68.069  1.00  0.00    -0.124 C  
HETATM    2  N   UNL     1      -8.637   8.776  68.160  1.00  0.00    -0.133 N  
HETATM    3  C   UNL     1      -9.356   9.095  69.405  1.00  0.00    -0.160 C  
HETATM    4  N   UNL     1      -9.486  10.553  69.480  1.00  0.00    -0.399 NA 
HETATM    5 CL   UNL     1     -11.706  14.884  68.024  1.00  0.00    -0.357 Cl 
HETATM    6  C   UNL     1     -10.128  11.228  68.445  1.00  0.00    -0.195 A  
HETATM    7  C   UNL     1     -10.800  11.449  66.103  1.00  0.00    -0.310 A  
HETATM    8  H   UNL     1      -9.111  11.065  70.279  1.00  0.00     0.000 HD 
HETATM    9  C   UNL     1     -10.573  12.544  68.649  1.00  0.00    -0.240 A  
HETATM   10  O   UNL     1     -10.766   8.215  66.883  1.00  0.00    -0.309 OA 
HETATM   11  O   UNL     1      -8.786   9.174  65.648  1.00  0.00    -0.161 OA 
HETATM   12  C   UNL     1     -11.160  13.297  67.614  1.00  0.00    -0.269 A  
HETATM   13  C   UNL     1     -11.279  12.740  66.339  1.00  0.00    -0.299 A  
HETATM   14  S   UNL     1      -9.631   9.111  66.821  1.00  0.00    -0.214 S  
HETATM   15  C   UNL     1     -10.229  10.724  67.153  1.00  0.00    -0.213 A  
ENDROOT
BRANCH   3  16
HETATM   16  C   UNL     1      -8.615   8.605  70.680  1.00  0.00    -0.163 C  
BRANCH  16  17
HETATM   17  S   UNL     1      -9.767   8.472  72.114  1.00  0.00    -0.316 SA 
BRANCH  17  18
HETATM   18  C   UNL     1     -10.615   6.890  71.703  1.00  0.00    -0.209 C  
HETATM   19  F   UNL     1     -12.519   8.223  71.078  1.00  0.00    -0.302 F  
HETATM   20  C   UNL     1     -12.042   6.963  71.161  1.00  0.00    -0.381 C  
HETATM   21  F   UNL     1     -12.893   6.259  71.940  1.00  0.00    -0.360 F  
HETATM   22  F   UNL     1     -12.098   6.433  69.917  1.00  0.00    -0.462 F  
ENDBRANCH  17  18
ENDBRANCH  16  17
ENDBRANCH   3  16
BRANCH  13  23
HETATM   23  S   UNL     1     -11.974  13.624  64.979  1.00  0.00    -0.403 S  
HETATM   24  H2  UNL     1     -11.449  11.604  63.707  1.00  0.00     0.000 HD 
HETATM   25  H1  UNL     1     -12.241  13.056  62.914  1.00  0.00     0.000 HD 
HETATM   26  N   UNL     1     -11.840  12.546  63.700  1.00  0.00    -0.486 N  
HETATM   27  O   UNL     1     -13.378  13.834  65.218  1.00  0.00    -0.710 OA 
HETATM   28  O   UNL     1     -11.087  14.710  64.629  1.00  0.00    -0.376 OA 
ENDBRANCH  13  23
TORSDOF 4
ENDMDL
MODEL       19
REMARK 921   NORMALIZED FREE ENERGY PREDICTED BY IDOCK:   -6.29 KCAL/MOL
REMARK 922        TOTAL FREE ENERGY PREDICTED BY IDOCK:   -8.12 KCAL/MOL
REMARK 923 INTER-LIGAND FREE ENERGY PREDICTED BY IDOCK:   -7.70 KCAL/MOL
REMARK 924 INTRA-LIGAND FREE ENERGY PREDICTED BY IDOCK:   -0.42 KCAL/MOL
REMARK 927      BINDING AFFINITY PREDICTED BY RF-SCORE:    0.00 PKD
ROOT
HETATM    1  C   UNL     1     -11.822  14.360  66.143  1.00  0.00    -0.382 C  
HETATM    2  N   UNL     1     -11.885  13.432  67.291  1.00  0.00    -0.372 N  
HETATM    3  C   UNL     1     -11.489  13.985  68.599  1.00  0.00    -0.302 C  
HETATM    4  N   UNL     1     -11.999  13.082  69.634  1.00  0.00    -0.318 NA 
HETATM    5 CL   UNL     1     -11.705   8.750  72.271  1.00  0.00    -0.426 Cl 
HETATM    6  C   UNL     1     -11.611  11.744  69.615  1.00  0.00    -0.323 A  
HETATM    7  C   UNL     1     -10.881   9.727  68.440  1.00  0.00    -0.244 A  
HETATM    8  H   UNL     1     -12.629  13.428  70.358  1.00  0.00     0.000 HD 
HETATM    9  C   UNL     1     -11.789  10.956  70.762  1.00  0.00    -0.424 A  
HETATM   10  O   UNL     1      -9.610  12.371  66.871  1.00  0.00    -0.207 OA 
HETATM   11  O   UNL     1     -11.684  11.293  65.922  1.00  0.00    -0.092 OA 
HETATM   12  C   UNL     1     -11.484   9.582  70.773  1.00  0.00    -0.310 A  
HETATM   13  C   UNL     1     -11.021   8.970  69.606  1.00  0.00    -0.136 A  
HETATM   14  S   UNL     1     -11.007  12.009  66.982  1.00  0.00    -0.291 S  
HETATM   15  C   UNL     1     -11.185  11.091  68.464  1.00  0.00    -0.268 A  
ENDROOT
BRANCH   3  16
HETATM   16  C   UNL     1     -12.068  15.404  68.861  1.00  0.00    -0.198 C  
BRANCH  16  17
HETATM   17  S   UNL     1     -10.739  16.590  69.341  1.00  0.00    -0.315 SA 
BRANCH  17  18
HETATM   18  C   UNL     1     -10.523  17.495  67.753  1.00  0.00    -0.381 C  
HETATM   19  F   UNL     1     -10.270  19.491  69.075  1.00  0.00    -0.473 F  
HETATM   20  C   UNL     1     -10.272  19.001  67.817  1.00  0.00    -0.402 C  
HETATM   21  F   UNL     1     -11.212  19.679  67.121  1.00  0.00    -0.567 F  
HETATM   22  F   UNL     1      -9.070  19.300  67.271  1.00  0.00    -0.297 F  
ENDBRANCH  17  18
ENDBRANCH  16  17
ENDBRANCH   3  16
BRANCH  13  23
HETATM   23  S   UNL     1     -10.643   7.249  69.523  1.00  0.00    -0.230 S  
HETATM   24  H2  UNL     1     -10.499   7.640  67.115  1.00  0.00     0.000 HD 
HETATM   25  H1  UNL     1     -10.210   5.977  67.834  1.00  0.00     0.000 HD 
HETATM   26  N   UNL     1     -10.428   6.972  67.882  1.00  0.00    -0.198 N  
HETATM   27  O   UNL     1      -9.379   7.008  70.168  1.00  0.00    -0.161 OA 
HETATM   28  O   UNL     1     -11.830   6.496  69.863  1.00  0.00    -0.381 OA 
ENDBRANCH  13  23
TORSDOF 4
ENDMDL
MODEL       20
REMARK 921   NORMALIZED FREE ENERGY PREDICTED BY IDOCK:   -6.22 KCAL/MOL
REMARK 922        TOTAL FREE ENERGY PREDICTED BY IDOCK:   -8.04 KCAL/MOL
REMARK 923 INTER-LIGAND FREE ENERGY PREDICTED BY IDOCK:   -7.59 KCAL/MOL
REMARK 924 INTRA-LIGAND FREE ENERGY PREDICTED BY IDOCK:   -0.45 KCAL/MOL
REMARK 927      BINDING AFFINITY PREDICTED BY RF-SCORE:    0.00 PKD
ROOT
HETATM    1  C   UNL     1      -9.961  13.912  64.858  1.00  0.00    -0.138 C  
HETATM    2  N   UNL     1     -10.391  13.237  66.100  1.00  0.00    -0.284 N  
HETATM    3  C   UNL     1     -11.029  11.918  65.940  1.00  0.00    -0.307 C  
HETATM    4  N   UNL     1     -11.000  11.251  67.244  1.00  0.00    -0.270 NA 
HETATM    5 CL   UNL     1     -12.797  10.659  71.958  1.00  0.00    -0.475 Cl 
HETATM    6  C   UNL     1     -11.603  11.872  68.335  1.00  0.00    -0.317 A  
HETATM    7  C   UNL     1     -12.329  13.868  69.550  1.00  0.00    -0.275 A  
HETATM    8  H   UNL     1     -10.546  10.343  67.351  1.00  0.00     0.000 HD 
HETATM    9  C   UNL     1     -11.898  11.121  69.483  1.00  0.00    -0.423 A  
HETATM   10  O   UNL     1     -12.611  14.467  66.290  1.00  0.00    -0.355 OA 
HETATM   11  O   UNL     1     -10.585  15.354  67.504  1.00  0.00    -0.270 OA 
HETATM   12  C   UNL     1     -12.438  11.715  70.640  1.00  0.00    -0.295 A  
HETATM   13  C   UNL     1     -12.659  13.094  70.667  1.00  0.00    -0.211 A  
HETATM   14  S   UNL     1     -11.390  14.246  67.035  1.00  0.00    -0.356 S  
HETATM   15  C   UNL     1     -11.802  13.247  68.414  1.00  0.00    -0.360 A  
ENDROOT
BRANCH   3  16
HETATM   16  C   UNL     1     -10.299  11.010  64.910  1.00  0.00    -0.313 C  
BRANCH  16  17
HETATM   17  S   UNL     1      -8.767  10.279  65.632  1.00  0.00    -0.170 SA 
BRANCH  17  18
HETATM   18  C   UNL     1      -9.221   8.496  65.622  1.00  0.00    -0.095 C  
HETATM   19  F   UNL     1      -9.615   8.716  67.987  1.00  0.00    -0.147 F  
HETATM   20  C   UNL     1      -9.653   7.860  66.943  1.00  0.00    -0.203 C  
HETATM   21  F   UNL     1      -8.863   6.808  67.255  1.00  0.00    -0.117 F  
HETATM   22  F   UNL     1     -10.923   7.401  66.850  1.00  0.00    -0.422 F  
ENDBRANCH  17  18
ENDBRANCH  16  17
ENDBRANCH   3  16
BRANCH  13  23
HETATM   23  S   UNL     1     -13.303  13.924  72.084  1.00  0.00    -0.506 S  
HETATM   24  H2  UNL     1     -14.057  15.595  70.467  1.00  0.00     0.000 HD 
HETATM   25  H1  UNL     1     -14.383  15.784  72.262  1.00  0.00     0.000 HD 
HETATM   26  N   UNL     1     -14.011  15.304  71.443  1.00  0.00    -0.514 N  
HETATM   27  O   UNL     1     -14.357  13.130  72.661  1.00  0.00    -0.636 OA 
HETATM   28  O   UNL     1     -12.199  14.419  72.874  1.00  0.00    -0.135 OA 
ENDBRANCH  13  23
TORSDOF 4
ENDMDL
MODEL       21
REMARK 921   NORMALIZED FREE ENERGY PREDICTED BY IDOCK:   -6.17 KCAL/MOL
REMARK 922        TOTAL FREE ENERGY PREDICTED BY IDOCK:   -7.98 KCAL/MOL
REMARK 923 INTER-LIGAND FREE ENERGY PREDICTED BY IDOCK:   -7.20 KCAL/MOL
REMARK 924 INTRA-LIGAND FREE ENERGY PREDICTED BY IDOCK:   -0.78 KCAL/MOL
REMARK 927      BINDING AFFINITY PREDICTED BY RF-SCORE:    0.00 PKD
ROOT
HETATM    1  C   UNL     1     -10.070  11.394  64.937  1.00  0.00    -0.274 C  
HETATM    2  N   UNL     1     -10.753  11.190  66.232  1.00  0.00    -0.261 N  
HETATM    3  C   UNL     1     -11.019  12.401  67.028  1.00  0.00    -0.260 C  
HETATM    4  N   UNL     1     -12.033  12.060  68.029  1.00  0.00    -0.521 NA 
HETATM    5 CL   UNL     1     -13.369   9.855  72.406  1.00  0.00    -0.418 Cl 
HETATM    6  C   UNL     1     -11.777  11.024  68.924  1.00  0.00    -0.330 A  
HETATM    7  C   UNL     1     -10.698   8.912  69.528  1.00  0.00    -0.206 A  
HETATM    8  H   UNL     1     -12.913  12.574  68.070  1.00  0.00     0.000 HD 
HETATM    9  C   UNL     1     -12.549  10.909  70.089  1.00  0.00    -0.304 A  
HETATM   10  O   UNL     1      -8.645  10.604  67.530  1.00  0.00    -0.122 OA 
HETATM   11  O   UNL     1     -10.047   8.761  66.529  1.00  0.00    -0.274 OA 
HETATM   12  C   UNL     1     -12.382   9.839  70.989  1.00  0.00    -0.332 A  
HETATM   13  C   UNL     1     -11.446   8.841  70.706  1.00  0.00    -0.270 A  
HETATM   14  S   UNL     1      -9.935  10.045  67.186  1.00  0.00    -0.212 S  
HETATM   15  C   UNL     1     -10.882   9.992  68.659  1.00  0.00    -0.229 A  
ENDROOT
BRANCH   3  16
HETATM   16  C   UNL     1     -11.555  13.585  66.175  1.00  0.00    -0.343 C  
BRANCH  16  17
HETATM   17  S   UNL     1     -10.761  15.176  66.666  1.00  0.00    -0.312 SA 
BRANCH  17  18
HETATM   18  C   UNL     1     -11.647  15.508  68.245  1.00  0.00    -0.334 C  
HETATM   19  F   UNL     1      -9.660  14.745  69.370  1.00  0.00    -0.188 F  
HETATM   20  C   UNL     1     -10.904  15.237  69.553  1.00  0.00    -0.271 C  
HETATM   21  F   UNL     1     -11.580  14.351  70.319  1.00  0.00    -0.294 F  
HETATM   22  F   UNL     1     -10.780  16.380  70.267  1.00  0.00    -0.301 F  
ENDBRANCH  17  18
ENDBRANCH  16  17
ENDBRANCH   3  16
BRANCH  13  23
HETATM   23  S   UNL     1     -11.193   7.451  71.762  1.00  0.00    -0.253 S  
HETATM   24  H2  UNL     1      -9.424   6.872  70.178  1.00  0.00     0.000 HD 
HETATM   25  H1  UNL     1      -9.781   5.824  71.641  1.00  0.00     0.000 HD 
HETATM   26  N   UNL     1      -9.927   6.627  71.031  1.00  0.00    -0.183 N  
HETATM   27  O   UNL     1     -10.723   7.908  73.044  1.00  0.00    -0.365 OA 
HETATM   28  O   UNL     1     -12.324   6.560  71.635  1.00  0.00    -0.343 OA 
ENDBRANCH  13  23
TORSDOF 4
ENDMDL
MODEL       22
REMARK 921   NORMALIZED FREE ENERGY PREDICTED BY IDOCK:   -6.17 KCAL/MOL
REMARK 922        TOTAL FREE ENERGY PREDICTED BY IDOCK:   -7.98 KCAL/MOL
REMARK 923 INTER-LIGAND FREE ENERGY PREDICTED BY IDOCK:   -8.03 KCAL/MOL
REMARK 924 INTRA-LIGAND FREE ENERGY PREDICTED BY IDOCK:    0.06 KCAL/MOL
REMARK 927      BINDING AFFINITY PREDICTED BY RF-SCORE:    0.00 PKD
ROOT
HETATM    1  C   UNL     1     -12.304  11.924  63.615  1.00  0.00    -0.481 C  
HETATM    2  N   UNL     1     -11.376  12.848  64.301  1.00  0.00    -0.350 N  
HETATM    3  C   UNL     1     -10.747  12.345  65.534  1.00  0.00    -0.280 C  
HETATM    4  N   UNL     1      -9.593  13.200  65.823  1.00  0.00    -0.478 NA 
HETATM    5 CL   UNL     1      -7.625  17.555  67.543  1.00  0.00    -0.203 Cl 
HETATM    6  C   UNL     1      -9.789  14.569  65.987  1.00  0.00    -0.318 A  
HETATM    7  C   UNL     1     -11.010  16.641  65.539  1.00  0.00    -0.063 A  
HETATM    8  H   UNL     1      -8.658  12.798  65.903  1.00  0.00     0.000 HD 
HETATM    9  C   UNL     1      -8.792  15.343  66.600  1.00  0.00    -0.330 A  
HETATM   10  O   UNL     1     -13.187  14.126  65.553  1.00  0.00    -0.688 OA 
HETATM   11  O   UNL     1     -12.362  14.988  63.331  1.00  0.00    -0.188 OA 
HETATM   12  C   UNL     1      -8.907  16.741  66.722  1.00  0.00    -0.230 A  
HETATM   13  C   UNL     1     -10.027  17.388  66.194  1.00  0.00    -0.270 A  
HETATM   14  S   UNL     1     -12.116  14.349  64.606  1.00  0.00    -0.469 S  
HETATM   15  C   UNL     1     -10.870  15.254  65.441  1.00  0.00    -0.387 A  
ENDROOT
BRANCH   3  16
HETATM   16  C   UNL     1     -10.249  10.878  65.409  1.00  0.00    -0.277 C  
BRANCH  16  17
HETATM   17  S   UNL     1     -10.110  10.076  67.065  1.00  0.00    -0.231 SA 
BRANCH  17  18
HETATM   18  C   UNL     1      -9.722   8.350  66.558  1.00  0.00    -0.260 C  
HETATM   19  F   UNL     1     -10.871   7.644  68.552  1.00  0.00    -0.204 F  
HETATM   20  C   UNL     1     -10.216   7.213  67.453  1.00  0.00    -0.226 C  
HETATM   21  F   UNL     1      -9.186   6.444  67.872  1.00  0.00    -0.118 F  
HETATM   22  F   UNL     1     -11.068   6.414  66.769  1.00  0.00    -0.401 F  
ENDBRANCH  17  18
ENDBRANCH  16  17
ENDBRANCH   3  16
BRANCH  13  23
HETATM   23  S   UNL     1     -10.238  19.137  66.277  1.00  0.00    -0.475 S  
HETATM   24  H2  UNL     1      -7.849  19.210  65.762  1.00  0.00     0.000 HD 
HETATM   25  H1  UNL     1      -8.824  20.745  66.006  1.00  0.00     0.000 HD 
HETATM   26  N   UNL     1      -8.702  19.734  65.958  1.00  0.00    -0.341 N  
HETATM   27  O   UNL     1     -11.096  19.564  65.203  1.00  0.00    -0.345 OA 
HETATM   28  O   UNL     1     -10.490  19.509  67.651  1.00  0.00    -0.420 OA 
ENDBRANCH  13  23
TORSDOF 4
ENDMDL
MODEL       23
REMARK 921   NORMALIZED FREE ENERGY PREDICTED BY IDOCK:   -6.17 KCAL/MOL
REMARK 922        TOTAL FREE ENERGY PREDICTED BY IDOCK:   -7.97 KCAL/MOL
REMARK 923 INTER-LIGAND FREE ENERGY PREDICTED BY IDOCK:   -7.38 KCAL/MOL
REMARK 924 INTRA-LIGAND FREE ENERGY PREDICTED BY IDOCK:   -0.59 KCAL/MOL
REMARK 927      BINDING AFFINITY PREDICTED BY RF-SCORE:    0.00 PKD
ROOT
HETATM    1  C   UNL     1      -8.876   7.609  70.127  1.00  0.00    -0.146 C  
HETATM    2  N   UNL     1      -9.525   8.799  69.540  1.00  0.00    -0.164 N  
HETATM    3  C   UNL     1     -10.818   9.194  70.125  1.00  0.00    -0.240 C  
HETATM    4  N   UNL     1     -11.085  10.576  69.717  1.00  0.00    -0.275 NA 
HETATM    5 CL   UNL     1     -12.540  13.960  66.219  1.00  0.00    -0.445 Cl 
HETATM    6  C   UNL     1     -11.134  10.883  68.360  1.00  0.00    -0.262 A  
HETATM    7  C   UNL     1     -10.479  10.492  66.035  1.00  0.00    -0.226 A  
HETATM    8  H   UNL     1     -11.234  11.303  70.418  1.00  0.00     0.000 HD 
HETATM    9  C   UNL     1     -11.724  12.085  67.943  1.00  0.00    -0.393 A  
HETATM   10  O   UNL     1     -10.601   7.557  67.596  1.00  0.00    -0.239 OA 
HETATM   11  O   UNL     1      -8.353   8.658  67.282  1.00  0.00    -0.107 OA 
HETATM   12  C   UNL     1     -11.733  12.479  66.591  1.00  0.00    -0.387 A  
HETATM   13  C   UNL     1     -11.112  11.671  65.635  1.00  0.00    -0.249 A  
HETATM   14  S   UNL     1      -9.682   8.645  67.853  1.00  0.00    -0.168 S  
HETATM   15  C   UNL     1     -10.494  10.126  67.384  1.00  0.00    -0.256 A  
ENDROOT
BRANCH   3  16
HETATM   16  C   UNL     1     -10.827   9.133  71.678  1.00  0.00    -0.372 C  
BRANCH  16  17
HETATM   17  S   UNL     1     -12.471   8.590  72.316  1.00  0.00    -0.362 SA 
BRANCH  17  18
HETATM   18  C   UNL     1     -12.497   6.853  71.709  1.00  0.00    -0.356 C  
HETATM   19  F   UNL     1     -10.800   6.390  73.353  1.00  0.00    -0.245 F  
HETATM   20  C   UNL     1     -11.566   5.845  72.383  1.00  0.00    -0.288 C  
HETATM   21  F   UNL     1     -10.734   5.275  71.483  1.00  0.00    -0.288 F  
HETATM   22  F   UNL     1     -12.286   4.852  72.956  1.00  0.00    -0.341 F  
ENDBRANCH  17  18
ENDBRANCH  16  17
ENDBRANCH   3  16
BRANCH  13  23
HETATM   23  S   UNL     1     -11.051  12.102  63.925  1.00  0.00    -0.447 S  
HETATM   24  H2  UNL     1      -9.718  10.065  63.705  1.00  0.00     0.000 HD 
HETATM   25  H1  UNL     1     -10.102  11.120  62.254  1.00  0.00     0.000 HD 
HETATM   26  N   UNL     1     -10.138  10.871  63.242  1.00  0.00    -0.337 N  
HETATM   27  O   UNL     1     -12.375  12.016  63.366  1.00  0.00    -0.557 OA 
HETATM   28  O   UNL     1     -10.232  13.284  63.774  1.00  0.00    -0.226 OA 
ENDBRANCH  13  23
TORSDOF 4
ENDMDL
MODEL       24
REMARK 921   NORMALIZED FREE ENERGY PREDICTED BY IDOCK:   -6.15 KCAL/MOL
REMARK 922        TOTAL FREE ENERGY PREDICTED BY IDOCK:   -7.95 KCAL/MOL
REMARK 923 INTER-LIGAND FREE ENERGY PREDICTED BY IDOCK:   -7.60 KCAL/MOL
REMARK 924 INTRA-LIGAND FREE ENERGY PREDICTED BY IDOCK:   -0.35 KCAL/MOL
REMARK 927      BINDING AFFINITY PREDICTED BY RF-SCORE:    0.00 PKD
ROOT
HETATM    1  C   UNL     1     -11.515  14.005  66.145  1.00  0.00    -0.346 C  
HETATM    2  N   UNL     1     -11.452  12.789  66.983  1.00  0.00    -0.321 N  
HETATM    3  C   UNL     1     -11.095  12.990  68.398  1.00  0.00    -0.262 C  
HETATM    4  N   UNL     1     -11.482  11.780  69.128  1.00  0.00    -0.271 NA 
HETATM    5 CL   UNL     1     -10.662   6.940  70.433  1.00  0.00    -0.261 Cl 
HETATM    6  C   UNL     1     -10.950  10.554  68.736  1.00  0.00    -0.251 A  
HETATM    7  C   UNL     1     -10.024   9.046  67.046  1.00  0.00    -0.295 A  
HETATM    8  H   UNL     1     -12.132  11.835  69.913  1.00  0.00     0.000 HD 
HETATM    9  C   UNL     1     -11.017   9.459  69.611  1.00  0.00    -0.216 A  
HETATM   10  O   UNL     1      -9.083  12.150  66.308  1.00  0.00    -0.206 OA 
HETATM   11  O   UNL     1     -11.044  11.162  65.066  1.00  0.00    -0.170 OA 
HETATM   12  C   UNL     1     -10.562   8.180  69.235  1.00  0.00    -0.182 A  
HETATM   13  C   UNL     1     -10.058   7.979  67.948  1.00  0.00    -0.194 A  
HETATM   14  S   UNL     1     -10.429  11.619  66.294  1.00  0.00    -0.255 S  
HETATM   15  C   UNL     1     -10.476  10.305  67.452  1.00  0.00    -0.251 A  
ENDROOT
BRANCH   3  16
HETATM   16  C   UNL     1     -11.821  14.203  69.044  1.00  0.00    -0.348 C  
BRANCH  16  17
HETATM   17  S   UNL     1     -12.472  13.779  70.718  1.00  0.00    -0.359 SA 
BRANCH  17  18
HETATM   18  C   UNL     1     -12.911  15.458  71.330  1.00  0.00    -0.473 C  
HETATM   19  F   UNL     1     -12.856  14.523  73.547  1.00  0.00    -0.577 F  
HETATM   20  C   UNL     1     -13.053  15.655  72.839  1.00  0.00    -0.520 C  
HETATM   21  F   UNL     1     -14.283  16.121  73.154  1.00  0.00    -0.673 F  
HETATM   22  F   UNL     1     -12.151  16.562  73.280  1.00  0.00    -0.538 F  
ENDBRANCH  17  18
ENDBRANCH  16  17
ENDBRANCH   3  16
BRANCH  13  23
HETATM   23  S   UNL     1      -9.494   6.405  67.386  1.00  0.00    -0.118 S  
HETATM   24  H2  UNL     1      -8.651   7.659  65.465  1.00  0.00     0.000 HD 
HETATM   25  H1  UNL     1      -8.427   5.843  65.596  1.00  0.00     0.000 HD 
HETATM   26  N   UNL     1      -8.752   6.753  65.922  1.00  0.00    -0.153 N  
HETATM   27  O   UNL     1      -8.475   5.918  68.279  1.00  0.00    -0.114 OA 
HETATM   28  O   UNL     1     -10.642   5.603  67.026  1.00  0.00    -0.249 OA 
ENDBRANCH  13  23
TORSDOF 4
ENDMDL
MODEL       25
REMARK 921   NORMALIZED FREE ENERGY PREDICTED BY IDOCK:   -6.06 KCAL/MOL
REMARK 922        TOTAL FREE ENERGY PREDICTED BY IDOCK:   -7.84 KCAL/MOL
REMARK 923 INTER-LIGAND FREE ENERGY PREDICTED BY IDOCK:   -7.34 KCAL/MOL
REMARK 924 INTRA-LIGAND FREE ENERGY PREDICTED BY IDOCK:   -0.50 KCAL/MOL
REMARK 927      BINDING AFFINITY PREDICTED BY RF-SCORE:    0.00 PKD
ROOT
HETATM    1  C   UNL     1     -11.648   6.302  70.885  1.00  0.00    -0.272 C  
HETATM    2  N   UNL     1     -11.636   7.686  70.368  1.00  0.00    -0.182 N  
HETATM    3  C   UNL     1     -10.416   8.108  69.658  1.00  0.00    -0.224 C  
HETATM    4  N   UNL     1     -10.745   9.309  68.886  1.00  0.00    -0.343 NA 
HETATM    5 CL   UNL     1     -11.659  14.299  68.632  1.00  0.00    -0.329 Cl 
HETATM    6  C   UNL     1     -11.243  10.426  69.553  1.00  0.00    -0.269 A  
HETATM    7  C   UNL     1     -12.467  11.469  71.397  1.00  0.00    -0.338 A  
HETATM    8  H   UNL     1     -10.611   9.327  67.875  1.00  0.00     0.000 HD 
HETATM    9  C   UNL     1     -11.231  11.675  68.915  1.00  0.00    -0.306 A  
HETATM   10  O   UNL     1     -10.925   8.761  72.562  1.00  0.00    -0.258 OA 
HETATM   11  O   UNL     1     -13.377   8.595  71.991  1.00  0.00    -0.347 OA 
HETATM   12  C   UNL     1     -11.790  12.820  69.514  1.00  0.00    -0.316 A  
HETATM   13  C   UNL     1     -12.404  12.713  70.764  1.00  0.00    -0.283 A  
HETATM   14  S   UNL     1     -12.001   8.806  71.595  1.00  0.00    -0.357 S  
HETATM   15  C   UNL     1     -11.896  10.353  70.779  1.00  0.00    -0.368 A  
ENDROOT
BRANCH   3  16
HETATM   16  C   UNL     1      -9.879   7.029  68.676  1.00  0.00    -0.148 C  
BRANCH  16  17
HETATM   17  S   UNL     1     -10.589   7.249  66.988  1.00  0.00    -0.310 SA 
BRANCH  17  18
HETATM   18  C   UNL     1      -9.142   7.987  66.121  1.00  0.00    -0.176 C  
HETATM   19  F   UNL     1     -10.527   9.916  65.726  1.00  0.00    -0.311 F  
HETATM   20  C   UNL     1      -9.296   9.393  65.542  1.00  0.00    -0.251 C  
HETATM   21  F   UNL     1      -9.048   9.400  64.213  1.00  0.00    -0.251 F  
HETATM   22  F   UNL     1      -8.414  10.239  66.124  1.00  0.00    -0.128 F  
ENDBRANCH  17  18
ENDBRANCH  16  17
ENDBRANCH   3  16
BRANCH  13  23
HETATM   23  S   UNL     1     -13.155  14.089  71.573  1.00  0.00    -0.370 S  
HETATM   24  H2  UNL     1     -10.852  14.814  71.959  1.00  0.00     0.000 HD 
HETATM   25  H1  UNL     1     -12.280  15.802  72.553  1.00  0.00     0.000 HD 
HETATM   26  N   UNL     1     -11.846  15.006  72.085  1.00  0.00    -0.375 N  
HETATM   27  O   UNL     1     -13.876  14.874  70.605  1.00  0.00    -0.126 OA 
HETATM   28  O   UNL     1     -13.772  13.628  72.796  1.00  0.00    -0.707 OA 
ENDBRANCH  13  23
TORSDOF 4
ENDMDL
MODEL       26
REMARK 921   NORMALIZED FREE ENERGY PREDICTED BY IDOCK:   -6.05 KCAL/MOL
REMARK 922        TOTAL FREE ENERGY PREDICTED BY IDOCK:   -7.83 KCAL/MOL
REMARK 923 INTER-LIGAND FREE ENERGY PREDICTED BY IDOCK:   -7.39 KCAL/MOL
REMARK 924 INTRA-LIGAND FREE ENERGY PREDICTED BY IDOCK:   -0.44 KCAL/MOL
REMARK 927      BINDING AFFINITY PREDICTED BY RF-SCORE:    0.00 PKD
ROOT
HETATM    1  C   UNL     1     -11.857   6.786  70.704  1.00  0.00    -0.387 C  
HETATM    2  N   UNL     1     -11.884   8.180  70.216  1.00  0.00     0.085 N  
HETATM    3  C   UNL     1     -10.760   8.593  69.357  1.00  0.00    -0.158 C  
HETATM    4  N   UNL     1     -11.162   9.817  68.660  1.00  0.00    -0.482 NA 
HETATM    5 CL   UNL     1     -11.990  14.829  68.626  1.00  0.00    -0.325 Cl 
HETATM    6  C   UNL     1     -11.542  10.928  69.409  1.00  0.00    -0.316 A  
HETATM    7  C   UNL     1     -12.485  11.954  71.420  1.00  0.00    -0.261 A  
HETATM    8  H   UNL     1     -11.164   9.855  67.640  1.00  0.00     0.000 HD 
HETATM    9  C   UNL     1     -11.587  12.191  68.798  1.00  0.00    -0.380 A  
HETATM   10  O   UNL     1     -10.862   9.192  72.316  1.00  0.00    -0.199 OA 
HETATM   11  O   UNL     1     -13.371   9.087  72.075  1.00  0.00    -0.373 OA 
HETATM   12  C   UNL     1     -12.036  13.334  69.489  1.00  0.00    -0.307 A  
HETATM   13  C   UNL     1     -12.479  13.211  70.808  1.00  0.00    -0.308 A  
HETATM   14  S   UNL     1     -12.056   9.279  71.502  1.00  0.00    -0.385 S  
HETATM   15  C   UNL     1     -12.027  10.841  70.709  1.00  0.00    -0.362 A  
ENDROOT
BRANCH   3  16
HETATM   16  C   UNL     1     -10.383   7.526  68.292  1.00  0.00    -0.195 C  
BRANCH  16  17
HETATM   17  S   UNL     1      -8.706   7.843  67.593  1.00  0.00    -0.126 SA 
BRANCH  17  18
HETATM   18  C   UNL     1      -9.144   8.176  65.837  1.00  0.00    -0.130 C  
HETATM   19  F   UNL     1      -8.799  10.507  66.328  1.00  0.00    -0.146 F  
HETATM   20  C   UNL     1      -9.122   9.627  65.357  1.00  0.00    -0.215 C  
HETATM   21  F   UNL     1     -10.327   9.993  64.864  1.00  0.00    -0.396 F  
HETATM   22  F   UNL     1      -8.214   9.779  64.364  1.00  0.00    -0.130 F  
ENDBRANCH  17  18
ENDBRANCH  16  17
ENDBRANCH   3  16
BRANCH  13  23
HETATM   23  S   UNL     1     -13.084  14.583  71.736  1.00  0.00    -0.372 S  
HETATM   24  H2  UNL     1     -10.730  15.228  71.867  1.00  0.00     0.000 HD 
HETATM   25  H1  UNL     1     -12.044  16.239  72.651  1.00  0.00     0.000 HD 
HETATM   26  N   UNL     1     -11.695  15.445  72.115  1.00  0.00    -0.428 N  
HETATM   27  O   UNL     1     -13.887  15.418  70.881  1.00  0.00    -0.440 OA 
HETATM   28  O   UNL     1     -13.569  14.104  73.011  1.00  0.00    -0.651 OA 
ENDBRANCH  13  23
TORSDOF 4
ENDMDL
MODEL       27
REMARK 921   NORMALIZED FREE ENERGY PREDICTED BY IDOCK:   -6.02 KCAL/MOL
REMARK 922        TOTAL FREE ENERGY PREDICTED BY IDOCK:   -7.79 KCAL/MOL
REMARK 923 INTER-LIGAND FREE ENERGY PREDICTED BY IDOCK:   -7.30 KCAL/MOL
REMARK 924 INTRA-LIGAND FREE ENERGY PREDICTED BY IDOCK:   -0.49 KCAL/MOL
REMARK 927      BINDING AFFINITY PREDICTED BY RF-SCORE:    0.00 PKD
ROOT
HETATM    1  C   UNL     1     -12.285  15.054  64.400  1.00  0.00    -0.337 C  
HETATM    2  N   UNL     1     -11.444  14.364  65.400  1.00  0.00    -0.335 N  
HETATM    3  C   UNL     1     -10.106  14.934  65.633  1.00  0.00    -0.359 C  
HETATM    4  N   UNL     1      -9.609  14.395  66.902  1.00  0.00    -0.246 NA 
HETATM    5 CL   UNL     1      -7.594  10.607  69.620  1.00  0.00    -0.136 Cl 
HETATM    6  C   UNL     1      -9.503  13.015  67.055  1.00  0.00    -0.237 A  
HETATM    7  C   UNL     1     -10.204  10.728  66.541  1.00  0.00    -0.287 A  
HETATM    8  H   UNL     1      -9.345  15.022  67.663  1.00  0.00     0.000 HD 
HETATM    9  C   UNL     1      -8.719  12.492  68.094  1.00  0.00    -0.190 A  
HETATM   10  O   UNL     1     -10.581  12.579  63.803  1.00  0.00    -0.414 OA 
HETATM   11  O   UNL     1     -12.612  12.107  65.223  1.00  0.00    -0.494 OA 
HETATM   12  C   UNL     1      -8.638  11.108  68.339  1.00  0.00    -0.152 A  
HETATM   13  C   UNL     1      -9.381  10.225  67.552  1.00  0.00    -0.148 A  
HETATM   14  S   UNL     1     -11.306  12.705  65.049  1.00  0.00    -0.322 S  
HETATM   15  C   UNL     1     -10.257  12.107  66.318  1.00  0.00    -0.223 A  
ENDROOT
BRANCH   3  16
HETATM   16  C   UNL     1     -10.114  16.486  65.732  1.00  0.00    -0.303 C  
BRANCH  16  17
HETATM   17  S   UNL     1     -10.368  17.043  67.472  1.00  0.00    -0.332 SA 
BRANCH  17  18
HETATM   18  C   UNL     1      -9.279  18.527  67.500  1.00  0.00    -0.279 C  
HETATM   19  F   UNL     1     -11.161  19.765  66.651  1.00  0.00    -0.553 F  
HETATM   20  C   UNL     1      -9.875  19.860  67.050  1.00  0.00    -0.411 C  
HETATM   21  F   UNL     1      -9.170  20.384  66.022  1.00  0.00    -0.343 F  
HETATM   22  F   UNL     1      -9.838  20.756  68.064  1.00  0.00    -0.453 F  
ENDBRANCH  17  18
ENDBRANCH  16  17
ENDBRANCH   3  16
BRANCH  13  23
HETATM   23  S   UNL     1      -9.361   8.480  67.808  1.00  0.00    -0.138 S  
HETATM   24  H2  UNL     1     -11.115   8.450  66.106  1.00  0.00     0.000 HD 
HETATM   25  H1  UNL     1     -10.521   6.905  66.896  1.00  0.00     0.000 HD 
HETATM   26  N   UNL     1     -10.531   7.913  66.747  1.00  0.00    -0.310 N  
HETATM   27  O   UNL     1      -8.095   7.949  67.373  1.00  0.00    -0.119 OA 
HETATM   28  O   UNL     1      -9.898   8.198  69.121  1.00  0.00    -0.175 OA 
ENDBRANCH  13  23
TORSDOF 4
ENDMDL
MODEL       28
REMARK 921   NORMALIZED FREE ENERGY PREDICTED BY IDOCK:   -6.02 KCAL/MOL
REMARK 922        TOTAL FREE ENERGY PREDICTED BY IDOCK:   -7.79 KCAL/MOL
REMARK 923 INTER-LIGAND FREE ENERGY PREDICTED BY IDOCK:   -7.58 KCAL/MOL
REMARK 924 INTRA-LIGAND FREE ENERGY PREDICTED BY IDOCK:   -0.21 KCAL/MOL
REMARK 927      BINDING AFFINITY PREDICTED BY RF-SCORE:    0.00 PKD
ROOT
HETATM    1  C   UNL     1     -10.432   9.846  66.394  1.00  0.00    -0.127 C  
HETATM    2  N   UNL     1     -10.064  11.169  66.937  1.00  0.00    -0.208 N  
HETATM    3  C   UNL     1     -10.323  11.380  68.372  1.00  0.00    -0.195 C  
HETATM    4  N   UNL     1      -9.539  12.543  68.798  1.00  0.00    -0.410 NA 
HETATM    5 CL   UNL     1      -8.820  17.567  69.003  1.00  0.00    -0.113 Cl 
HETATM    6  C   UNL     1      -9.737  13.763  68.157  1.00  0.00    -0.227 A  
HETATM    7  C   UNL     1     -10.358  15.097  66.202  1.00  0.00    -0.313 A  
HETATM    8  H   UNL     1      -8.857  12.459  69.552  1.00  0.00     0.000 HD 
HETATM    9  C   UNL     1      -9.277  14.944  68.759  1.00  0.00    -0.193 A  
HETATM   10  O   UNL     1     -12.209  12.333  66.215  1.00  0.00    -0.628 OA 
HETATM   11  O   UNL     1     -10.181  12.414  64.718  1.00  0.00    -0.284 OA 
HETATM   12  C   UNL     1      -9.384  16.194  68.120  1.00  0.00    -0.201 A  
HETATM   13  C   UNL     1      -9.935  16.267  66.839  1.00  0.00    -0.260 A  
HETATM   14  S   UNL     1     -10.776  12.424  66.036  1.00  0.00    -0.270 S  
HETATM   15  C   UNL     1     -10.244  13.873  66.866  1.00  0.00    -0.257 A  
ENDROOT
BRANCH   3  16
HETATM   16  C   UNL     1      -9.911  10.166  69.251  1.00  0.00    -0.220 C  
BRANCH  16  17
HETATM   17  S   UNL     1     -11.216   9.765  70.491  1.00  0.00    -0.338 SA 
BRANCH  17  18
HETATM   18  C   UNL     1     -10.809   8.003  70.833  1.00  0.00    -0.230 C  
HETATM   19  F   UNL     1     -13.176   7.573  70.748  1.00  0.00    -0.206 F  
HETATM   20  C   UNL     1     -11.963   7.004  70.915  1.00  0.00    -0.364 C  
HETATM   21  F   UNL     1     -11.974   6.374  72.111  1.00  0.00    -0.332 F  
HETATM   22  F   UNL     1     -11.832   6.056  69.958  1.00  0.00    -0.409 F  
ENDBRANCH  17  18
ENDBRANCH  16  17
ENDBRANCH   3  16
BRANCH  13  23
HETATM   23  S   UNL     1     -10.081  17.787  65.955  1.00  0.00    -0.088 S  
HETATM   24  H2  UNL     1     -11.388  18.511  67.889  1.00  0.00     0.000 HD 
HETATM   25  H1  UNL     1     -11.088  19.627  66.464  1.00  0.00     0.000 HD 
HETATM   26  N   UNL     1     -11.003  18.748  66.975  1.00  0.00    -0.258 N  
HETATM   27  O   UNL     1      -8.783  18.399  65.845  1.00  0.00    -0.497 OA 
HETATM   28  O   UNL     1     -10.926  17.573  64.801  1.00  0.00    -0.950 OA 
ENDBRANCH  13  23
TORSDOF 4
ENDMDL
MODEL       29
REMARK 921   NORMALIZED FREE ENERGY PREDICTED BY IDOCK:   -6.02 KCAL/MOL
REMARK 922        TOTAL FREE ENERGY PREDICTED BY IDOCK:   -7.78 KCAL/MOL
REMARK 923 INTER-LIGAND FREE ENERGY PREDICTED BY IDOCK:   -7.29 KCAL/MOL
REMARK 924 INTRA-LIGAND FREE ENERGY PREDICTED BY IDOCK:   -0.50 KCAL/MOL
REMARK 927      BINDING AFFINITY PREDICTED BY RF-SCORE:    0.00 PKD
ROOT
HETATM    1  C   UNL     1      -8.736  10.335  65.795  1.00  0.00    -0.156 C  
HETATM    2  N   UNL     1      -9.557  10.620  66.990  1.00  0.00    -0.167 N  
HETATM    3  C   UNL     1     -10.765   9.794  67.164  1.00  0.00    -0.202 C  
HETATM    4  N   UNL     1     -11.197   9.928  68.557  1.00  0.00    -0.491 NA 
HETATM    5 CL   UNL     1     -13.445  12.578  72.262  1.00  0.00    -0.610 Cl 
HETATM    6  C   UNL     1     -11.487  11.196  69.056  1.00  0.00    -0.296 A  
HETATM    7  C   UNL     1     -11.188  13.624  69.081  1.00  0.00    -0.309 A  
HETATM    8  H   UNL     1     -11.284   9.105  69.154  1.00  0.00     0.000 HD 
HETATM    9  C   UNL     1     -12.225  11.320  70.243  1.00  0.00    -0.428 A  
HETATM   10  O   UNL     1     -10.838  12.558  65.949  1.00  0.00    -0.259 OA 
HETATM   11  O   UNL     1      -8.758  13.019  67.301  1.00  0.00    -0.192 OA 
HETATM   12  C   UNL     1     -12.481  12.575  70.829  1.00  0.00    -0.268 A  
HETATM   13  C   UNL     1     -11.964  13.730  70.238  1.00  0.00    -0.326 A  
HETATM   14  S   UNL     1      -9.973  12.267  67.073  1.00  0.00    -0.213 S  
HETATM   15  C   UNL     1     -10.958  12.365  68.519  1.00  0.00    -0.245 A  
ENDROOT
BRANCH   3  16
HETATM   16  C   UNL     1     -10.519   8.287  66.873  1.00  0.00    -0.295 C  
BRANCH  16  17
HETATM   17  S   UNL     1     -10.038   7.379  68.405  1.00  0.00    -0.182 SA 
BRANCH  17  18
HETATM   18  C   UNL     1     -10.784   5.733  68.056  1.00  0.00    -0.209 C  
HETATM   19  F   UNL     1      -8.977   5.389  66.502  1.00  0.00    -0.115 F  
HETATM   20  C   UNL     1     -10.079   4.829  67.045  1.00  0.00    -0.189 C  
HETATM   21  F   UNL     1     -10.907   4.500  66.029  1.00  0.00    -0.313 F  
HETATM   22  F   UNL     1      -9.688   3.677  67.639  1.00  0.00    -0.236 F  
ENDBRANCH  17  18
ENDBRANCH  16  17
ENDBRANCH   3  16
BRANCH  13  23
HETATM   23  S   UNL     1     -12.212  15.337  70.921  1.00  0.00    -0.395 S  
HETATM   24  H2  UNL     1     -10.907  16.095  68.999  1.00  0.00     0.000 HD 
HETATM   25  H1  UNL     1     -11.557  17.278  70.241  1.00  0.00     0.000 HD 
HETATM   26  N   UNL     1     -11.414  16.349  69.846  1.00  0.00    -0.181 N  
HETATM   27  O   UNL     1     -13.612  15.668  70.863  1.00  0.00    -0.568 OA 
HETATM   28  O   UNL     1     -11.452  15.443  72.147  1.00  0.00    -0.442 OA 
ENDBRANCH  13  23
TORSDOF 4
ENDMDL
MODEL       30
REMARK 921   NORMALIZED FREE ENERGY PREDICTED BY IDOCK:   -5.97 KCAL/MOL
REMARK 922        TOTAL FREE ENERGY PREDICTED BY IDOCK:   -7.73 KCAL/MOL
REMARK 923 INTER-LIGAND FREE ENERGY PREDICTED BY IDOCK:   -7.30 KCAL/MOL
REMARK 924 INTRA-LIGAND FREE ENERGY PREDICTED BY IDOCK:   -0.43 KCAL/MOL
REMARK 927      BINDING AFFINITY PREDICTED BY RF-SCORE:    0.00 PKD
ROOT
HETATM    1  C   UNL     1      -9.838  12.747  66.139  1.00  0.00    -0.267 C  
HETATM    2  N   UNL     1     -10.619  12.191  67.263  1.00  0.00    -0.223 N  
HETATM    3  C   UNL     1     -11.128  13.162  68.248  1.00  0.00    -0.266 C  
HETATM    4  N   UNL     1     -12.186  12.501  69.016  1.00  0.00    -0.098 NA 
HETATM    5 CL   UNL     1     -13.667   9.258  72.635  1.00  0.00    -0.464 Cl 
HETATM    6  C   UNL     1     -11.888  11.328  69.706  1.00  0.00    -0.364 A  
HETATM    7  C   UNL     1     -10.605   9.266  70.002  1.00  0.00    -0.256 A  
HETATM    8  H   UNL     1     -13.127  12.894  69.046  1.00  0.00     0.000 HD 
HETATM    9  C   UNL     1     -12.757  10.877  70.712  1.00  0.00    -0.431 A  
HETATM   10  O   UNL     1      -8.599  11.567  68.680  1.00  0.00    -0.158 OA 
HETATM   11  O   UNL     1      -9.628   9.847  67.148  1.00  0.00    -0.154 OA 
HETATM   12  C   UNL     1     -12.543   9.660  71.387  1.00  0.00    -0.371 A  
HETATM   13  C   UNL     1     -11.456   8.858  71.032  1.00  0.00    -0.294 A  
HETATM   14  S   UNL     1      -9.759  10.961  68.062  1.00  0.00    -0.169 S  
HETATM   15  C   UNL     1     -10.840  10.483  69.356  1.00  0.00    -0.249 A  
ENDROOT
BRANCH   3  16
HETATM   16  C   UNL     1     -11.726  14.438  67.592  1.00  0.00    -0.391 C  
BRANCH  16  17
HETATM   17  S   UNL     1     -11.061  15.968  68.380  1.00  0.00    -0.357 SA 
BRANCH  17  18
HETATM   18  C   UNL     1     -10.052  16.636  66.994  1.00  0.00    -0.281 C  
HETATM   19  F   UNL     1     -10.900  18.807  67.592  1.00  0.00    -0.453 F  
HETATM   20  C   UNL     1     -10.084  18.143  66.746  1.00  0.00    -0.362 C  
HETATM   21  F   UNL     1     -10.494  18.420  65.488  1.00  0.00    -0.372 F  
HETATM   22  F   UNL     1      -8.845  18.669  66.893  1.00  0.00    -0.259 F  
ENDBRANCH  17  18
ENDBRANCH  16  17
ENDBRANCH   3  16
BRANCH  13  23
HETATM   23  S   UNL     1     -11.131   7.306  71.805  1.00  0.00    -0.240 S  
HETATM   24  H2  UNL     1      -9.403   7.084  70.091  1.00  0.00     0.000 HD 
HETATM   25  H1  UNL     1      -9.682   5.774  71.345  1.00  0.00     0.000 HD 
HETATM   26  N   UNL     1      -9.870   6.671  70.898  1.00  0.00    -0.183 N  
HETATM   27  O   UNL     1     -10.629   7.534  73.136  1.00  0.00    -0.328 OA 
HETATM   28  O   UNL     1     -12.243   6.418  71.549  1.00  0.00    -0.312 OA 
ENDBRANCH  13  23
TORSDOF 4
ENDMDL
MODEL       31
REMARK 921   NORMALIZED FREE ENERGY PREDICTED BY IDOCK:   -5.96 KCAL/MOL
REMARK 922        TOTAL FREE ENERGY PREDICTED BY IDOCK:   -7.72 KCAL/MOL
REMARK 923 INTER-LIGAND FREE ENERGY PREDICTED BY IDOCK:   -7.48 KCAL/MOL
REMARK 924 INTRA-LIGAND FREE ENERGY PREDICTED BY IDOCK:   -0.24 KCAL/MOL
REMARK 927      BINDING AFFINITY PREDICTED BY RF-SCORE:    0.00 PKD
ROOT
HETATM    1  C   UNL     1     -11.111  11.782  66.148  1.00  0.00    -0.307 C  
HETATM    2  N   UNL     1     -10.363  12.911  66.739  1.00  0.00    -0.243 N  
HETATM    3  C   UNL     1     -10.250  12.921  68.208  1.00  0.00    -0.245 C  
HETATM    4  N   UNL     1      -9.165  13.840  68.563  1.00  0.00    -0.309 NA 
HETATM    5 CL   UNL     1      -7.378  18.554  69.189  1.00  0.00    -0.229 Cl 
HETATM    6  C   UNL     1      -9.238  15.166  68.144  1.00  0.00    -0.184 A  
HETATM    7  C   UNL     1      -9.979  16.896  66.581  1.00  0.00    -0.302 A  
HETATM    8  H   UNL     1      -8.367  13.513  69.109  1.00  0.00     0.000 HD 
HETATM    9  C   UNL     1      -8.419  16.130  68.751  1.00  0.00    -0.236 A  
HETATM   10  O   UNL     1     -12.320  14.538  66.718  1.00  0.00    -0.332 OA 
HETATM   11  O   UNL     1     -10.700  14.510  64.785  1.00  0.00    -0.413 OA 
HETATM   12  C   UNL     1      -8.399  17.468  68.315  1.00  0.00    -0.265 A  
HETATM   13  C   UNL     1      -9.190  17.851  67.229  1.00  0.00    -0.254 A  
HETATM   14  S   UNL     1     -10.975  14.404  66.202  1.00  0.00    -0.327 S  
HETATM   15  C   UNL     1      -9.982  15.577  67.042  1.00  0.00    -0.239 A  
ENDROOT
BRANCH   3  16
HETATM   16  C   UNL     1      -9.920  11.524  68.803  1.00  0.00    -0.157 C  
BRANCH  16  17
HETATM   17  S   UNL     1     -11.304  10.899  69.852  1.00  0.00    -0.301 SA 
BRANCH  17  18
HETATM   18  C   UNL     1     -10.445   9.538  70.745  1.00  0.00    -0.314 C  
HETATM   19  F   UNL     1     -12.631   8.744  71.368  1.00  0.00    -0.312 F  
HETATM   20  C   UNL     1     -11.306   8.500  71.464  1.00  0.00    -0.283 C  
HETATM   21  F   UNL     1     -11.000   8.444  72.780  1.00  0.00    -0.404 F  
HETATM   22  F   UNL     1     -11.088   7.270  70.944  1.00  0.00    -0.249 F  
ENDBRANCH  17  18
ENDBRANCH  16  17
ENDBRANCH   3  16
BRANCH  13  23
HETATM   23  S   UNL     1      -9.203  19.498  66.599  1.00  0.00    -0.374 S  
HETATM   24  H2  UNL     1     -11.303  18.824  65.545  1.00  0.00     0.000 HD 
HETATM   25  H1  UNL     1     -10.623  20.514  65.331  1.00  0.00     0.000 HD 
HETATM   26  N   UNL     1     -10.615  19.562  65.695  1.00  0.00    -0.441 N  
HETATM   27  O   UNL     1      -9.352  20.424  67.692  1.00  0.00    -0.358 OA 
HETATM   28  O   UNL     1      -8.144  19.631  65.623  1.00  0.00    -0.405 OA 
ENDBRANCH  13  23
TORSDOF 4
ENDMDL
MODEL       32
REMARK 921   NORMALIZED FREE ENERGY PREDICTED BY IDOCK:   -5.95 KCAL/MOL
REMARK 922        TOTAL FREE ENERGY PREDICTED BY IDOCK:   -7.70 KCAL/MOL
REMARK 923 INTER-LIGAND FREE ENERGY PREDICTED BY IDOCK:   -7.64 KCAL/MOL
REMARK 924 INTRA-LIGAND FREE ENERGY PREDICTED BY IDOCK:   -0.06 KCAL/MOL
REMARK 927      BINDING AFFINITY PREDICTED BY RF-SCORE:    0.00 PKD
ROOT
HETATM    1  C   UNL     1     -10.274  12.713  68.267  1.00  0.00    -0.239 C  
HETATM    2  N   UNL     1     -10.175  14.187  68.230  1.00  0.00    -0.237 N  
HETATM    3  C   UNL     1     -11.446  14.924  68.115  1.00  0.00    -0.330 C  
HETATM    4  N   UNL     1     -11.189  16.313  68.504  1.00  0.00    -0.365 NA 
HETATM    5 CL   UNL     1      -9.338  20.931  67.479  1.00  0.00    -0.398 Cl 
HETATM    6  C   UNL     1     -10.224  17.041  67.813  1.00  0.00    -0.312 A  
HETATM    7  C   UNL     1      -8.159  17.192  66.509  1.00  0.00    -0.318 A  
HETATM    8  H   UNL     1     -11.710  16.740  69.270  1.00  0.00     0.000 HD 
HETATM    9  C   UNL     1     -10.205  18.440  67.920  1.00  0.00    -0.404 A  
HETATM   10  O   UNL     1      -9.678  14.335  65.738  1.00  0.00    -0.297 OA 
HETATM   11  O   UNL     1      -7.772  14.274  67.390  1.00  0.00    -0.177 OA 
HETATM   12  C   UNL     1      -9.206  19.218  67.303  1.00  0.00    -0.303 A  
HETATM   13  C   UNL     1      -8.184  18.587  66.590  1.00  0.00    -0.274 A  
HETATM   14  S   UNL     1      -9.103  14.701  67.015  1.00  0.00    -0.249 S  
HETATM   15  C   UNL     1      -9.169  16.449  67.126  1.00  0.00    -0.213 A  
ENDROOT
BRANCH   3  16
HETATM   16  C   UNL     1     -12.564  14.358  69.035  1.00  0.00     0.270 C  
BRANCH  16  17
HETATM   17  S   UNL     1     -11.946  14.097  70.754  1.00  0.00    -0.270 SA 
BRANCH  17  18
HETATM   18  C   UNL     1     -12.460  15.686  71.528  1.00  0.00    -0.437 C  
HETATM   19  F   UNL     1     -12.993  14.406  73.496  1.00  0.00    -0.585 F  
HETATM   20  C   UNL     1     -12.964  15.650  72.970  1.00  0.00    -0.510 C  
HETATM   21  F   UNL     1     -14.215  16.156  73.059  1.00  0.00    -0.687 F  
HETATM   22  F   UNL     1     -12.166  16.400  73.765  1.00  0.00    -0.522 F  
ENDBRANCH  17  18
ENDBRANCH  16  17
ENDBRANCH   3  16
BRANCH  13  23
HETATM   23  S   UNL     1      -6.879  19.482  65.811  1.00  0.00    -0.291 S  
HETATM   24  H2  UNL     1      -5.986  17.265  65.297  1.00  0.00     0.000 HD 
HETATM   25  H1  UNL     1      -5.117  18.793  64.773  1.00  0.00     0.000 HD 
HETATM   26  N   UNL     1      -5.871  18.276  65.223  1.00  0.00    -0.202 N  
HETATM   27  O   UNL     1      -7.403  20.195  64.676  1.00  0.00    -0.119 OA 
HETATM   28  O   UNL     1      -6.094  20.140  66.832  1.00  0.00    -0.174 OA 
ENDBRANCH  13  23
TORSDOF 4
ENDMDL
MODEL       33
REMARK 921   NORMALIZED FREE ENERGY PREDICTED BY IDOCK:   -5.94 KCAL/MOL
REMARK 922        TOTAL FREE ENERGY PREDICTED BY IDOCK:   -7.69 KCAL/MOL
REMARK 923 INTER-LIGAND FREE ENERGY PREDICTED BY IDOCK:   -7.87 KCAL/MOL
REMARK 924 INTRA-LIGAND FREE ENERGY PREDICTED BY IDOCK:    0.18 KCAL/MOL
REMARK 927      BINDING AFFINITY PREDICTED BY RF-SCORE:    0.00 PKD
ROOT
HETATM    1  C   UNL     1     -10.619  14.411  64.718  1.00  0.00    -0.393 C  
HETATM    2  N   UNL     1     -11.143  14.342  66.097  1.00  0.00    -0.323 N  
HETATM    3  C   UNL     1     -10.637  15.355  67.040  1.00  0.00    -0.309 C  
HETATM    4  N   UNL     1     -11.549  15.388  68.187  1.00  0.00    -0.346 NA 
HETATM    5 CL   UNL     1     -13.295  13.386  72.516  1.00  0.00    -0.624 Cl 
HETATM    6  C   UNL     1     -11.765  14.219  68.912  1.00  0.00    -0.328 A  
HETATM    7  C   UNL     1     -11.885  11.782  69.089  1.00  0.00    -0.389 A  
HETATM    8  H   UNL     1     -12.018  16.255  68.450  1.00  0.00     0.000 HD 
HETATM    9  C   UNL     1     -12.335  14.294  70.192  1.00  0.00    -0.413 A  
HETATM   10  O   UNL     1      -9.512  12.556  66.890  1.00  0.00    -0.206 OA 
HETATM   11  O   UNL     1     -11.781  11.877  66.020  1.00  0.00    -0.455 OA 
HETATM   12  C   UNL     1     -12.644  13.139  70.936  1.00  0.00    -0.295 A  
HETATM   13  C   UNL     1     -12.409  11.879  70.381  1.00  0.00    -0.251 A  
HETATM   14  S   UNL     1     -10.935  12.789  66.759  1.00  0.00    -0.279 S  
HETATM   15  C   UNL     1     -11.582  12.947  68.379  1.00  0.00    -0.333 A  
ENDROOT
BRANCH   3  16
HETATM   16  C   UNL     1     -10.575  16.782  66.425  1.00  0.00    -0.192 C  
BRANCH  16  17
HETATM   17  S   UNL     1      -8.836  17.391  66.325  1.00  0.00    -0.156 SA 
BRANCH  17  18
HETATM   18  C   UNL     1      -8.902  18.763  67.550  1.00  0.00    -0.274 C  
HETATM   19  F   UNL     1      -8.126  20.203  65.784  1.00  0.00    -0.332 F  
HETATM   20  C   UNL     1      -8.510  20.163  67.078  1.00  0.00    -0.335 C  
HETATM   21  F   UNL     1      -7.491  20.657  67.817  1.00  0.00    -0.326 F  
HETATM   22  F   UNL     1      -9.556  21.013  67.209  1.00  0.00    -0.590 F  
ENDBRANCH  17  18
ENDBRANCH  16  17
ENDBRANCH   3  16
BRANCH  13  23
HETATM   23  S   UNL     1     -12.794  10.382  71.231  1.00  0.00    -0.463 S  
HETATM   24  H2  UNL     1     -10.410   9.904  70.973  1.00  0.00     0.000 HD 
HETATM   25  H1  UNL     1     -11.538   8.727  71.815  1.00  0.00     0.000 HD 
HETATM   26  N   UNL     1     -11.316   9.592  71.324  1.00  0.00    -0.372 N  
HETATM   27  O   UNL     1     -13.201  10.691  72.577  1.00  0.00    -0.109 OA 
HETATM   28  O   UNL     1     -13.594   9.548  70.362  1.00  0.00     0.221 OA 
ENDBRANCH  13  23
TORSDOF 4
ENDMDL
MODEL       34
REMARK 921   NORMALIZED FREE ENERGY PREDICTED BY IDOCK:   -5.83 KCAL/MOL
REMARK 922        TOTAL FREE ENERGY PREDICTED BY IDOCK:   -7.56 KCAL/MOL
REMARK 923 INTER-LIGAND FREE ENERGY PREDICTED BY IDOCK:   -7.37 KCAL/MOL
REMARK 924 INTRA-LIGAND FREE ENERGY PREDICTED BY IDOCK:   -0.19 KCAL/MOL
REMARK 927      BINDING AFFINITY PREDICTED BY RF-SCORE:    0.00 PKD
ROOT
HETATM    1  C   UNL     1     -11.462  11.806  65.257  1.00  0.00    -0.186 C  
HETATM    2  N   UNL     1     -10.490  12.867  65.595  1.00  0.00    -0.273 N  
HETATM    3  C   UNL     1      -9.625  12.611  66.759  1.00  0.00    -0.241 C  
HETATM    4  N   UNL     1      -8.494  13.541  66.684  1.00  0.00    -0.432 NA 
HETATM    5 CL   UNL     1      -6.539  18.194  67.254  1.00  0.00    -0.188 Cl 
HETATM    6  C   UNL     1      -8.746  14.910  66.647  1.00  0.00    -0.227 A  
HETATM    7  C   UNL     1     -10.157  16.829  66.087  1.00  0.00    -0.360 A  
HETATM    8  H   UNL     1      -7.537  13.190  66.658  1.00  0.00     0.000 HD 
HETATM    9  C   UNL     1      -7.709  15.812  66.927  1.00  0.00    -0.254 A  
HETATM   10  O   UNL     1     -12.132  14.287  66.923  1.00  0.00    -0.431 OA 
HETATM   11  O   UNL     1     -11.764  14.767  64.474  1.00  0.00    -0.411 OA 
HETATM   12  C   UNL     1      -7.890  17.205  66.831  1.00  0.00    -0.215 A  
HETATM   13  C   UNL     1      -9.124  17.712  66.415  1.00  0.00    -0.234 A  
HETATM   14  S   UNL     1     -11.260  14.373  65.772  1.00  0.00    -0.333 S  
HETATM   15  C   UNL     1      -9.947  15.452  66.200  1.00  0.00    -0.307 A  
ENDROOT
BRANCH   3  16
HETATM   16  C   UNL     1      -9.063  11.162  66.795  1.00  0.00    -0.166 C  
BRANCH  16  17
HETATM   17  S   UNL     1      -8.722  10.620  68.525  1.00  0.00    -0.148 SA 
BRANCH  17  18
HETATM   18  C   UNL     1     -10.435  10.279  69.103  1.00  0.00    -0.224 C  
HETATM   19  F   UNL     1      -9.447   9.449  71.135  1.00  0.00    -0.313 F  
HETATM   20  C   UNL     1     -10.614   9.681  70.498  1.00  0.00    -0.306 C  
HETATM   21  F   UNL     1     -11.284   8.508  70.441  1.00  0.00    -0.248 F  
HETATM   22  F   UNL     1     -11.333  10.521  71.279  1.00  0.00    -0.361 F  
ENDBRANCH  17  18
ENDBRANCH  16  17
ENDBRANCH   3  16
BRANCH  13  23
HETATM   23  S   UNL     1      -9.428  19.440  66.239  1.00  0.00    -0.338 S  
HETATM   24  H2  UNL     1      -9.649  19.407  68.673  1.00  0.00     0.000 HD 
HETATM   25  H1  UNL     1      -9.848  20.959  67.714  1.00  0.00     0.000 HD 
HETATM   26  N   UNL     1      -9.671  19.960  67.816  1.00  0.00    -0.373 N  
HETATM   27  O   UNL     1      -8.236  20.086  65.754  1.00  0.00    -0.297 OA 
HETATM   28  O   UNL     1     -10.711  19.622  65.598  1.00  0.00    -0.503 OA 
ENDBRANCH  13  23
TORSDOF 4
ENDMDL
MODEL       35
REMARK 921   NORMALIZED FREE ENERGY PREDICTED BY IDOCK:   -5.83 KCAL/MOL
REMARK 922        TOTAL FREE ENERGY PREDICTED BY IDOCK:   -7.56 KCAL/MOL
REMARK 923 INTER-LIGAND FREE ENERGY PREDICTED BY IDOCK:   -6.91 KCAL/MOL
REMARK 924 INTRA-LIGAND FREE ENERGY PREDICTED BY IDOCK:   -0.65 KCAL/MOL
REMARK 927      BINDING AFFINITY PREDICTED BY RF-SCORE:    0.00 PKD
ROOT
HETATM    1  C   UNL     1     -11.918  14.023  68.834  1.00  0.00    -0.352 C  
HETATM    2  N   UNL     1     -10.893  12.978  69.032  1.00  0.00    -0.201 N  
HETATM    3  C   UNL     1      -9.828  12.907  68.016  1.00  0.00    -0.223 C  
HETATM    4  N   UNL     1      -8.724  12.128  68.584  1.00  0.00    -0.359 NA 
HETATM    5 CL   UNL     1      -6.663   7.677  69.902  1.00  0.00    -0.045 Cl 
HETATM    6  C   UNL     1      -8.969  10.828  69.019  1.00  0.00    -0.132 A  
HETATM    7  C   UNL     1     -10.444   9.096  69.918  1.00  0.00    -0.239 A  
HETATM    8  H   UNL     1      -7.791  12.533  68.660  1.00  0.00     0.000 HD 
HETATM    9  C   UNL     1      -7.890   9.955  69.230  1.00  0.00    -0.117 A  
HETATM   10  O   UNL     1     -12.249  11.102  67.973  1.00  0.00    -0.584 OA 
HETATM   11  O   UNL     1     -12.338  11.450  70.470  1.00  0.00    -0.342 OA 
HETATM   12  C   UNL     1      -8.076   8.656  69.740  1.00  0.00    -0.114 A  
HETATM   13  C   UNL     1      -9.362   8.226  70.078  1.00  0.00    -0.162 A  
HETATM   14  S   UNL     1     -11.604  11.445  69.223  1.00  0.00    -0.348 S  
HETATM   15  C   UNL     1     -10.227  10.376  69.402  1.00  0.00    -0.234 A  
ENDROOT
BRANCH   3  16
HETATM   16  C   UNL     1      -9.280  14.304  67.610  1.00  0.00    -0.194 C  
BRANCH  16  17
HETATM   17  S   UNL     1      -9.752  14.730  65.878  1.00  0.00    -0.297 SA 
BRANCH  17  18
HETATM   18  C   UNL     1     -10.554  13.155  65.364  1.00  0.00    -0.299 C  
HETATM   19  F   UNL     1     -12.085  14.502  64.086  1.00  0.00    -0.456 F  
HETATM   20  C   UNL     1     -11.747  13.237  64.413  1.00  0.00    -0.388 C  
HETATM   21  F   UNL     1     -12.840  12.654  64.955  1.00  0.00    -0.553 F  
HETATM   22  F   UNL     1     -11.472  12.587  63.258  1.00  0.00    -0.493 F  
ENDBRANCH  17  18
ENDBRANCH  16  17
ENDBRANCH   3  16
BRANCH  13  23
HETATM   23  S   UNL     1      -9.681   6.626  70.750  1.00  0.00    -0.179 S  
HETATM   24  H2  UNL     1     -12.026   7.302  70.620  1.00  0.00     0.000 HD 
HETATM   25  H1  UNL     1     -11.538   5.654  71.262  1.00  0.00     0.000 HD 
HETATM   26  N   UNL     1     -11.353   6.578  70.873  1.00  0.00    -0.317 N  
HETATM   27  O   UNL     1      -9.292   5.623  69.793  1.00  0.00    -0.137 OA 
HETATM   28  O   UNL     1      -9.217   6.597  72.119  1.00  0.00    -0.140 OA 
ENDBRANCH  13  23
TORSDOF 4
ENDMDL
MODEL       36
REMARK 921   NORMALIZED FREE ENERGY PREDICTED BY IDOCK:   -5.82 KCAL/MOL
REMARK 922        TOTAL FREE ENERGY PREDICTED BY IDOCK:   -7.55 KCAL/MOL
REMARK 923 INTER-LIGAND FREE ENERGY PREDICTED BY IDOCK:   -7.50 KCAL/MOL
REMARK 924 INTRA-LIGAND FREE ENERGY PREDICTED BY IDOCK:   -0.05 KCAL/MOL
REMARK 927      BINDING AFFINITY PREDICTED BY RF-SCORE:    0.00 PKD
ROOT
HETATM    1  C   UNL     1     -10.673  10.100  66.269  1.00  0.00     0.024 C  
HETATM    2  N   UNL     1     -10.538  11.401  66.957  1.00  0.00    -0.236 N  
HETATM    3  C   UNL     1     -11.235  11.532  68.248  1.00  0.00    -0.261 C  
HETATM    4  N   UNL     1     -10.662  12.687  68.945  1.00  0.00    -0.375 NA 
HETATM    5 CL   UNL     1     -10.221  17.707  69.579  1.00  0.00    -0.069 Cl 
HETATM    6  C   UNL     1     -10.697  13.934  68.328  1.00  0.00    -0.251 A  
HETATM    7  C   UNL     1     -10.731  15.355  66.336  1.00  0.00    -0.311 A  
HETATM    8  H   UNL     1     -10.244  12.578  69.870  1.00  0.00     0.000 HD 
HETATM    9  C   UNL     1     -10.487  15.091  69.093  1.00  0.00    -0.247 A  
HETATM   10  O   UNL     1     -12.395  12.556  65.655  1.00  0.00    -0.615 OA 
HETATM   11  O   UNL     1     -10.008  12.756  64.866  1.00  0.00    -0.231 OA 
HETATM   12  C   UNL     1     -10.436  16.371  68.507  1.00  0.00    -0.291 A  
HETATM   13  C   UNL     1     -10.567  16.499  67.122  1.00  0.00    -0.270 A  
HETATM   14  S   UNL     1     -10.981  12.686  65.934  1.00  0.00    -0.287 S  
HETATM   15  C   UNL     1     -10.784  14.100  66.949  1.00  0.00    -0.286 A  
ENDROOT
BRANCH   3  16
HETATM   16  C   UNL     1     -11.071  10.282  69.158  1.00  0.00    -0.235 C  
BRANCH  16  17
HETATM   17  S   UNL     1     -12.170  10.383  70.637  1.00  0.00    -0.368 SA 
BRANCH  17  18
HETATM   18  C   UNL     1     -11.878   8.722  71.372  1.00  0.00    -0.308 C  
HETATM   19  F   UNL     1      -9.630   9.458  71.821  1.00  0.00    -0.314 F  
HETATM   20  C   UNL     1     -10.495   8.430  71.954  1.00  0.00    -0.296 C  
HETATM   21  F   UNL     1      -9.936   7.352  71.358  1.00  0.00    -0.184 F  
HETATM   22  F   UNL     1     -10.590   8.158  73.276  1.00  0.00    -0.393 F  
ENDBRANCH  17  18
ENDBRANCH  16  17
ENDBRANCH   3  16
BRANCH  13  23
HETATM   23  S   UNL     1     -10.487  18.059  66.302  1.00  0.00    -0.268 S  
HETATM   24  H2  UNL     1      -8.074  17.834  66.623  1.00  0.00     0.000 HD 
HETATM   25  H1  UNL     1      -8.797  19.299  65.787  1.00  0.00     0.000 HD 
HETATM   26  N   UNL     1      -8.844  18.397  66.260  1.00  0.00    -0.238 N  
HETATM   27  O   UNL     1     -10.928  17.903  64.940  1.00  0.00    -0.827 OA 
HETATM   28  O   UNL     1     -11.040  19.070  67.174  1.00  0.00    -0.358 OA 
ENDBRANCH  13  23
TORSDOF 4
ENDMDL
MODEL       37
REMARK 921   NORMALIZED FREE ENERGY PREDICTED BY IDOCK:   -5.81 KCAL/MOL
REMARK 922        TOTAL FREE ENERGY PREDICTED BY IDOCK:   -7.53 KCAL/MOL
REMARK 923 INTER-LIGAND FREE ENERGY PREDICTED BY IDOCK:   -7.09 KCAL/MOL
REMARK 924 INTRA-LIGAND FREE ENERGY PREDICTED BY IDOCK:   -0.44 KCAL/MOL
REMARK 927      BINDING AFFINITY PREDICTED BY RF-SCORE:    0.00 PKD
ROOT
HETATM    1  C   UNL     1     -11.301  11.823  66.199  1.00  0.00    -0.280 C  
HETATM    2  N   UNL     1     -10.596  12.989  66.769  1.00  0.00    -0.261 N  
HETATM    3  C   UNL     1     -10.549  13.069  68.239  1.00  0.00    -0.247 C  
HETATM    4  N   UNL     1      -9.493  14.020  68.598  1.00  0.00    -0.323 NA 
HETATM    5 CL   UNL     1      -7.799  18.785  69.079  1.00  0.00    -0.268 Cl 
HETATM    6  C   UNL     1      -9.565  15.324  68.114  1.00  0.00    -0.204 A  
HETATM    7  C   UNL     1     -10.257  16.968  66.439  1.00  0.00    -0.330 A  
HETATM    8  H   UNL     1      -8.717  13.731  69.193  1.00  0.00     0.000 HD 
HETATM    9  C   UNL     1      -8.786  16.327  68.710  1.00  0.00    -0.243 A  
HETATM   10  O   UNL     1     -12.571  14.583  66.584  1.00  0.00    -0.179 OA 
HETATM   11  O   UNL     1     -10.865  14.490  64.728  1.00  0.00    -0.399 OA 
HETATM   12  C   UNL     1      -8.765  17.644  68.213  1.00  0.00    -0.276 A  
HETATM   13  C   UNL     1      -9.511  17.963  67.076  1.00  0.00    -0.272 A  
HETATM   14  S   UNL     1     -11.203  14.446  66.135  1.00  0.00    -0.341 S  
HETATM   15  C   UNL     1     -10.264  15.672  66.962  1.00  0.00    -0.274 A  
ENDROOT
BRANCH   3  16
HETATM   16  C   UNL     1     -10.227  11.706  68.914  1.00  0.00    -0.125 C  
BRANCH  16  17
HETATM   17  S   UNL     1     -11.618  11.148  69.989  1.00  0.00    -0.334 SA 
BRANCH  17  18
HETATM   18  C   UNL     1     -12.375  12.771  70.410  1.00  0.00    -0.247 C  
HETATM   19  F   UNL     1     -13.066  11.766  72.485  1.00  0.00    -0.475 F  
HETATM   20  C   UNL     1     -13.074  12.907  71.762  1.00  0.00    -0.360 C  
HETATM   21  F   UNL     1     -14.365  13.278  71.607  1.00  0.00    -0.131 F  
HETATM   22  F   UNL     1     -12.466  13.856  72.511  1.00  0.00    -0.279 F  
ENDBRANCH  17  18
ENDBRANCH  16  17
ENDBRANCH   3  16
BRANCH  13  23
HETATM   23  S   UNL     1      -9.518  19.580  66.369  1.00  0.00    -0.398 S  
HETATM   24  H2  UNL     1     -11.556  18.822  65.251  1.00  0.00     0.000 HD 
HETATM   25  H1  UNL     1     -10.891  20.512  64.989  1.00  0.00     0.000 HD 
HETATM   26  N   UNL     1     -10.887  19.578  65.398  1.00  0.00    -0.241 N  
HETATM   27  O   UNL     1      -9.732  20.552  67.409  1.00  0.00    -0.436 OA 
HETATM   28  O   UNL     1      -8.416  19.684  65.439  1.00  0.00    -0.165 OA 
ENDBRANCH  13  23
TORSDOF 4
ENDMDL
MODEL       38
REMARK 921   NORMALIZED FREE ENERGY PREDICTED BY IDOCK:   -5.79 KCAL/MOL
REMARK 922        TOTAL FREE ENERGY PREDICTED BY IDOCK:   -7.51 KCAL/MOL
REMARK 923 INTER-LIGAND FREE ENERGY PREDICTED BY IDOCK:   -7.44 KCAL/MOL
REMARK 924 INTRA-LIGAND FREE ENERGY PREDICTED BY IDOCK:   -0.07 KCAL/MOL
REMARK 927      BINDING AFFINITY PREDICTED BY RF-SCORE:    0.00 PKD
ROOT
HETATM    1  C   UNL     1     -10.329   9.265  71.362  1.00  0.00    -0.321 C  
HETATM    2  N   UNL     1     -10.431   9.915  70.039  1.00  0.00    -0.265 N  
HETATM    3  C   UNL     1     -11.744  10.483  69.690  1.00  0.00    -0.256 C  
HETATM    4  N   UNL     1     -11.543  11.413  68.576  1.00  0.00    -0.303 NA 
HETATM    5 CL   UNL     1     -10.737  12.306  63.641  1.00  0.00    -0.477 Cl 
HETATM    6  C   UNL     1     -10.970  10.942  67.397  1.00  0.00    -0.293 A  
HETATM    7  C   UNL     1      -9.510   9.408  66.172  1.00  0.00    -0.287 A  
HETATM    8  H   UNL     1     -11.819  12.392  68.662  1.00  0.00     0.000 HD 
HETATM    9  C   UNL     1     -11.087  11.697  66.220  1.00  0.00    -0.345 A  
HETATM   10  O   UNL     1     -10.837   7.764  68.741  1.00  0.00    -0.114 OA 
HETATM   11  O   UNL     1      -8.489   8.657  68.971  1.00  0.00    -0.122 OA 
HETATM   12  C   UNL     1     -10.463  11.305  65.021  1.00  0.00    -0.298 A  
HETATM   13  C   UNL     1      -9.677  10.150  65.000  1.00  0.00    -0.318 A  
HETATM   14  S   UNL     1      -9.910   8.873  68.799  1.00  0.00    -0.178 S  
HETATM   15  C   UNL     1     -10.148   9.821  67.345  1.00  0.00    -0.208 A  
ENDROOT
BRANCH   3  16
HETATM   16  C   UNL     1     -12.402  11.263  70.863  1.00  0.00    -0.388 C  
BRANCH  16  17
HETATM   17  S   UNL     1     -12.303  13.085  70.594  1.00  0.00    -0.223 SA 
BRANCH  17  18
HETATM   18  C   UNL     1     -13.167  13.684  72.104  1.00  0.00    -0.449 C  
HETATM   19  F   UNL     1     -11.594  15.506  72.124  1.00  0.00    -0.414 F  
HETATM   20  C   UNL     1     -12.663  14.973  72.753  1.00  0.00    -0.400 C  
HETATM   21  F   UNL     1     -12.311  14.762  74.041  1.00  0.00    -0.618 F  
HETATM   22  F   UNL     1     -13.638  15.912  72.748  1.00  0.00    -0.534 F  
ENDBRANCH  17  18
ENDBRANCH  16  17
ENDBRANCH   3  16
BRANCH  13  23
HETATM   23  S   UNL     1      -8.837   9.602  63.549  1.00  0.00    -0.213 S  
HETATM   24  H2  UNL     1      -7.201  11.321  64.136  1.00  0.00     0.000 HD 
HETATM   25  H1  UNL     1      -6.991  10.266  62.649  1.00  0.00     0.000 HD 
HETATM   26  N   UNL     1      -7.477  10.583  63.488  1.00  0.00    -0.023 N  
HETATM   27  O   UNL     1      -8.382   8.250  63.746  1.00  0.00    -0.128 OA 
HETATM   28  O   UNL     1      -9.611   9.987  62.390  1.00  0.00    -0.263 OA 
ENDBRANCH  13  23
TORSDOF 4
ENDMDL
MODEL       39
REMARK 921   NORMALIZED FREE ENERGY PREDICTED BY IDOCK:   -5.77 KCAL/MOL
REMARK 922        TOTAL FREE ENERGY PREDICTED BY IDOCK:   -7.49 KCAL/MOL
REMARK 923 INTER-LIGAND FREE ENERGY PREDICTED BY IDOCK:   -7.08 KCAL/MOL
REMARK 924 INTRA-LIGAND FREE ENERGY PREDICTED BY IDOCK:   -0.41 KCAL/MOL
REMARK 927      BINDING AFFINITY PREDICTED BY RF-SCORE:    0.00 PKD
ROOT
HETATM    1  C   UNL     1      -8.257   7.987  64.834  1.00  0.00    -0.134 C  
HETATM    2  N   UNL     1      -9.104   8.526  65.918  1.00  0.00    -0.190 N  
HETATM    3  C   UNL     1      -8.846   9.921  66.315  1.00  0.00    -0.143 C  
HETATM    4  N   UNL     1     -10.011  10.389  67.071  1.00  0.00    -0.198 NA 
HETATM    5 CL   UNL     1     -12.763  10.520  71.339  1.00  0.00    -0.508 Cl 
HETATM    6  C   UNL     1     -10.397   9.697  68.216  1.00  0.00    -0.204 A  
HETATM    7  C   UNL     1     -10.553   7.652  69.550  1.00  0.00    -0.227 A  
HETATM    8  H   UNL     1     -10.532  11.211  66.763  1.00  0.00     0.000 HD 
HETATM    9  C   UNL     1     -11.263  10.308  69.135  1.00  0.00    -0.268 A  
HETATM   10  O   UNL     1      -7.715   7.558  67.817  1.00  0.00    -0.110 OA 
HETATM   11  O   UNL     1      -9.700   6.271  66.942  1.00  0.00    -0.139 OA 
HETATM   12  C   UNL     1     -11.744   9.626  70.269  1.00  0.00    -0.155 A  
HETATM   13  C   UNL     1     -11.379   8.294  70.477  1.00  0.00    -0.219 A  
HETATM   14  S   UNL     1      -9.062   7.522  67.290  1.00  0.00    -0.127 S  
HETATM   15  C   UNL     1     -10.087   8.359  68.438  1.00  0.00    -0.198 A  
ENDROOT
BRANCH   3  16
HETATM   16  C   UNL     1      -8.637  10.871  65.103  1.00  0.00    -0.078 C  
BRANCH  16  17
HETATM   17  S   UNL     1     -10.096  10.847  63.975  1.00  0.00    -0.366 SA 
BRANCH  17  18
HETATM   18  C   UNL     1     -10.786  12.522  64.301  1.00  0.00    -0.364 C  
HETATM   19  F   UNL     1     -12.898  11.660  63.530  1.00  0.00    -0.612 F  
HETATM   20  C   UNL     1     -12.272  12.750  64.023  1.00  0.00    -0.441 C  
HETATM   21  F   UNL     1     -12.450  13.755  63.135  1.00  0.00    -0.527 F  
HETATM   22  F   UNL     1     -12.914  13.098  65.163  1.00  0.00    -0.513 F  
ENDBRANCH  17  18
ENDBRANCH  16  17
ENDBRANCH   3  16
BRANCH  13  23
HETATM   23  S   UNL     1     -11.957   7.356  71.855  1.00  0.00    -0.311 S  
HETATM   24  H2  UNL     1     -10.644   5.545  70.869  1.00  0.00     0.000 HD 
HETATM   25  H1  UNL     1     -11.592   5.305  72.421  1.00  0.00     0.000 HD 
HETATM   26  N   UNL     1     -11.258   5.848  71.625  1.00  0.00    -0.263 N  
HETATM   27  O   UNL     1     -11.408   7.904  73.068  1.00  0.00    -0.408 OA 
HETATM   28  O   UNL     1     -13.375   7.123  71.695  1.00  0.00    -0.376 OA 
ENDBRANCH  13  23
TORSDOF 4
ENDMDL
MODEL       40
REMARK 921   NORMALIZED FREE ENERGY PREDICTED BY IDOCK:   -5.76 KCAL/MOL
REMARK 922        TOTAL FREE ENERGY PREDICTED BY IDOCK:   -7.47 KCAL/MOL
REMARK 923 INTER-LIGAND FREE ENERGY PREDICTED BY IDOCK:   -6.91 KCAL/MOL
REMARK 924 INTRA-LIGAND FREE ENERGY PREDICTED BY IDOCK:   -0.56 KCAL/MOL
REMARK 927      BINDING AFFINITY PREDICTED BY RF-SCORE:    0.00 PKD
ROOT
HETATM    1  C   UNL     1      -7.125  11.686  68.707  1.00  0.00    -0.106 C  
HETATM    2  N   UNL     1      -7.871  12.817  68.117  1.00  0.00    -0.137 N  
HETATM    3  C   UNL     1      -8.234  12.689  66.695  1.00  0.00     0.140 C  
HETATM    4  N   UNL     1      -9.287  13.670  66.417  1.00  0.00    -0.429 NA 
HETATM    5 CL   UNL     1     -10.772  18.448  65.545  1.00  0.00    -0.184 Cl 
HETATM    6  C   UNL     1      -9.037  15.018  66.661  1.00  0.00    -0.280 A  
HETATM    7  C   UNL     1      -7.903  16.816  67.872  1.00  0.00    -0.178 A  
HETATM    8  H   UNL     1     -10.190  13.369  66.049  1.00  0.00     0.000 HD 
HETATM    9  C   UNL     1      -9.869  15.991  66.087  1.00  0.00    -0.351 A  
HETATM   10  O   UNL     1      -5.816  14.237  67.632  1.00  0.00    -0.298 OA 
HETATM   11  O   UNL     1      -7.077  14.565  69.792  1.00  0.00    -0.134 OA 
HETATM   12  C   UNL     1      -9.707  17.362  66.362  1.00  0.00    -0.290 A  
HETATM   13  C   UNL     1      -8.713  17.773  67.254  1.00  0.00    -0.237 A  
HETATM   14  S   UNL     1      -7.059  14.289  68.372  1.00  0.00    -0.118 S  
HETATM   15  C   UNL     1      -8.085  15.463  67.573  1.00  0.00    -0.167 A  
ENDROOT
BRANCH   3  16
HETATM   16  C   UNL     1      -8.772  11.278  66.328  1.00  0.00    -0.184 C  
BRANCH  16  17
HETATM   17  S   UNL     1     -10.616  11.261  66.266  1.00  0.00    -0.251 SA 
BRANCH  17  18
HETATM   18  C   UNL     1     -10.880  11.358  64.447  1.00  0.00    -0.330 C  
HETATM   19  F   UNL     1     -12.810  12.714  64.930  1.00  0.00    -0.546 F  
HETATM   20  C   UNL     1     -12.068  12.175  63.939  1.00  0.00    -0.488 C  
HETATM   21  F   UNL     1     -12.893  11.414  63.185  1.00  0.00    -0.554 F  
HETATM   22  F   UNL     1     -11.637  13.197  63.163  1.00  0.00    -0.487 F  
ENDBRANCH  17  18
ENDBRANCH  16  17
ENDBRANCH   3  16
BRANCH  13  23
HETATM   23  S   UNL     1      -8.460  19.466  67.678  1.00  0.00    -0.312 S  
HETATM   24  H2  UNL     1      -6.756  18.585  69.193  1.00  0.00     0.000 HD 
HETATM   25  H1  UNL     1      -7.092  20.385  69.072  1.00  0.00     0.000 HD 
HETATM   26  N   UNL     1      -7.238  19.406  68.826  1.00  0.00    -0.342 N  
HETATM   27  O   UNL     1      -7.939  20.169  66.534  1.00  0.00    -0.301 OA 
HETATM   28  O   UNL     1      -9.616  19.941  68.406  1.00  0.00    -0.346 OA 
ENDBRANCH  13  23
TORSDOF 4
ENDMDL
MODEL       41
REMARK 921   NORMALIZED FREE ENERGY PREDICTED BY IDOCK:   -5.71 KCAL/MOL
REMARK 922        TOTAL FREE ENERGY PREDICTED BY IDOCK:   -7.40 KCAL/MOL
REMARK 923 INTER-LIGAND FREE ENERGY PREDICTED BY IDOCK:   -7.04 KCAL/MOL
REMARK 924 INTRA-LIGAND FREE ENERGY PREDICTED BY IDOCK:   -0.37 KCAL/MOL
REMARK 927      BINDING AFFINITY PREDICTED BY RF-SCORE:    0.00 PKD
ROOT
HETATM    1  C   UNL     1     -11.772   6.365  71.132  1.00  0.00    -0.298 C  
HETATM    2  N   UNL     1     -11.786   7.699  70.498  1.00  0.00    -0.151 N  
HETATM    3  C   UNL     1     -10.713   7.971  69.526  1.00  0.00    -0.181 C  
HETATM    4  N   UNL     1     -11.122   9.130  68.727  1.00  0.00    -0.447 NA 
HETATM    5 CL   UNL     1     -11.777  14.140  68.202  1.00  0.00    -0.371 Cl 
HETATM    6  C   UNL     1     -11.408  10.329  69.374  1.00  0.00    -0.221 A  
HETATM    7  C   UNL     1     -12.170  11.602  71.320  1.00  0.00    -0.149 A  
HETATM    8  H   UNL     1     -11.195   9.059  67.712  1.00  0.00     0.000 HD 
HETATM    9  C   UNL     1     -11.454  11.521  68.634  1.00  0.00    -0.354 A  
HETATM   10  O   UNL     1     -10.583   8.886  72.401  1.00  0.00    -0.261 OA 
HETATM   11  O   UNL     1     -13.105   8.861  72.342  1.00  0.00    -0.407 OA 
HETATM   12  C   UNL     1     -11.813  12.748  69.224  1.00  0.00    -0.303 A  
HETATM   13  C   UNL     1     -12.164  12.785  70.576  1.00  0.00    -0.307 A  
HETATM   14  S   UNL     1     -11.828   8.935  71.665  1.00  0.00    -0.371 S  
HETATM   15  C   UNL     1     -11.802  10.402  70.706  1.00  0.00    -0.368 A  
ENDROOT
BRANCH   3  16
HETATM   16  C   UNL     1     -10.450   6.782  68.560  1.00  0.00    -0.204 C  
BRANCH  16  17
HETATM   17  S   UNL     1      -9.692   7.358  66.980  1.00  0.00    -0.208 SA 
BRANCH  17  18
HETATM   18  C   UNL     1      -8.954   5.783  66.380  1.00  0.00    -0.137 C  
HETATM   19  F   UNL     1     -11.196   5.079  65.862  1.00  0.00    -0.288 F  
HETATM   20  C   UNL     1      -9.895   4.719  65.817  1.00  0.00    -0.199 C  
HETATM   21  F   UNL     1      -9.775   3.556  66.496  1.00  0.00    -0.203 F  
HETATM   22  F   UNL     1      -9.596   4.466  64.522  1.00  0.00    -0.155 F  
ENDBRANCH  17  18
ENDBRANCH  16  17
ENDBRANCH   3  16
BRANCH  13  23
HETATM   23  S   UNL     1     -12.654  14.273  71.387  1.00  0.00    -0.377 S  
HETATM   24  H2  UNL     1     -13.557  12.767  73.087  1.00  0.00     0.000 HD 
HETATM   25  H1  UNL     1     -13.696  14.588  73.250  1.00  0.00     0.000 HD 
HETATM   26  N   UNL     1     -13.413  13.729  72.781  1.00  0.00    -0.507 N  
HETATM   27  O   UNL     1     -11.480  15.001  71.794  1.00  0.00    -0.381 OA 
HETATM   28  O   UNL     1     -13.711  14.894  70.620  1.00  0.00    -0.191 OA 
ENDBRANCH  13  23
TORSDOF 4
ENDMDL
MODEL       42
REMARK 921   NORMALIZED FREE ENERGY PREDICTED BY IDOCK:   -5.68 KCAL/MOL
REMARK 922        TOTAL FREE ENERGY PREDICTED BY IDOCK:   -7.38 KCAL/MOL
REMARK 923 INTER-LIGAND FREE ENERGY PREDICTED BY IDOCK:   -6.93 KCAL/MOL
REMARK 924 INTRA-LIGAND FREE ENERGY PREDICTED BY IDOCK:   -0.44 KCAL/MOL
REMARK 927      BINDING AFFINITY PREDICTED BY RF-SCORE:    0.00 PKD
ROOT
HETATM    1  C   UNL     1     -11.889   6.724  70.580  1.00  0.00    -0.387 C  
HETATM    2  N   UNL     1     -11.887   8.127  70.116  1.00  0.00     0.186 N  
HETATM    3  C   UNL     1     -10.742   8.537  69.284  1.00  0.00    -0.133 C  
HETATM    4  N   UNL     1     -11.114   9.779  68.601  1.00  0.00    -0.454 NA 
HETATM    5 CL   UNL     1     -11.866  14.802  68.638  1.00  0.00    -0.347 Cl 
HETATM    6  C   UNL     1     -11.490  10.883  69.361  1.00  0.00    -0.302 A  
HETATM    7  C   UNL     1     -12.454  11.889  71.372  1.00  0.00    -0.261 A  
HETATM    8  H   UNL     1     -11.096   9.834  67.582  1.00  0.00     0.000 HD 
HETATM    9  C   UNL     1     -11.506  12.156  68.772  1.00  0.00    -0.359 A  
HETATM   10  O   UNL     1     -10.888   9.088  72.250  1.00  0.00    -0.278 OA 
HETATM   11  O   UNL     1     -13.394   9.025  71.963  1.00  0.00    -0.373 OA 
HETATM   12  C   UNL     1     -11.950  13.294  69.474  1.00  0.00    -0.307 A  
HETATM   13  C   UNL     1     -12.418  13.156  70.783  1.00  0.00    -0.308 A  
HETATM   14  S   UNL     1     -12.066   9.207  71.417  1.00  0.00    -0.357 S  
HETATM   15  C   UNL     1     -11.999  10.781  70.652  1.00  0.00    -0.367 A  
ENDROOT
BRANCH   3  16
HETATM   16  C   UNL     1     -10.362   7.482  68.208  1.00  0.00    -0.195 C  
BRANCH  16  17
HETATM   17  S   UNL     1      -8.631   6.886  68.438  1.00  0.00    -0.125 SA 
BRANCH  17  18
HETATM   18  C   UNL     1      -8.299   7.504  70.139  1.00  0.00    -0.134 C  
HETATM   19  F   UNL     1      -8.372   5.206  70.850  1.00  0.00    -0.103 F  
HETATM   20  C   UNL     1      -8.182   6.476  71.264  1.00  0.00    -0.121 C  
HETATM   21  F   UNL     1      -9.083   6.722  72.242  1.00  0.00    -0.134 F  
HETATM   22  F   UNL     1      -6.950   6.532  71.824  1.00  0.00    -0.068 F  
ENDBRANCH  17  18
ENDBRANCH  16  17
ENDBRANCH   3  16
BRANCH  13  23
HETATM   23  S   UNL     1     -13.020  14.521  71.723  1.00  0.00    -0.364 S  
HETATM   24  H2  UNL     1     -10.656  14.929  72.196  1.00  0.00     0.000 HD 
HETATM   25  H1  UNL     1     -11.971  16.012  72.879  1.00  0.00     0.000 HD 
HETATM   26  N   UNL     1     -11.623  15.223  72.335  1.00  0.00    -0.446 N  
HETATM   27  O   UNL     1     -13.627  15.479  70.836  1.00  0.00    -0.520 OA 
HETATM   28  O   UNL     1     -13.709  14.015  72.889  1.00  0.00    -0.677 OA 
ENDBRANCH  13  23
TORSDOF 4
ENDMDL
MODEL       43
REMARK 921   NORMALIZED FREE ENERGY PREDICTED BY IDOCK:   -5.58 KCAL/MOL
REMARK 922        TOTAL FREE ENERGY PREDICTED BY IDOCK:   -7.25 KCAL/MOL
REMARK 923 INTER-LIGAND FREE ENERGY PREDICTED BY IDOCK:   -6.91 KCAL/MOL
REMARK 924 INTRA-LIGAND FREE ENERGY PREDICTED BY IDOCK:   -0.34 KCAL/MOL
REMARK 927      BINDING AFFINITY PREDICTED BY RF-SCORE:    0.00 PKD
ROOT
HETATM    1  C   UNL     1     -11.909  14.665  67.359  1.00  0.00    -0.348 C  
HETATM    2  N   UNL     1     -10.840  13.662  67.175  1.00  0.00    -0.283 N  
HETATM    3  C   UNL     1      -9.835  13.962  66.140  1.00  0.00    -0.302 C  
HETATM    4  N   UNL     1      -8.675  13.101  66.387  1.00  0.00    -0.422 NA 
HETATM    5 CL   UNL     1      -6.394   8.568  66.161  1.00  0.00    -0.052 Cl 
HETATM    6  C   UNL     1      -8.850  11.720  66.407  1.00  0.00    -0.170 A  
HETATM    7  C   UNL     1     -10.212   9.724  66.789  1.00  0.00    -0.300 A  
HETATM    8  H   UNL     1      -7.752  13.508  66.543  1.00  0.00     0.000 HD 
HETATM    9  C   UNL     1      -7.733  10.879  66.288  1.00  0.00    -0.147 A  
HETATM   10  O   UNL     1     -12.193  12.141  65.648  1.00  0.00    -0.571 OA 
HETATM   11  O   UNL     1     -12.148  11.696  68.131  1.00  0.00    -0.577 OA 
HETATM   12  C   UNL     1      -7.846   9.478  66.376  1.00  0.00    -0.097 A  
HETATM   13  C   UNL     1      -9.094   8.902  66.621  1.00  0.00    -0.156 A  
HETATM   14  S   UNL     1     -11.488  12.112  66.912  1.00  0.00    -0.338 S  
HETATM   15  C   UNL     1     -10.068  11.110  66.687  1.00  0.00    -0.217 A  
ENDROOT
BRANCH   3  16
HETATM   16  C   UNL     1      -9.358  15.441  66.164  1.00  0.00    -0.332 C  
BRANCH  16  17
HETATM   17  S   UNL     1      -8.701  15.905  67.825  1.00  0.00    -0.171 SA 
BRANCH  17  18
HETATM   18  C   UNL     1      -8.613  17.734  67.640  1.00  0.00    -0.230 C  
HETATM   19  F   UNL     1     -10.999  17.752  67.960  1.00  0.00    -0.374 F  
HETATM   20  C   UNL     1      -9.913  18.529  67.757  1.00  0.00    -0.343 C  
HETATM   21  F   UNL     1     -10.140  19.255  66.639  1.00  0.00    -0.346 F  
HETATM   22  F   UNL     1      -9.842  19.394  68.795  1.00  0.00    -0.413 F  
ENDBRANCH  17  18
ENDBRANCH  16  17
ENDBRANCH   3  16
BRANCH  13  23
HETATM   23  S   UNL     1      -9.321   7.159  66.776  1.00  0.00    -0.167 S  
HETATM   24  H2  UNL     1     -11.678   7.732  67.074  1.00  0.00     0.000 HD 
HETATM   25  H1  UNL     1     -11.103   5.991  67.114  1.00  0.00     0.000 HD 
HETATM   26  N   UNL     1     -10.972   6.998  67.024  1.00  0.00    -0.365 N  
HETATM   27  O   UNL     1      -9.011   6.526  65.520  1.00  0.00    -0.064 OA 
HETATM   28  O   UNL     1      -8.725   6.723  68.020  1.00  0.00    -0.119 OA 
ENDBRANCH  13  23
TORSDOF 4
ENDMDL
MODEL       44
REMARK 921   NORMALIZED FREE ENERGY PREDICTED BY IDOCK:   -5.57 KCAL/MOL
REMARK 922        TOTAL FREE ENERGY PREDICTED BY IDOCK:   -7.23 KCAL/MOL
REMARK 923 INTER-LIGAND FREE ENERGY PREDICTED BY IDOCK:   -6.99 KCAL/MOL
REMARK 924 INTRA-LIGAND FREE ENERGY PREDICTED BY IDOCK:   -0.25 KCAL/MOL
REMARK 927      BINDING AFFINITY PREDICTED BY RF-SCORE:    0.00 PKD
ROOT
HETATM    1  C   UNL     1     -12.887  13.993  65.140  1.00  0.00    -0.334 C  
HETATM    2  N   UNL     1     -12.032  12.908  65.664  1.00  0.00    -0.416 N  
HETATM    3  C   UNL     1     -11.220  13.232  66.850  1.00  0.00    -0.305 C  
HETATM    4  N   UNL     1     -10.785  11.967  67.448  1.00  0.00    -0.222 NA 
HETATM    5 CL   UNL     1      -7.753   7.892  67.473  1.00  0.00    -0.115 Cl 
HETATM    6  C   UNL     1     -10.049  11.072  66.675  1.00  0.00    -0.220 A  
HETATM    7  C   UNL     1      -9.424  10.088  64.524  1.00  0.00    -0.359 A  
HETATM    8  H   UNL     1     -11.017  11.746  68.417  1.00  0.00     0.000 HD 
HETATM    9  C   UNL     1      -9.331  10.043  67.303  1.00  0.00    -0.170 A  
HETATM   10  O   UNL     1     -10.111  13.307  64.043  1.00  0.00    -0.337 OA 
HETATM   11  O   UNL     1     -11.885  11.602  63.482  1.00  0.00    -0.431 OA 
HETATM   12  C   UNL     1      -8.633   9.068  66.565  1.00  0.00    -0.120 A  
HETATM   13  C   UNL     1      -8.677   9.098  65.170  1.00  0.00    -0.195 A  
HETATM   14  S   UNL     1     -11.034  12.267  64.445  1.00  0.00    -0.357 S  
HETATM   15  C   UNL     1     -10.099  11.046  65.285  1.00  0.00    -0.275 A  
ENDROOT
BRANCH   3  16
HETATM   16  C   UNL     1     -12.006  14.035  67.925  1.00  0.00    -0.351 C  
BRANCH  16  17
HETATM   17  S   UNL     1     -11.205  15.662  68.263  1.00  0.00    -0.357 SA 
BRANCH  17  18
HETATM   18  C   UNL     1     -10.784  15.453  70.042  1.00  0.00    -0.307 C  
HETATM   19  F   UNL     1     -13.131  15.729  70.498  1.00  0.00    -0.492 F  
HETATM   20  C   UNL     1     -11.924  15.502  71.059  1.00  0.00    -0.381 C  
HETATM   21  F   UNL     1     -11.715  16.475  71.975  1.00  0.00    -0.520 F  
HETATM   22  F   UNL     1     -12.009  14.328  71.726  1.00  0.00    -0.373 F  
ENDBRANCH  17  18
ENDBRANCH  16  17
ENDBRANCH   3  16
BRANCH  13  23
HETATM   23  S   UNL     1      -7.857   7.900  64.169  1.00  0.00    -0.124 S  
HETATM   24  H2  UNL     1      -9.137   6.280  65.478  1.00  0.00     0.000 HD 
HETATM   25  H1  UNL     1      -7.984   5.745  64.155  1.00  0.00     0.000 HD 
HETATM   26  N   UNL     1      -8.458   6.438  64.733  1.00  0.00    -0.028 N  
HETATM   27  O   UNL     1      -8.290   8.043  62.803  1.00  0.00    -0.145 OA 
HETATM   28  O   UNL     1      -6.456   7.875  64.528  1.00  0.00    -0.055 OA 
ENDBRANCH  13  23
TORSDOF 4
ENDMDL
MODEL       45
REMARK 921   NORMALIZED FREE ENERGY PREDICTED BY IDOCK:   -5.57 KCAL/MOL
REMARK 922        TOTAL FREE ENERGY PREDICTED BY IDOCK:   -7.23 KCAL/MOL
REMARK 923 INTER-LIGAND FREE ENERGY PREDICTED BY IDOCK:   -6.95 KCAL/MOL
REMARK 924 INTRA-LIGAND FREE ENERGY PREDICTED BY IDOCK:   -0.29 KCAL/MOL
REMARK 927      BINDING AFFINITY PREDICTED BY RF-SCORE:    0.00 PKD
ROOT
HETATM    1  C   UNL     1     -12.553  13.952  65.703  1.00  0.00    -0.517 C  
HETATM    2  N   UNL     1     -11.317  13.686  66.469  1.00  0.00    -0.311 N  
HETATM    3  C   UNL     1     -10.077  14.271  65.931  1.00  0.00    -0.326 C  
HETATM    4  N   UNL     1      -9.079  14.258  67.003  1.00  0.00    -0.223 NA 
HETATM    5 CL   UNL     1      -5.715  11.783  69.894  1.00  0.00    -0.106 Cl 
HETATM    6  C   UNL     1      -8.741  13.045  67.598  1.00  0.00    -0.189 A  
HETATM    7  C   UNL     1      -9.271  10.756  68.280  1.00  0.00    -0.157 A  
HETATM    8  H   UNL     1      -8.638  15.125  67.310  1.00  0.00     0.000 HD 
HETATM    9  C   UNL     1      -7.565  12.950  68.357  1.00  0.00    -0.133 A  
HETATM   10  O   UNL     1     -10.878  11.401  65.440  1.00  0.00    -0.281 OA 
HETATM   11  O   UNL     1     -12.156  11.568  67.608  1.00  0.00    -0.623 OA 
HETATM   12  C   UNL     1      -7.216  11.770  69.041  1.00  0.00    -0.080 A  
HETATM   13  C   UNL     1      -8.072  10.667  68.993  1.00  0.00    -0.148 A  
HETATM   14  S   UNL     1     -11.100  12.020  66.729  1.00  0.00    -0.321 S  
HETATM   15  C   UNL     1      -9.585  11.939  67.606  1.00  0.00    -0.185 A  
ENDROOT
BRANCH   3  16
HETATM   16  C   UNL     1     -10.255  15.738  65.447  1.00  0.00    -0.349 C  
BRANCH  16  17
HETATM   17  S   UNL     1      -9.208  16.896  66.429  1.00  0.00    -0.275 SA 
BRANCH  17  18
HETATM   18  C   UNL     1     -10.509  17.990  67.136  1.00  0.00    -0.367 C  
HETATM   19  F   UNL     1      -9.114  19.845  66.497  1.00  0.00    -0.350 F  
HETATM   20  C   UNL     1     -10.290  19.501  67.065  1.00  0.00    -0.453 C  
HETATM   21  F   UNL     1     -10.320  20.053  68.299  1.00  0.00    -0.519 F  
HETATM   22  F   UNL     1     -11.270  20.083  66.336  1.00  0.00    -0.428 F  
ENDBRANCH  17  18
ENDBRANCH  16  17
ENDBRANCH   3  16
BRANCH  13  23
HETATM   23  S   UNL     1      -7.727   9.161  69.843  1.00  0.00    -0.100 S  
HETATM   24  H2  UNL     1      -5.730   9.101  68.434  1.00  0.00     0.000 HD 
HETATM   25  H1  UNL     1      -6.080   7.778  69.655  1.00  0.00     0.000 HD 
HETATM   26  N   UNL     1      -6.280   8.649  69.164  1.00  0.00    -0.042 N  
HETATM   27  O   UNL     1      -7.472   9.446  71.231  1.00  0.00    -0.322 OA 
HETATM   28  O   UNL     1      -8.690   8.164  69.431  1.00  0.00    -0.140 OA 
ENDBRANCH  13  23
TORSDOF 4
ENDMDL
MODEL       46
REMARK 921   NORMALIZED FREE ENERGY PREDICTED BY IDOCK:   -5.56 KCAL/MOL
REMARK 922        TOTAL FREE ENERGY PREDICTED BY IDOCK:   -7.22 KCAL/MOL
REMARK 923 INTER-LIGAND FREE ENERGY PREDICTED BY IDOCK:   -6.72 KCAL/MOL
REMARK 924 INTRA-LIGAND FREE ENERGY PREDICTED BY IDOCK:   -0.50 KCAL/MOL
REMARK 927      BINDING AFFINITY PREDICTED BY RF-SCORE:    0.00 PKD
ROOT
HETATM    1  C   UNL     1     -11.972   6.696  71.826  1.00  0.00    -0.345 C  
HETATM    2  N   UNL     1     -11.740   7.585  70.668  1.00  0.00    -0.256 N  
HETATM    3  C   UNL     1     -10.647   7.200  69.758  1.00  0.00    -0.234 C  
HETATM    4  N   UNL     1     -10.839   7.930  68.502  1.00  0.00    -0.416 NA 
HETATM    5 CL   UNL     1     -10.538  12.203  65.772  1.00  0.00    -0.286 Cl 
HETATM    6  C   UNL     1     -10.884   9.322  68.530  1.00  0.00    -0.074 A  
HETATM    7  C   UNL     1     -11.365  11.442  69.651  1.00  0.00    -0.347 A  
HETATM    8  H   UNL     1     -10.937   7.426  67.621  1.00  0.00     0.000 HD 
HETATM    9  C   UNL     1     -10.712  10.043  67.339  1.00  0.00    -0.336 A  
HETATM   10  O   UNL     1     -10.309   9.266  71.935  1.00  0.00    -0.286 OA 
HETATM   11  O   UNL     1     -12.791   9.660  71.708  1.00  0.00    -0.358 OA 
HETATM   12  C   UNL     1     -10.824  11.446  67.298  1.00  0.00    -0.263 A  
HETATM   13  C   UNL     1     -11.145  12.146  68.464  1.00  0.00    -0.252 A  
HETATM   14  S   UNL     1     -11.532   9.199  71.163  1.00  0.00    -0.346 S  
HETATM   15  C   UNL     1     -11.240  10.050  69.660  1.00  0.00    -0.239 A  
ENDROOT
BRANCH   3  16
HETATM   16  C   UNL     1     -10.627   5.678  69.440  1.00  0.00    -0.304 C  
BRANCH  16  17
HETATM   17  S   UNL     1      -9.041   5.184  68.637  1.00  0.00    -0.115 SA 
BRANCH  17  18
HETATM   18  C   UNL     1      -9.683   4.133  67.270  1.00  0.00    -0.170 C  
HETATM   19  F   UNL     1      -9.683   6.122  65.914  1.00  0.00    -0.138 F  
HETATM   20  C   UNL     1      -9.943   4.797  65.918  1.00  0.00    -0.228 C  
HETATM   21  F   UNL     1     -11.230   4.636  65.538  1.00  0.00    -0.343 F  
HETATM   22  F   UNL     1      -9.165   4.236  64.963  1.00  0.00    -0.129 F  
ENDBRANCH  17  18
ENDBRANCH  16  17
ENDBRANCH   3  16
BRANCH  13  23
HETATM   23  S   UNL     1     -11.333  13.899  68.497  1.00  0.00    -0.301 S  
HETATM   24  H2  UNL     1     -12.505  13.496  70.604  1.00  0.00     0.000 HD 
HETATM   25  H1  UNL     1     -12.286  15.191  69.939  1.00  0.00     0.000 HD 
HETATM   26  N   UNL     1     -12.177  14.178  69.920  1.00  0.00    -0.346 N  
HETATM   27  O   UNL     1     -10.038  14.514  68.639  1.00  0.00    -0.233 OA 
HETATM   28  O   UNL     1     -12.252  14.287  67.450  1.00  0.00    -0.378 OA 
ENDBRANCH  13  23
TORSDOF 4
ENDMDL
MODEL       47
REMARK 921   NORMALIZED FREE ENERGY PREDICTED BY IDOCK:   -5.52 KCAL/MOL
REMARK 922        TOTAL FREE ENERGY PREDICTED BY IDOCK:   -7.18 KCAL/MOL
REMARK 923 INTER-LIGAND FREE ENERGY PREDICTED BY IDOCK:   -6.69 KCAL/MOL
REMARK 924 INTRA-LIGAND FREE ENERGY PREDICTED BY IDOCK:   -0.49 KCAL/MOL
REMARK 927      BINDING AFFINITY PREDICTED BY RF-SCORE:    0.00 PKD
ROOT
HETATM    1  C   UNL     1     -10.389   7.463  70.183  1.00  0.00    -0.214 C  
HETATM    2  N   UNL     1     -10.467   8.215  68.913  1.00  0.00    -0.209 N  
HETATM    3  C   UNL     1      -9.399   7.953  67.933  1.00  0.00    -0.141 C  
HETATM    4  N   UNL     1      -9.859   8.447  66.633  1.00  0.00    -0.252 NA 
HETATM    5 CL   UNL     1     -10.773  12.274  63.420  1.00  0.00    -0.478 Cl 
HETATM    6  C   UNL     1     -10.216   9.787  66.508  1.00  0.00    -0.219 A  
HETATM    7  C   UNL     1     -11.066  11.888  67.429  1.00  0.00    -0.336 A  
HETATM    8  H   UNL     1      -9.917   7.819  65.831  1.00  0.00     0.000 HD 
HETATM    9  C   UNL     1     -10.317  10.360  65.231  1.00  0.00    -0.267 A  
HETATM   10  O   UNL     1      -9.350  10.320  69.808  1.00  0.00    -0.188 OA 
HETATM   11  O   UNL     1     -11.866  10.139  69.825  1.00  0.00    -0.191 OA 
HETATM   12  C   UNL     1     -10.747  11.688  65.044  1.00  0.00    -0.296 A  
HETATM   13  C   UNL     1     -11.115  12.454  66.153  1.00  0.00    -0.302 A  
HETATM   14  S   UNL     1     -10.588   9.888  69.195  1.00  0.00    -0.229 S  
HETATM   15  C   UNL     1     -10.628  10.570  67.582  1.00  0.00    -0.250 A  
ENDROOT
BRANCH   3  16
HETATM   16  C   UNL     1      -9.062   6.442  67.789  1.00  0.00    -0.111 C  
BRANCH  16  17
HETATM   17  S   UNL     1     -10.363   5.556  66.826  1.00  0.00    -0.294 SA 
BRANCH  17  18
HETATM   18  C   UNL     1      -9.307   4.532  65.720  1.00  0.00    -0.162 C  
HETATM   19  F   UNL     1     -11.321   3.981  64.522  1.00  0.00    -0.297 F  
HETATM   20  C   UNL     1      -9.984   3.797  64.564  1.00  0.00    -0.201 C  
HETATM   21  F   UNL     1      -9.761   2.465  64.639  1.00  0.00    -0.145 F  
HETATM   22  F   UNL     1      -9.485   4.225  63.380  1.00  0.00    -0.141 F  
ENDBRANCH  17  18
ENDBRANCH  16  17
ENDBRANCH   3  16
BRANCH  13  23
HETATM   23  S   UNL     1     -11.692  14.115  66.007  1.00  0.00    -0.396 S  
HETATM   24  H2  UNL     1     -11.842  14.024  68.446  1.00  0.00     0.000 HD 
HETATM   25  H1  UNL     1     -12.307  15.534  67.513  1.00  0.00     0.000 HD 
HETATM   26  N   UNL     1     -11.973  14.574  67.597  1.00  0.00    -0.359 N  
HETATM   27  O   UNL     1     -10.629  14.945  65.503  1.00  0.00    -0.309 OA 
HETATM   28  O   UNL     1     -13.004  14.099  65.400  1.00  0.00    -0.706 OA 
ENDBRANCH  13  23
TORSDOF 4
ENDMDL
MODEL       48
REMARK 921   NORMALIZED FREE ENERGY PREDICTED BY IDOCK:   -5.47 KCAL/MOL
REMARK 922        TOTAL FREE ENERGY PREDICTED BY IDOCK:   -7.10 KCAL/MOL
REMARK 923 INTER-LIGAND FREE ENERGY PREDICTED BY IDOCK:   -6.34 KCAL/MOL
REMARK 924 INTRA-LIGAND FREE ENERGY PREDICTED BY IDOCK:   -0.76 KCAL/MOL
REMARK 927      BINDING AFFINITY PREDICTED BY RF-SCORE:    0.00 PKD
ROOT
HETATM    1  C   UNL     1      -9.308   6.430  69.125  1.00  0.00    -0.132 C  
HETATM    2  N   UNL     1      -9.912   7.747  69.416  1.00  0.00    -0.184 N  
HETATM    3  C   UNL     1     -11.271   7.731  69.983  1.00  0.00    -0.117 C  
HETATM    4  N   UNL     1     -11.521   9.049  70.572  1.00  0.00    -0.350 NA 
HETATM    5 CL   UNL     1     -12.643  13.979  70.083  1.00  0.00    -0.364 Cl 
HETATM    6  C   UNL     1     -11.422  10.180  69.765  1.00  0.00    -0.228 A  
HETATM    7  C   UNL     1     -10.499  11.388  67.848  1.00  0.00    -0.212 A  
HETATM    8  H   UNL     1     -11.764   9.137  71.559  1.00  0.00     0.000 HD 
HETATM    9  C   UNL     1     -11.988  11.389  70.196  1.00  0.00    -0.460 A  
HETATM   10  O   UNL     1     -10.732   8.168  67.044  1.00  0.00    -0.321 OA 
HETATM   11  O   UNL     1      -8.488   9.066  67.765  1.00  0.00    -0.117 OA 
HETATM   12  C   UNL     1     -11.852  12.579  69.455  1.00  0.00    -0.308 A  
HETATM   13  C   UNL     1     -11.109  12.571  68.272  1.00  0.00    -0.257 A  
HETATM   14  S   UNL     1      -9.873   8.757  68.048  1.00  0.00    -0.177 S  
HETATM   15  C   UNL     1     -10.659  10.222  68.603  1.00  0.00    -0.208 A  
ENDROOT
BRANCH   3  16
HETATM   16  C   UNL     1     -11.456   6.658  71.092  1.00  0.00    -0.320 C  
BRANCH  16  17
HETATM   17  S   UNL     1     -11.733   7.440  72.740  1.00  0.00    -0.054 SA 
BRANCH  17  18
HETATM   18  C   UNL     1     -10.162   6.987  73.583  1.00  0.00    -0.358 C  
HETATM   19  F   UNL     1      -9.158   8.850  72.435  1.00  0.00    -0.311 F  
HETATM   20  C   UNL     1      -8.929   7.849  73.312  1.00  0.00    -0.264 C  
HETATM   21  F   UNL     1      -7.915   7.103  72.818  1.00  0.00    -0.101 F  
HETATM   22  F   UNL     1      -8.492   8.418  74.460  1.00  0.00    -0.282 F  
ENDBRANCH  17  18
ENDBRANCH  16  17
ENDBRANCH   3  16
BRANCH  13  23
HETATM   23  S   UNL     1     -10.863  14.021  67.298  1.00  0.00    -0.287 S  
HETATM   24  H2  UNL     1      -9.373  12.597  65.984  1.00  0.00     0.000 HD 
HETATM   25  H1  UNL     1      -9.644  14.358  65.548  1.00  0.00     0.000 HD 
HETATM   26  N   UNL     1      -9.787  13.520  66.112  1.00  0.00    -0.291 N  
HETATM   27  O   UNL     1     -12.096  14.366  66.639  1.00  0.00    -0.419 OA 
HETATM   28  O   UNL     1     -10.117  14.983  68.077  1.00  0.00    -0.221 OA 
ENDBRANCH  13  23
TORSDOF 4
ENDMDL
MODEL       49
REMARK 921   NORMALIZED FREE ENERGY PREDICTED BY IDOCK:   -5.46 KCAL/MOL
REMARK 922        TOTAL FREE ENERGY PREDICTED BY IDOCK:   -7.09 KCAL/MOL
REMARK 923 INTER-LIGAND FREE ENERGY PREDICTED BY IDOCK:   -6.62 KCAL/MOL
REMARK 924 INTRA-LIGAND FREE ENERGY PREDICTED BY IDOCK:   -0.47 KCAL/MOL
REMARK 927      BINDING AFFINITY PREDICTED BY RF-SCORE:    0.00 PKD
ROOT
HETATM    1  C   UNL     1     -10.285   7.436  70.270  1.00  0.00    -0.200 C  
HETATM    2  N   UNL     1     -10.377   8.137  68.973  1.00  0.00    -0.218 N  
HETATM    3  C   UNL     1      -9.298   7.867  68.007  1.00  0.00    -0.145 C  
HETATM    4  N   UNL     1      -9.766   8.299  66.687  1.00  0.00    -0.230 NA 
HETATM    5 CL   UNL     1     -10.770  11.975  63.328  1.00  0.00    -0.440 Cl 
HETATM    6  C   UNL     1     -10.159   9.623  66.510  1.00  0.00    -0.244 A  
HETATM    7  C   UNL     1     -11.070  11.734  67.348  1.00  0.00    -0.338 A  
HETATM    8  H   UNL     1      -9.804   7.639  65.910  1.00  0.00     0.000 HD 
HETATM    9  C   UNL     1     -10.269  10.144  65.212  1.00  0.00    -0.261 A  
HETATM   10  O   UNL     1      -9.322  10.304  69.791  1.00  0.00    -0.188 OA 
HETATM   11  O   UNL     1     -11.832  10.055  69.806  1.00  0.00    -0.150 OA 
HETATM   12  C   UNL     1     -10.734  11.452  64.974  1.00  0.00    -0.277 A  
HETATM   13  C   UNL     1     -11.128  12.249  66.051  1.00  0.00    -0.309 A  
HETATM   14  S   UNL     1     -10.545   9.815  69.190  1.00  0.00    -0.224 S  
HETATM   15  C   UNL     1     -10.597  10.434  67.552  1.00  0.00    -0.262 A  
ENDROOT
BRANCH   3  16
HETATM   16  C   UNL     1      -8.920   6.361  67.921  1.00  0.00    -0.114 C  
BRANCH  16  17
HETATM   17  S   UNL     1     -10.232   5.390  67.062  1.00  0.00    -0.250 SA 
BRANCH  17  18
HETATM   18  C   UNL     1      -9.436   3.731  67.024  1.00  0.00    -0.200 C  
HETATM   19  F   UNL     1      -9.837   3.628  69.395  1.00  0.00    -0.256 F  
HETATM   20  C   UNL     1      -9.335   2.956  68.337  1.00  0.00    -0.192 C  
HETATM   21  F   UNL     1      -8.049   2.653  68.624  1.00  0.00    -0.053 F  
HETATM   22  F   UNL     1     -10.015   1.790  68.246  1.00  0.00    -0.231 F  
ENDBRANCH  17  18
ENDBRANCH  16  17
ENDBRANCH   3  16
BRANCH  13  23
HETATM   23  S   UNL     1     -11.750  13.887  65.841  1.00  0.00    -0.376 S  
HETATM   24  H2  UNL     1     -11.945  13.869  68.277  1.00  0.00     0.000 HD 
HETATM   25  H1  UNL     1     -12.434  15.334  67.288  1.00  0.00     0.000 HD 
HETATM   26  N   UNL     1     -12.075  14.388  67.409  1.00  0.00    -0.374 N  
HETATM   27  O   UNL     1     -10.701  14.731  65.330  1.00  0.00    -0.335 OA 
HETATM   28  O   UNL     1     -13.048  13.813  65.209  1.00  0.00    -0.756 OA 
ENDBRANCH  13  23
TORSDOF 4
ENDMDL
MODEL       50
REMARK 921   NORMALIZED FREE ENERGY PREDICTED BY IDOCK:   -5.45 KCAL/MOL
REMARK 922        TOTAL FREE ENERGY PREDICTED BY IDOCK:   -7.09 KCAL/MOL
REMARK 923 INTER-LIGAND FREE ENERGY PREDICTED BY IDOCK:   -6.61 KCAL/MOL
REMARK 924 INTRA-LIGAND FREE ENERGY PREDICTED BY IDOCK:   -0.48 KCAL/MOL
REMARK 927      BINDING AFFINITY PREDICTED BY RF-SCORE:    0.00 PKD
ROOT
HETATM    1  C   UNL     1     -12.535  12.077  69.839  1.00  0.00     0.048 C  
HETATM    2  N   UNL     1     -11.821  11.099  68.993  1.00  0.00    -0.335 N  
HETATM    3  C   UNL     1     -10.863  10.217  69.682  1.00  0.00    -0.263 C  
HETATM    4  N   UNL     1     -10.583   9.086  68.793  1.00  0.00    -0.325 NA 
HETATM    5 CL   UNL     1      -8.256   7.115  64.731  1.00  0.00    -0.095 Cl 
HETATM    6  C   UNL     1     -10.075   9.336  67.521  1.00  0.00    -0.218 A  
HETATM    7  C   UNL     1      -9.814  10.751  65.542  1.00  0.00    -0.309 A  
HETATM    8  H   UNL     1     -10.759   8.129  69.101  1.00  0.00     0.000 HD 
HETATM    9  C   UNL     1      -9.477   8.293  66.797  1.00  0.00    -0.256 A  
HETATM   10  O   UNL     1     -10.017  12.718  68.217  1.00  0.00    -0.223 OA 
HETATM   11  O   UNL     1     -12.085  12.386  66.810  1.00  0.00    -0.578 OA 
HETATM   12  C   UNL     1      -9.015   8.474  65.479  1.00  0.00    -0.132 A  
HETATM   13  C   UNL     1      -9.180   9.712  64.855  1.00  0.00    -0.246 A  
HETATM   14  S   UNL     1     -11.054  11.863  67.681  1.00  0.00    -0.277 S  
HETATM   15  C   UNL     1     -10.255  10.542  66.852  1.00  0.00    -0.229 A  
ENDROOT
BRANCH   3  16
HETATM   16  C   UNL     1     -11.409   9.657  71.026  1.00  0.00    -0.374 C  
BRANCH  16  17
HETATM   17  S   UNL     1     -10.102   8.734  71.945  1.00  0.00    -0.320 SA 
BRANCH  17  18
HETATM   18  C   UNL     1     -11.140   7.502  72.834  1.00  0.00    -0.375 C  
HETATM   19  F   UNL     1     -11.308   6.325  70.741  1.00  0.00    -0.330 F  
HETATM   20  C   UNL     1     -11.665   6.305  72.043  1.00  0.00    -0.322 C  
HETATM   21  F   UNL     1     -13.015   6.247  72.091  1.00  0.00    -0.350 F  
HETATM   22  F   UNL     1     -11.191   5.151  72.568  1.00  0.00    -0.283 F  
ENDBRANCH  17  18
ENDBRANCH  16  17
ENDBRANCH   3  16
BRANCH  13  23
HETATM   23  S   UNL     1      -8.657  10.017  63.198  1.00  0.00    -0.220 S  
HETATM   24  H2  UNL     1     -10.044  12.021  63.382  1.00  0.00     0.000 HD 
HETATM   25  H1  UNL     1      -9.122  11.632  61.844  1.00  0.00     0.000 HD 
HETATM   26  N   UNL     1      -9.423  11.456  62.802  1.00  0.00    -0.355 N  
HETATM   27  O   UNL     1      -7.239  10.267  63.185  1.00  0.00    -0.138 OA 
HETATM   28  O   UNL     1      -9.268   9.033  62.331  1.00  0.00    -0.100 OA 
ENDBRANCH  13  23
TORSDOF 4
ENDMDL
MODEL       51
REMARK 921   NORMALIZED FREE ENERGY PREDICTED BY IDOCK:   -5.44 KCAL/MOL
REMARK 922        TOTAL FREE ENERGY PREDICTED BY IDOCK:   -7.07 KCAL/MOL
REMARK 923 INTER-LIGAND FREE ENERGY PREDICTED BY IDOCK:   -6.46 KCAL/MOL
REMARK 924 INTRA-LIGAND FREE ENERGY PREDICTED BY IDOCK:   -0.61 KCAL/MOL
REMARK 927      BINDING AFFINITY PREDICTED BY RF-SCORE:    0.00 PKD
ROOT
HETATM    1  C   UNL     1     -11.259   9.400  71.675  1.00  0.00    -0.361 C  
HETATM    2  N   UNL     1     -10.915   9.641  70.258  1.00  0.00    -0.264 N  
HETATM    3  C   UNL     1      -9.482   9.798  69.953  1.00  0.00    -0.231 C  
HETATM    4  N   UNL     1      -9.315   9.613  68.509  1.00  0.00    -0.137 NA 
HETATM    5 CL   UNL     1      -9.703  11.339  63.747  1.00  0.00    -0.299 Cl 
HETATM    6  C   UNL     1     -10.017  10.440  67.635  1.00  0.00    -0.174 A  
HETATM    7  C   UNL     1     -11.939  11.844  67.072  1.00  0.00    -0.024 A  
HETATM    8  H   UNL     1      -8.692   8.889  68.148  1.00  0.00     0.000 HD 
HETATM    9  C   UNL     1      -9.619  10.525  66.293  1.00  0.00    -0.232 A  
HETATM   10  O   UNL     1     -11.338  12.150  70.329  1.00  0.00     0.002 OA 
HETATM   11  O   UNL     1     -13.180  10.595  69.589  1.00  0.00     0.039 OA 
HETATM   12  C   UNL     1     -10.339  11.287  65.352  1.00  0.00    -0.272 A  
HETATM   13  C   UNL     1     -11.500  11.954  65.750  1.00  0.00    -0.265 A  
HETATM   14  S   UNL     1     -11.782  10.963  69.631  1.00  0.00    -0.359 S  
HETATM   15  C   UNL     1     -11.198  11.087  67.983  1.00  0.00    -0.309 A  
ENDROOT
BRANCH   3  16
HETATM   16  C   UNL     1      -8.586   8.759  70.684  1.00  0.00    -0.178 C  
BRANCH  16  17
HETATM   17  S   UNL     1      -8.044   7.419  69.538  1.00  0.00    -0.130 SA 
BRANCH  17  18
HETATM   18  C   UNL     1      -9.290   6.125  69.940  1.00  0.00    -0.149 C  
HETATM   19  F   UNL     1     -10.610   7.020  68.137  1.00  0.00    -0.198 F  
HETATM   20  C   UNL     1     -10.558   6.064  69.088  1.00  0.00    -0.295 C  
HETATM   21  F   UNL     1     -11.664   6.195  69.855  1.00  0.00    -0.477 F  
HETATM   22  F   UNL     1     -10.642   4.869  68.457  1.00  0.00    -0.157 F  
ENDBRANCH  17  18
ENDBRANCH  16  17
ENDBRANCH   3  16
BRANCH  13  23
HETATM   23  S   UNL     1     -12.478  12.905  64.631  1.00  0.00    -0.409 S  
HETATM   24  H2  UNL     1     -10.387  14.092  64.189  1.00  0.00     0.000 HD 
HETATM   25  H1  UNL     1     -11.947  14.549  63.338  1.00  0.00     0.000 HD 
HETATM   26  N   UNL     1     -11.382  13.999  63.984  1.00  0.00    -0.134 N  
HETATM   27  O   UNL     1     -12.926  12.060  63.555  1.00  0.00    -0.774 OA 
HETATM   28  O   UNL     1     -13.394  13.722  65.395  1.00  0.00    -0.669 OA 
ENDBRANCH  13  23
TORSDOF 4
ENDMDL
MODEL       52
REMARK 921   NORMALIZED FREE ENERGY PREDICTED BY IDOCK:   -5.42 KCAL/MOL
REMARK 922        TOTAL FREE ENERGY PREDICTED BY IDOCK:   -7.06 KCAL/MOL
REMARK 923 INTER-LIGAND FREE ENERGY PREDICTED BY IDOCK:   -6.88 KCAL/MOL
REMARK 924 INTRA-LIGAND FREE ENERGY PREDICTED BY IDOCK:   -0.18 KCAL/MOL
REMARK 927      BINDING AFFINITY PREDICTED BY RF-SCORE:    0.00 PKD
ROOT
HETATM    1  C   UNL     1     -10.172   8.985  66.720  1.00  0.00    -0.271 C  
HETATM    2  N   UNL     1     -10.304  10.447  66.885  1.00  0.00    -0.231 N  
HETATM    3  C   UNL     1      -9.159  11.260  66.441  1.00  0.00    -0.192 C  
HETATM    4  N   UNL     1      -9.626  12.642  66.297  1.00  0.00    -0.270 NA 
HETATM    5 CL   UNL     1     -10.977  17.095  68.332  1.00  0.00    -0.296 Cl 
HETATM    6  C   UNL     1     -10.187  13.284  67.398  1.00  0.00    -0.229 A  
HETATM    7  C   UNL     1     -11.409  13.259  69.518  1.00  0.00    -0.236 A  
HETATM    8  H   UNL     1      -9.541  13.127  65.403  1.00  0.00     0.000 HD 
HETATM    9  C   UNL     1     -10.313  14.681  67.395  1.00  0.00    -0.241 A  
HETATM   10  O   UNL     1      -9.587  10.482  69.327  1.00  0.00    -0.208 OA 
HETATM   11  O   UNL     1     -12.039  10.352  68.748  1.00  0.00    -0.209 OA 
HETATM   12  C   UNL     1     -10.940  15.373  68.449  1.00  0.00    -0.284 A  
HETATM   13  C   UNL     1     -11.483  14.654  69.517  1.00  0.00    -0.297 A  
HETATM   14  S   UNL     1     -10.706  10.852  68.488  1.00  0.00    -0.223 S  
HETATM   15  C   UNL     1     -10.773  12.603  68.460  1.00  0.00    -0.248 A  
ENDROOT
BRANCH   3  16
HETATM   16  C   UNL     1      -8.577  10.798  65.076  1.00  0.00    -0.110 C  
BRANCH  16  17
HETATM   17  S   UNL     1      -9.362  11.703  63.673  1.00  0.00     0.035 SA 
BRANCH  17  18
HETATM   18  C   UNL     1     -11.112  11.175  63.885  1.00  0.00    -0.091 C  
HETATM   19  F   UNL     1     -11.729  13.411  63.243  1.00  0.00    -0.454 F  
HETATM   20  C   UNL     1     -12.209  12.201  63.600  1.00  0.00    -0.562 C  
HETATM   21  F   UNL     1     -12.997  12.382  64.683  1.00  0.00    -0.557 F  
HETATM   22  F   UNL     1     -13.000  11.772  62.589  1.00  0.00    -0.378 F  
ENDBRANCH  17  18
ENDBRANCH  16  17
ENDBRANCH   3  16
BRANCH  13  23
HETATM   23  S   UNL     1     -12.312  15.438  70.863  1.00  0.00    -0.433 S  
HETATM   24  H2  UNL     1     -11.940  13.315  72.016  1.00  0.00     0.000 HD 
HETATM   25  H1  UNL     1     -12.801  14.712  72.835  1.00  0.00     0.000 HD 
HETATM   26  N   UNL     1     -12.322  14.259  72.057  1.00  0.00    -0.257 N  
HETATM   27  O   UNL     1     -11.507  16.530  71.345  1.00  0.00    -0.340 OA 
HETATM   28  O   UNL     1     -13.704  15.610  70.514  1.00  0.00    -0.299 OA 
ENDBRANCH  13  23
TORSDOF 4
ENDMDL
MODEL       53
REMARK 921   NORMALIZED FREE ENERGY PREDICTED BY IDOCK:   -5.40 KCAL/MOL
REMARK 922        TOTAL FREE ENERGY PREDICTED BY IDOCK:   -7.02 KCAL/MOL
REMARK 923 INTER-LIGAND FREE ENERGY PREDICTED BY IDOCK:   -6.35 KCAL/MOL
REMARK 924 INTRA-LIGAND FREE ENERGY PREDICTED BY IDOCK:   -0.67 KCAL/MOL
REMARK 927      BINDING AFFINITY PREDICTED BY RF-SCORE:    0.00 PKD
ROOT
HETATM    1  C   UNL     1     -11.065  13.868  68.924  1.00  0.00    -0.266 C  
HETATM    2  N   UNL     1     -10.239  12.774  68.371  1.00  0.00    -0.239 N  
HETATM    3  C   UNL     1      -9.726  12.971  67.004  1.00  0.00    -0.235 C  
HETATM    4  N   UNL     1      -8.632  12.018  66.800  1.00  0.00    -0.224 NA 
HETATM    5 CL   UNL     1      -6.975   7.303  65.889  1.00  0.00    -0.060 Cl 
HETATM    6  C   UNL     1      -8.883  10.657  66.957  1.00  0.00    -0.137 A  
HETATM    7  C   UNL     1     -10.109   8.791  67.956  1.00  0.00    -0.241 A  
HETATM    8  H   UNL     1      -7.700  12.347  66.547  1.00  0.00     0.000 HD 
HETATM    9  C   UNL     1      -7.976   9.722  66.435  1.00  0.00    -0.109 A  
HETATM   10  O   UNL     1     -12.204  11.351  67.601  1.00  0.00    -0.485 OA 
HETATM   11  O   UNL     1     -11.180  10.942  69.870  1.00  0.00    -0.272 OA 
HETATM   12  C   UNL     1      -8.143   8.337  66.631  1.00  0.00    -0.102 A  
HETATM   13  C   UNL     1      -9.220   7.874  67.389  1.00  0.00    -0.140 A  
HETATM   14  S   UNL     1     -11.048  11.281  68.470  1.00  0.00    -0.261 S  
HETATM   15  C   UNL     1      -9.920  10.158  67.737  1.00  0.00    -0.168 A  
ENDROOT
BRANCH   3  16
HETATM   16  C   UNL     1      -9.176  14.404  66.760  1.00  0.00    -0.268 C  
BRANCH  16  17
HETATM   17  S   UNL     1     -10.108  15.258  65.416  1.00  0.00    -0.342 SA 
BRANCH  17  18
HETATM   18  C   UNL     1     -10.583  13.812  64.381  1.00  0.00    -0.295 C  
HETATM   19  F   UNL     1     -12.871  14.378  64.869  1.00  0.00    -0.423 F  
HETATM   20  C   UNL     1     -12.072  13.520  64.199  1.00  0.00    -0.435 C  
HETATM   21  F   UNL     1     -12.377  12.272  64.620  1.00  0.00    -0.459 F  
HETATM   22  F   UNL     1     -12.409  13.601  62.891  1.00  0.00    -0.516 F  
ENDBRANCH  17  18
ENDBRANCH  16  17
ENDBRANCH   3  16
BRANCH  13  23
HETATM   23  S   UNL     1      -9.488   6.160  67.708  1.00  0.00    -0.115 S  
HETATM   24  H2  UNL     1     -11.456   6.939  68.931  1.00  0.00     0.000 HD 
HETATM   25  H1  UNL     1     -11.046   5.154  68.812  1.00  0.00     0.000 HD 
HETATM   26  N   UNL     1     -10.891   6.145  68.628  1.00  0.00    -0.309 N  
HETATM   27  O   UNL     1      -9.780   5.486  66.469  1.00  0.00    -0.146 OA 
HETATM   28  O   UNL     1      -8.461   5.690  68.611  1.00  0.00    -0.105 OA 
ENDBRANCH  13  23
TORSDOF 4
ENDMDL
MODEL       54
REMARK 921   NORMALIZED FREE ENERGY PREDICTED BY IDOCK:   -5.34 KCAL/MOL
REMARK 922        TOTAL FREE ENERGY PREDICTED BY IDOCK:   -6.95 KCAL/MOL
REMARK 923 INTER-LIGAND FREE ENERGY PREDICTED BY IDOCK:   -6.19 KCAL/MOL
REMARK 924 INTRA-LIGAND FREE ENERGY PREDICTED BY IDOCK:   -0.76 KCAL/MOL
REMARK 927      BINDING AFFINITY PREDICTED BY RF-SCORE:    0.00 PKD
ROOT
HETATM    1  C   UNL     1     -12.239   6.617  71.791  1.00  0.00    -0.353 C  
HETATM    2  N   UNL     1     -11.915   7.514  70.662  1.00  0.00    -0.193 N  
HETATM    3  C   UNL     1     -10.739   7.147  69.854  1.00  0.00    -0.239 C  
HETATM    4  N   UNL     1     -10.825   7.881  68.588  1.00  0.00    -0.415 NA 
HETATM    5 CL   UNL     1     -10.332  12.170  65.912  1.00  0.00    -0.275 Cl 
HETATM    6  C   UNL     1     -10.891   9.272  68.617  1.00  0.00    -0.078 A  
HETATM    7  C   UNL     1     -11.499  11.381  69.697  1.00  0.00    -0.380 A  
HETATM    8  H   UNL     1     -10.836   7.380  67.700  1.00  0.00     0.000 HD 
HETATM    9  C   UNL     1     -10.621  10.001  67.449  1.00  0.00    -0.330 A  
HETATM   10  O   UNL     1     -10.627   9.207  72.060  1.00  0.00    -0.333 OA 
HETATM   11  O   UNL     1     -13.082   9.571  71.609  1.00  0.00    -0.351 OA 
HETATM   12  C   UNL     1     -10.746  11.403  67.403  1.00  0.00    -0.232 A  
HETATM   13  C   UNL     1     -11.181  12.092  68.537  1.00  0.00    -0.260 A  
HETATM   14  S   UNL     1     -11.773   9.128  71.180  1.00  0.00    -0.333 S  
HETATM   15  C   UNL     1     -11.357   9.991  69.713  1.00  0.00    -0.228 A  
ENDROOT
BRANCH   3  16
HETATM   16  C   UNL     1     -10.670   5.628  69.533  1.00  0.00    -0.310 C  
BRANCH  16  17
HETATM   17  S   UNL     1      -9.045   4.912  70.034  1.00  0.00    -0.116 SA 
BRANCH  17  18
HETATM   18  C   UNL     1      -8.519   6.148  71.291  1.00  0.00    -0.125 C  
HETATM   19  F   UNL     1      -9.272   4.583  72.958  1.00  0.00    -0.117 F  
HETATM   20  C   UNL     1      -8.702   5.792  72.766  1.00  0.00    -0.118 C  
HETATM   21  F   UNL     1      -9.474   6.707  73.394  1.00  0.00    -0.138 F  
HETATM   22  F   UNL     1      -7.504   5.771  73.395  1.00  0.00    -0.090 F  
ENDBRANCH  17  18
ENDBRANCH  16  17
ENDBRANCH   3  16
BRANCH  13  23
HETATM   23  S   UNL     1     -11.394  13.843  68.559  1.00  0.00    -0.301 S  
HETATM   24  H2  UNL     1     -12.475  13.446  70.715  1.00  0.00     0.000 HD 
HETATM   25  H1  UNL     1     -12.309  15.137  70.024  1.00  0.00     0.000 HD 
HETATM   26  N   UNL     1     -12.185  14.125  70.011  1.00  0.00    -0.341 N  
HETATM   27  O   UNL     1     -10.104  14.478  68.643  1.00  0.00    -0.233 OA 
HETATM   28  O   UNL     1     -12.360  14.206  67.546  1.00  0.00    -0.296 OA 
ENDBRANCH  13  23
TORSDOF 4
ENDMDL
MODEL       55
REMARK 921   NORMALIZED FREE ENERGY PREDICTED BY IDOCK:   -5.34 KCAL/MOL
REMARK 922        TOTAL FREE ENERGY PREDICTED BY IDOCK:   -6.95 KCAL/MOL
REMARK 923 INTER-LIGAND FREE ENERGY PREDICTED BY IDOCK:   -6.37 KCAL/MOL
REMARK 924 INTRA-LIGAND FREE ENERGY PREDICTED BY IDOCK:   -0.58 KCAL/MOL
REMARK 927      BINDING AFFINITY PREDICTED BY RF-SCORE:    0.00 PKD
ROOT
HETATM    1  C   UNL     1     -10.504  10.063  65.908  1.00  0.00    -0.045 C  
HETATM    2  N   UNL     1     -10.045  11.339  66.493  1.00  0.00    -0.211 N  
HETATM    3  C   UNL     1     -10.119  11.450  67.960  1.00  0.00    -0.180 C  
HETATM    4  N   UNL     1      -9.264  12.569  68.364  1.00  0.00    -0.318 NA 
HETATM    5 CL   UNL     1      -8.419  17.556  68.827  1.00  0.00    -0.252 Cl 
HETATM    6  C   UNL     1      -9.514  13.835  67.840  1.00  0.00    -0.214 A  
HETATM    7  C   UNL     1     -10.345  15.313  66.076  1.00  0.00    -0.327 A  
HETATM    8  H   UNL     1      -8.496  12.423  69.019  1.00  0.00     0.000 HD 
HETATM    9  C   UNL     1      -8.958  14.963  68.460  1.00  0.00    -0.179 A  
HETATM   10  O   UNL     1     -12.237  12.578  66.127  1.00  0.00    -0.609 OA 
HETATM   11  O   UNL     1     -10.409  12.741  64.397  1.00  0.00    -0.353 OA 
HETATM   12  C   UNL     1      -9.118  16.258  67.929  1.00  0.00    -0.196 A  
HETATM   13  C   UNL     1      -9.821  16.429  66.735  1.00  0.00    -0.256 A  
HETATM   14  S   UNL     1     -10.836  12.664  65.777  1.00  0.00    -0.282 S  
HETATM   15  C   UNL     1     -10.175  14.043  66.633  1.00  0.00    -0.275 A  
ENDROOT
BRANCH   3  16
HETATM   16  C   UNL     1      -9.627  10.170  68.693  1.00  0.00    -0.163 C  
BRANCH  16  17
HETATM   17  S   UNL     1      -7.805  10.225  68.982  1.00  0.00    -0.125 SA 
BRANCH  17  18
HETATM   18  C   UNL     1      -7.199   9.648  67.343  1.00  0.00    -0.086 C  
HETATM   19  F   UNL     1      -6.691  11.951  66.865  1.00  0.00    -0.127 F  
HETATM   20  C   UNL     1      -6.639  10.693  66.379  1.00  0.00    -0.120 C  
HETATM   21  F   UNL     1      -7.315  10.684  65.208  1.00  0.00    -0.143 F  
HETATM   22  F   UNL     1      -5.341  10.426  66.101  1.00  0.00    -0.043 F  
ENDBRANCH  17  18
ENDBRANCH  16  17
ENDBRANCH   3  16
BRANCH  13  23
HETATM   23  S   UNL     1     -10.044  18.010  65.984  1.00  0.00    -0.197 S  
HETATM   24  H2  UNL     1     -11.113  18.600  68.102  1.00  0.00     0.000 HD 
HETATM   25  H1  UNL     1     -10.959  19.814  66.735  1.00  0.00     0.000 HD 
HETATM   26  N   UNL     1     -10.830  18.901  67.169  1.00  0.00    -0.420 N  
HETATM   27  O   UNL     1      -8.757  18.621  65.772  1.00  0.00    -0.420 OA 
HETATM   28  O   UNL     1     -11.016  17.886  64.921  1.00  0.00    -0.827 OA 
ENDBRANCH  13  23
TORSDOF 4
ENDMDL
MODEL       56
REMARK 921   NORMALIZED FREE ENERGY PREDICTED BY IDOCK:   -5.33 KCAL/MOL
REMARK 922        TOTAL FREE ENERGY PREDICTED BY IDOCK:   -6.94 KCAL/MOL
REMARK 923 INTER-LIGAND FREE ENERGY PREDICTED BY IDOCK:   -6.97 KCAL/MOL
REMARK 924 INTRA-LIGAND FREE ENERGY PREDICTED BY IDOCK:    0.03 KCAL/MOL
REMARK 927      BINDING AFFINITY PREDICTED BY RF-SCORE:    0.00 PKD
ROOT
HETATM    1  C   UNL     1     -12.001  12.084  64.286  1.00  0.00    -0.335 C  
HETATM    2  N   UNL     1     -11.026  13.061  64.812  1.00  0.00    -0.311 N  
HETATM    3  C   UNL     1     -10.216  12.620  65.961  1.00  0.00    -0.272 C  
HETATM    4  N   UNL     1      -9.067  13.523  66.065  1.00  0.00    -0.454 NA 
HETATM    5 CL   UNL     1      -7.055  17.998  67.381  1.00  0.00    -0.199 Cl 
HETATM    6  C   UNL     1      -9.292  14.889  66.217  1.00  0.00    -0.296 A  
HETATM    7  C   UNL     1     -10.643  16.902  65.885  1.00  0.00    -0.239 A  
HETATM    8  H   UNL     1      -8.115  13.157  66.028  1.00  0.00     0.000 HD 
HETATM    9  C   UNL     1      -8.252  15.716  66.666  1.00  0.00    -0.284 A  
HETATM   10  O   UNL     1     -12.697  14.314  66.266  1.00  0.00    -0.360 OA 
HETATM   11  O   UNL     1     -12.216  15.132  63.929  1.00  0.00    -0.592 OA 
HETATM   12  C   UNL     1      -8.404  17.113  66.765  1.00  0.00    -0.234 A  
HETATM   13  C   UNL     1      -9.609  17.703  66.379  1.00  0.00    -0.274 A  
HETATM   14  S   UNL     1     -11.775  14.544  65.175  1.00  0.00    -0.377 S  
HETATM   15  C   UNL     1     -10.463  15.518  65.806  1.00  0.00    -0.361 A  
ENDROOT
BRANCH   3  16
HETATM   16  C   UNL     1      -9.682  11.168  65.809  1.00  0.00    -0.225 C  
BRANCH  16  17
HETATM   17  S   UNL     1      -8.153  10.909  66.807  1.00  0.00    -0.148 SA 
BRANCH  17  18
HETATM   18  C   UNL     1      -7.551   9.331  66.077  1.00  0.00    -0.096 C  
HETATM   19  F   UNL     1      -6.093  10.669  64.708  1.00  0.00    -0.131 F  
HETATM   20  C   UNL     1      -6.463   9.405  65.007  1.00  0.00    -0.076 C  
HETATM   21  F   UNL     1      -6.872   8.821  63.858  1.00  0.00    -0.084 F  
HETATM   22  F   UNL     1      -5.352   8.752  65.421  1.00  0.00    -0.036 F  
ENDBRANCH  17  18
ENDBRANCH  16  17
ENDBRANCH   3  16
BRANCH  13  23
HETATM   23  S   UNL     1      -9.875  19.446  66.442  1.00  0.00    -0.424 S  
HETATM   24  H2  UNL     1     -10.898  18.970  68.611  1.00  0.00     0.000 HD 
HETATM   25  H1  UNL     1     -10.798  20.680  67.953  1.00  0.00     0.000 HD 
HETATM   26  N   UNL     1     -10.644  19.673  67.916  1.00  0.00    -0.409 N  
HETATM   27  O   UNL     1      -8.603  20.118  66.514  1.00  0.00    -0.310 OA 
HETATM   28  O   UNL     1     -10.872  19.800  65.457  1.00  0.00    -0.445 OA 
ENDBRANCH  13  23
TORSDOF 4
ENDMDL
MODEL       57
REMARK 921   NORMALIZED FREE ENERGY PREDICTED BY IDOCK:   -5.32 KCAL/MOL
REMARK 922        TOTAL FREE ENERGY PREDICTED BY IDOCK:   -6.93 KCAL/MOL
REMARK 923 INTER-LIGAND FREE ENERGY PREDICTED BY IDOCK:   -6.55 KCAL/MOL
REMARK 924 INTRA-LIGAND FREE ENERGY PREDICTED BY IDOCK:   -0.37 KCAL/MOL
REMARK 927      BINDING AFFINITY PREDICTED BY RF-SCORE:    0.00 PKD
ROOT
HETATM    1  C   UNL     1      -9.298   9.971  63.956  1.00  0.00    -0.270 C  
HETATM    2  N   UNL     1      -9.904   9.952  65.303  1.00  0.00    -0.317 N  
HETATM    3  C   UNL     1     -10.287  11.258  65.866  1.00  0.00    -0.253 C  
HETATM    4  N   UNL     1     -11.215  11.010  66.973  1.00  0.00    -0.356 NA 
HETATM    5 CL   UNL     1     -12.115   9.578  71.762  1.00  0.00    -0.457 Cl 
HETATM    6  C   UNL     1     -10.802  10.207  68.033  1.00  0.00    -0.270 A  
HETATM    7  C   UNL     1      -9.453   8.392  68.966  1.00  0.00    -0.151 A  
HETATM    8  H   UNL     1     -12.150  11.419  66.966  1.00  0.00     0.000 HD 
HETATM    9  C   UNL     1     -11.513  10.238  69.242  1.00  0.00    -0.223 A  
HETATM   10  O   UNL     1      -7.695   9.875  66.563  1.00  0.00    -0.104 OA 
HETATM   11  O   UNL     1      -8.896   7.725  66.020  1.00  0.00    -0.158 OA 
HETATM   12  C   UNL     1     -11.184   9.393  70.319  1.00  0.00    -0.246 A  
HETATM   13  C   UNL     1     -10.144   8.472  70.178  1.00  0.00    -0.190 A  
HETATM   14  S   UNL     1      -8.918   9.118  66.410  1.00  0.00    -0.159 S  
HETATM   15  C   UNL     1      -9.799   9.250  67.919  1.00  0.00    -0.167 A  
ENDROOT
BRANCH   3  16
HETATM   16  C   UNL     1     -10.994  12.182  64.835  1.00  0.00    -0.309 C  
BRANCH  16  17
HETATM   17  S   UNL     1     -10.300  13.891  64.881  1.00  0.00    -0.360 SA 
BRANCH  17  18
HETATM   18  C   UNL     1     -10.357  14.215  66.692  1.00  0.00    -0.277 C  
HETATM   19  F   UNL     1     -12.740  14.448  66.444  1.00  0.00    -0.453 F  
HETATM   20  C   UNL     1     -11.723  14.469  67.331  1.00  0.00    -0.400 C  
HETATM   21  F   UNL     1     -11.752  15.670  67.951  1.00  0.00    -0.332 F  
HETATM   22  F   UNL     1     -11.987  13.524  68.263  1.00  0.00    -0.351 F  
ENDBRANCH  17  18
ENDBRANCH  16  17
ENDBRANCH   3  16
BRANCH  13  23
HETATM   23  S   UNL     1      -9.685   7.355  71.465  1.00  0.00    -0.158 S  
HETATM   24  H2  UNL     1      -8.834   9.360  72.575  1.00  0.00     0.000 HD 
HETATM   25  H1  UNL     1      -8.705   7.705  73.356  1.00  0.00     0.000 HD 
HETATM   26  N   UNL     1      -8.971   8.350  72.612  1.00  0.00    -0.245 N  
HETATM   27  O   UNL     1     -10.874   6.800  72.059  1.00  0.00    -0.219 OA 
HETATM   28  O   UNL     1      -8.605   6.519  70.991  1.00  0.00    -0.132 OA 
ENDBRANCH  13  23
TORSDOF 4
ENDMDL
MODEL       58
REMARK 921   NORMALIZED FREE ENERGY PREDICTED BY IDOCK:   -5.32 KCAL/MOL
REMARK 922        TOTAL FREE ENERGY PREDICTED BY IDOCK:   -6.93 KCAL/MOL
REMARK 923 INTER-LIGAND FREE ENERGY PREDICTED BY IDOCK:   -6.56 KCAL/MOL
REMARK 924 INTRA-LIGAND FREE ENERGY PREDICTED BY IDOCK:   -0.37 KCAL/MOL
REMARK 927      BINDING AFFINITY PREDICTED BY RF-SCORE:    0.00 PKD
ROOT
HETATM    1  C   UNL     1     -12.267  15.280  69.902  1.00  0.00    -0.323 C  
HETATM    2  N   UNL     1     -11.097  14.575  69.338  1.00  0.00    -0.263 N  
HETATM    3  C   UNL     1     -10.222  15.365  68.455  1.00  0.00    -0.219 C  
HETATM    4  N   UNL     1      -8.947  14.652  68.342  1.00  0.00    -0.175 NA 
HETATM    5 CL   UNL     1      -6.136  10.879  66.428  1.00  0.00    -0.117 Cl 
HETATM    6  C   UNL     1      -8.944  13.344  67.865  1.00  0.00    -0.201 A  
HETATM    7  C   UNL     1     -10.009  11.166  67.536  1.00  0.00    -0.204 A  
HETATM    8  H   UNL     1      -8.074  15.108  68.609  1.00  0.00     0.000 HD 
HETATM    9  C   UNL     1      -7.743  12.772  67.419  1.00  0.00    -0.165 A  
HETATM   10  O   UNL     1     -12.362  13.513  67.402  1.00  0.00    -0.278 OA 
HETATM   11  O   UNL     1     -12.067  12.229  69.553  1.00  0.00    -0.273 OA 
HETATM   12  C   UNL     1      -7.670  11.431  66.998  1.00  0.00    -0.154 A  
HETATM   13  C   UNL     1      -8.813  10.629  67.052  1.00  0.00    -0.137 A  
HETATM   14  S   UNL     1     -11.563  13.142  68.550  1.00  0.00    -0.349 S  
HETATM   15  C   UNL     1     -10.050  12.503  67.939  1.00  0.00    -0.214 A  
ENDROOT
BRANCH   3  16
HETATM   16  C   UNL     1      -9.936  16.793  69.000  1.00  0.00    -0.272 C  
BRANCH  16  17
HETATM   17  S   UNL     1      -8.398  17.494  68.261  1.00  0.00    -0.271 SA 
BRANCH  17  18
HETATM   18  C   UNL     1      -9.122  18.510  66.908  1.00  0.00    -0.290 C  
HETATM   19  F   UNL     1     -10.252  19.762  68.626  1.00  0.00    -0.484 F  
HETATM   20  C   UNL     1     -10.054  19.658  67.294  1.00  0.00    -0.409 C  
HETATM   21  F   UNL     1     -11.268  19.513  66.716  1.00  0.00    -0.502 F  
HETATM   22  F   UNL     1      -9.543  20.839  66.874  1.00  0.00    -0.529 F  
ENDBRANCH  17  18
ENDBRANCH  16  17
ENDBRANCH   3  16
BRANCH  13  23
HETATM   23  S   UNL     1      -8.804   8.932  66.572  1.00  0.00    -0.144 S  
HETATM   24  H2  UNL     1     -11.084   8.918  67.453  1.00  0.00     0.000 HD 
HETATM   25  H1  UNL     1     -10.326   7.410  66.735  1.00  0.00     0.000 HD 
HETATM   26  N   UNL     1     -10.330   8.391  67.012  1.00  0.00    -0.304 N  
HETATM   27  O   UNL     1      -8.716   8.844  65.137  1.00  0.00    -0.178 OA 
HETATM   28  O   UNL     1      -7.901   8.209  67.439  1.00  0.00    -0.103 OA 
ENDBRANCH  13  23
TORSDOF 4
ENDMDL
MODEL       59
REMARK 921   NORMALIZED FREE ENERGY PREDICTED BY IDOCK:   -5.31 KCAL/MOL
REMARK 922        TOTAL FREE ENERGY PREDICTED BY IDOCK:   -6.92 KCAL/MOL
REMARK 923 INTER-LIGAND FREE ENERGY PREDICTED BY IDOCK:   -6.44 KCAL/MOL
REMARK 924 INTRA-LIGAND FREE ENERGY PREDICTED BY IDOCK:   -0.48 KCAL/MOL
REMARK 927      BINDING AFFINITY PREDICTED BY RF-SCORE:    0.00 PKD
ROOT
HETATM    1  C   UNL     1      -6.768   9.174  68.723  1.00  0.00    -0.053 C  
HETATM    2  N   UNL     1      -7.935   9.909  68.193  1.00  0.00    -0.099 N  
HETATM    3  C   UNL     1      -8.725   9.220  67.158  1.00  0.00    -0.127 C  
HETATM    4  N   UNL     1     -10.022   9.895  67.068  1.00  0.00    -0.190 NA 
HETATM    5 CL   UNL     1     -12.888  13.797  65.528  1.00  0.00    -0.526 Cl 
HETATM    6  C   UNL     1     -10.057  11.257  66.777  1.00  0.00    -0.219 A  
HETATM    7  C   UNL     1      -9.072  13.496  66.817  1.00  0.00    -0.223 A  
HETATM    8  H   UNL     1     -10.888   9.376  67.216  1.00  0.00     0.000 HD 
HETATM    9  C   UNL     1     -11.256  11.842  66.343  1.00  0.00    -0.382 A  
HETATM   10  O   UNL     1      -6.614  11.277  66.502  1.00  0.00    -0.134 OA 
HETATM   11  O   UNL     1      -7.082  12.234  68.788  1.00  0.00    -0.102 OA 
HETATM   12  C   UNL     1     -11.364  13.226  66.108  1.00  0.00    -0.309 A  
HETATM   13  C   UNL     1     -10.262  14.052  66.341  1.00  0.00    -0.291 A  
HETATM   14  S   UNL     1      -7.490  11.454  67.640  1.00  0.00    -0.110 S  
HETATM   15  C   UNL     1      -8.994  12.118  67.033  1.00  0.00    -0.201 A  
ENDROOT
BRANCH   3  16
HETATM   16  C   UNL     1      -8.977   7.720  67.482  1.00  0.00    -0.123 C  
BRANCH  16  17
HETATM   17  S   UNL     1     -10.744   7.265  67.207  1.00  0.00    -0.299 SA 
BRANCH  17  18
HETATM   18  C   UNL     1     -11.036   6.195  68.676  1.00  0.00    -0.336 C  
HETATM   19  F   UNL     1     -11.222   8.225  69.957  1.00  0.00    -0.254 F  
HETATM   20  C   UNL     1     -11.281   6.877  70.021  1.00  0.00    -0.299 C  
HETATM   21  F   UNL     1     -10.375   6.477  70.941  1.00  0.00    -0.213 F  
HETATM   22  F   UNL     1     -12.508   6.555  70.494  1.00  0.00    -0.405 F  
ENDBRANCH  17  18
ENDBRANCH  16  17
ENDBRANCH   3  16
BRANCH  13  23
HETATM   23  S   UNL     1     -10.319  15.799  66.101  1.00  0.00    -0.337 S  
HETATM   24  H2  UNL     1      -7.881  15.651  66.194  1.00  0.00     0.000 HD 
HETATM   25  H1  UNL     1      -8.735  17.257  65.950  1.00  0.00     0.000 HD 
HETATM   26  N   UNL     1      -8.702  16.247  66.088  1.00  0.00    -0.332 N  
HETATM   27  O   UNL     1     -10.853  16.082  64.793  1.00  0.00    -0.587 OA 
HETATM   28  O   UNL     1     -10.855  16.414  67.295  1.00  0.00    -0.291 OA 
ENDBRANCH  13  23
TORSDOF 4
ENDMDL
MODEL       60
REMARK 921   NORMALIZED FREE ENERGY PREDICTED BY IDOCK:   -5.31 KCAL/MOL
REMARK 922        TOTAL FREE ENERGY PREDICTED BY IDOCK:   -6.91 KCAL/MOL
REMARK 923 INTER-LIGAND FREE ENERGY PREDICTED BY IDOCK:   -6.60 KCAL/MOL
REMARK 924 INTRA-LIGAND FREE ENERGY PREDICTED BY IDOCK:   -0.31 KCAL/MOL
REMARK 927      BINDING AFFINITY PREDICTED BY RF-SCORE:    0.00 PKD
ROOT
HETATM    1  C   UNL     1     -11.123   8.679  70.867  1.00  0.00    -0.264 C  
HETATM    2  N   UNL     1     -10.909   8.982  69.437  1.00  0.00    -0.186 N  
HETATM    3  C   UNL     1      -9.588   8.632  68.886  1.00  0.00    -0.159 C  
HETATM    4  N   UNL     1      -9.707   8.616  67.426  1.00  0.00    -0.165 NA 
HETATM    5 CL   UNL     1     -10.031  11.052  62.980  1.00  0.00    -0.352 Cl 
HETATM    6  C   UNL     1     -10.138   9.766  66.770  1.00  0.00    -0.231 A  
HETATM    7  C   UNL     1     -11.406  11.857  66.691  1.00  0.00    -0.400 A  
HETATM    8  H   UNL     1      -9.478   7.774  66.897  1.00  0.00     0.000 HD 
HETATM    9  C   UNL     1      -9.927   9.896  65.389  1.00  0.00    -0.349 A  
HETATM   10  O   UNL     1     -10.292  11.425  69.795  1.00  0.00     0.153 OA 
HETATM   11  O   UNL     1     -12.682  10.805  69.280  1.00  0.00    -0.254 OA 
HETATM   12  C   UNL     1     -10.409  11.003  64.665  1.00  0.00    -0.345 A  
HETATM   13  C   UNL     1     -11.145  11.990  65.324  1.00  0.00    -0.317 A  
HETATM   14  S   UNL     1     -11.260  10.610  69.094  1.00  0.00    -0.282 S  
HETATM   15  C   UNL     1     -10.907  10.750  67.383  1.00  0.00    -0.290 A  
ENDROOT
BRANCH   3  16
HETATM   16  C   UNL     1      -9.085   7.236  69.350  1.00  0.00    -0.142 C  
BRANCH  16  17
HETATM   17  S   UNL     1     -10.256   5.902  68.847  1.00  0.00    -0.221 SA 
BRANCH  17  18
HETATM   18  C   UNL     1      -9.462   4.452  69.655  1.00  0.00    -0.182 C  
HETATM   19  F   UNL     1     -10.297   5.319  71.739  1.00  0.00    -0.236 F  
HETATM   20  C   UNL     1      -9.604   4.309  71.170  1.00  0.00    -0.179 C  
HETATM   21  F   UNL     1      -8.393   4.261  71.769  1.00  0.00    -0.091 F  
HETATM   22  F   UNL     1     -10.253   3.161  71.473  1.00  0.00    -0.232 F  
ENDBRANCH  17  18
ENDBRANCH  16  17
ENDBRANCH   3  16
BRANCH  13  23
HETATM   23  S   UNL     1     -11.810  13.394  64.489  1.00  0.00    -0.420 S  
HETATM   24  H2  UNL     1     -13.172  13.648  66.503  1.00  0.00     0.000 HD 
HETATM   25  H1  UNL     1     -13.317  14.816  65.096  1.00  0.00     0.000 HD 
HETATM   26  N   UNL     1     -12.932  14.004  65.578  1.00  0.00    -0.448 N  
HETATM   27  O   UNL     1     -10.779  14.387  64.334  1.00  0.00    -0.296 OA 
HETATM   28  O   UNL     1     -12.605  12.936  63.372  1.00  0.00    -0.709 OA 
ENDBRANCH  13  23
TORSDOF 4
ENDMDL
MODEL       61
REMARK 921   NORMALIZED FREE ENERGY PREDICTED BY IDOCK:   -5.31 KCAL/MOL
REMARK 922        TOTAL FREE ENERGY PREDICTED BY IDOCK:   -6.91 KCAL/MOL
REMARK 923 INTER-LIGAND FREE ENERGY PREDICTED BY IDOCK:   -6.47 KCAL/MOL
REMARK 924 INTRA-LIGAND FREE ENERGY PREDICTED BY IDOCK:   -0.44 KCAL/MOL
REMARK 927      BINDING AFFINITY PREDICTED BY RF-SCORE:    0.00 PKD
ROOT
HETATM    1  C   UNL     1      -9.418  10.366  68.099  1.00  0.00    -0.145 C  
HETATM    2  N   UNL     1      -9.734  11.804  68.230  1.00  0.00    -0.195 N  
HETATM    3  C   UNL     1     -11.135  12.189  67.990  1.00  0.00    -0.244 C  
HETATM    4  N   UNL     1     -11.331  13.526  68.557  1.00  0.00    -0.271 NA 
HETATM    5 CL   UNL     1     -10.740  18.565  68.323  1.00  0.00    -0.208 Cl 
HETATM    6  C   UNL     1     -10.531  14.574  68.108  1.00  0.00    -0.239 A  
HETATM    7  C   UNL     1      -8.445  15.448  67.174  1.00  0.00    -0.241 A  
HETATM    8  H   UNL     1     -12.043  13.687  69.270  1.00  0.00     0.000 HD 
HETATM    9  C   UNL     1     -10.919  15.898  68.360  1.00  0.00    -0.331 A  
HETATM   10  O   UNL     1      -8.990  12.432  65.879  1.00  0.00     0.003 OA 
HETATM   11  O   UNL     1      -7.366  12.640  67.799  1.00  0.00    -0.102 OA 
HETATM   12  C   UNL     1     -10.110  16.991  67.995  1.00  0.00    -0.305 A  
HETATM   13  C   UNL     1      -8.871  16.760  67.392  1.00  0.00    -0.200 A  
HETATM   14  S   UNL     1      -8.705  12.751  67.262  1.00  0.00    -0.206 S  
HETATM   15  C   UNL     1      -9.274  14.384  67.541  1.00  0.00    -0.200 A  
ENDROOT
BRANCH   3  16
HETATM   16  C   UNL     1     -12.155  11.223  68.657  1.00  0.00    -0.141 C  
BRANCH  16  17
HETATM   17  S   UNL     1     -12.107  11.365  70.495  1.00  0.00    -0.369 SA 
BRANCH  17  18
HETATM   18  C   UNL     1     -11.575   9.659  70.939  1.00  0.00    -0.344 C  
HETATM   19  F   UNL     1     -13.590   9.510  72.247  1.00  0.00    -0.430 F  
HETATM   20  C   UNL     1     -12.487   8.840  71.850  1.00  0.00    -0.372 C  
HETATM   21  F   UNL     1     -11.832   8.445  72.965  1.00  0.00    -0.429 F  
HETATM   22  F   UNL     1     -12.909   7.723  71.211  1.00  0.00    -0.325 F  
ENDBRANCH  17  18
ENDBRANCH  16  17
ENDBRANCH   3  16
BRANCH  13  23
HETATM   23  S   UNL     1      -7.783  18.069  66.930  1.00  0.00    -0.233 S  
HETATM   24  H2  UNL     1      -6.372  16.270  66.066  1.00  0.00     0.000 HD 
HETATM   25  H1  UNL     1      -5.867  18.029  65.938  1.00  0.00     0.000 HD 
HETATM   26  N   UNL     1      -6.496  17.273  66.205  1.00  0.00    -0.226 N  
HETATM   27  O   UNL     1      -8.414  18.876  65.917  1.00  0.00    -0.474 OA 
HETATM   28  O   UNL     1      -7.220  18.650  68.128  1.00  0.00    -0.240 OA 
ENDBRANCH  13  23
TORSDOF 4
ENDMDL
MODEL       62
REMARK 921   NORMALIZED FREE ENERGY PREDICTED BY IDOCK:   -5.30 KCAL/MOL
REMARK 922        TOTAL FREE ENERGY PREDICTED BY IDOCK:   -6.91 KCAL/MOL
REMARK 923 INTER-LIGAND FREE ENERGY PREDICTED BY IDOCK:   -6.63 KCAL/MOL
REMARK 924 INTRA-LIGAND FREE ENERGY PREDICTED BY IDOCK:   -0.28 KCAL/MOL
REMARK 927      BINDING AFFINITY PREDICTED BY RF-SCORE:    0.00 PKD
ROOT
HETATM    1  C   UNL     1     -11.786  13.682  68.354  1.00  0.00    -0.372 C  
HETATM    2  N   UNL     1     -11.162  12.870  67.290  1.00  0.00    -0.275 N  
HETATM    3  C   UNL     1     -11.874  12.823  66.002  1.00  0.00    -0.439 C  
HETATM    4  N   UNL     1     -10.930  12.340  64.990  1.00  0.00    -0.293 NA 
HETATM    5 CL   UNL     1      -8.342   8.563  62.790  1.00  0.00    -0.179 Cl 
HETATM    6  C   UNL     1     -10.320  11.101  65.172  1.00  0.00    -0.293 A  
HETATM    7  C   UNL     1      -9.465   9.306  66.598  1.00  0.00    -0.246 A  
HETATM    8  H   UNL     1     -10.723  12.903  64.165  1.00  0.00     0.000 HD 
HETATM    9  C   UNL     1      -9.703  10.468  64.082  1.00  0.00    -0.388 A  
HETATM   10  O   UNL     1     -12.120  10.650  68.084  1.00  0.00    -0.403 OA 
HETATM   11  O   UNL     1      -9.825  11.363  68.851  1.00  0.00    -0.191 OA 
HETATM   12  C   UNL     1      -9.008   9.252  64.227  1.00  0.00    -0.096 A  
HETATM   13  C   UNL     1      -8.897   8.668  65.491  1.00  0.00    -0.179 A  
HETATM   14  S   UNL     1     -10.846  11.287  67.828  1.00  0.00    -0.254 S  
HETATM   15  C   UNL     1     -10.154  10.509  66.419  1.00  0.00    -0.228 A  
ENDROOT
BRANCH   3  16
HETATM   16  C   UNL     1     -12.406  14.211  65.549  1.00  0.00    -0.458 C  
BRANCH  16  17
HETATM   17  S   UNL     1     -11.107  15.166  64.653  1.00  0.00    -0.259 SA 
BRANCH  17  18
HETATM   18  C   UNL     1     -10.291  16.011  66.069  1.00  0.00    -0.351 C  
HETATM   19  F   UNL     1     -11.065  18.080  65.113  1.00  0.00    -0.370 F  
HETATM   20  C   UNL     1     -10.390  17.534  66.147  1.00  0.00    -0.329 C  
HETATM   21  F   UNL     1      -9.162  18.100  66.172  1.00  0.00    -0.294 F  
HETATM   22  F   UNL     1     -11.030  17.906  67.280  1.00  0.00    -0.342 F  
ENDBRANCH  17  18
ENDBRANCH  16  17
ENDBRANCH   3  16
BRANCH  13  23
HETATM   23  S   UNL     1      -8.020   7.163  65.767  1.00  0.00    -0.130 S  
HETATM   24  H2  UNL     1      -6.099   8.402  64.900  1.00  0.00     0.000 HD 
HETATM   25  H1  UNL     1      -5.950   6.652  65.432  1.00  0.00     0.000 HD 
HETATM   26  N   UNL     1      -6.457   7.522  65.272  1.00  0.00    -0.041 N  
HETATM   27  O   UNL     1      -7.970   6.894  67.181  1.00  0.00    -0.110 OA 
HETATM   28  O   UNL     1      -8.481   6.176  64.817  1.00  0.00    -0.108 OA 
ENDBRANCH  13  23
TORSDOF 4
ENDMDL
MODEL       63
REMARK 921   NORMALIZED FREE ENERGY PREDICTED BY IDOCK:   -5.30 KCAL/MOL
REMARK 922        TOTAL FREE ENERGY PREDICTED BY IDOCK:   -6.90 KCAL/MOL
REMARK 923 INTER-LIGAND FREE ENERGY PREDICTED BY IDOCK:   -6.36 KCAL/MOL
REMARK 924 INTRA-LIGAND FREE ENERGY PREDICTED BY IDOCK:   -0.54 KCAL/MOL
REMARK 927      BINDING AFFINITY PREDICTED BY RF-SCORE:    0.00 PKD
ROOT
HETATM    1  C   UNL     1      -8.351   7.909  69.634  1.00  0.00    -0.131 C  
HETATM    2  N   UNL     1      -8.879   8.564  68.420  1.00  0.00    -0.139 N  
HETATM    3  C   UNL     1      -8.010   8.533  67.231  1.00  0.00    -0.102 C  
HETATM    4  N   UNL     1      -8.843   8.843  66.066  1.00  0.00    -0.160 NA 
HETATM    5 CL   UNL     1     -11.341  12.186  63.170  1.00  0.00    -0.357 Cl 
HETATM    6  C   UNL     1      -9.543  10.047  66.036  1.00  0.00    -0.222 A  
HETATM    7  C   UNL     1     -10.679  11.909  67.144  1.00  0.00    -0.280 A  
HETATM    8  H   UNL     1      -8.908   8.187  65.287  1.00  0.00     0.000 HD 
HETATM    9  C   UNL     1     -10.050  10.523  64.817  1.00  0.00    -0.406 A  
HETATM   10  O   UNL     1      -8.164  10.915  69.081  1.00  0.00    -0.146 OA 
HETATM   11  O   UNL     1     -10.493  10.118  69.633  1.00  0.00    -0.220 OA 
HETATM   12  C   UNL     1     -10.828  11.694  64.744  1.00  0.00    -0.308 A  
HETATM   13  C   UNL     1     -11.136  12.391  65.914  1.00  0.00    -0.313 A  
HETATM   14  S   UNL     1      -9.354  10.165  68.742  1.00  0.00    -0.176 S  
HETATM   15  C   UNL     1      -9.903  10.747  67.183  1.00  0.00    -0.185 A  
ENDROOT
BRANCH   3  16
HETATM   16  C   UNL     1      -7.343   7.148  66.999  1.00  0.00    -0.089 C  
BRANCH  16  17
HETATM   17  S   UNL     1      -7.953   6.364  65.445  1.00  0.00    -0.121 SA 
BRANCH  17  18
HETATM   18  C   UNL     1      -8.971   5.001  66.147  1.00  0.00    -0.131 C  
HETATM   19  F   UNL     1     -10.750   6.610  66.353  1.00  0.00    -0.254 F  
HETATM   20  C   UNL     1     -10.412   5.318  66.548  1.00  0.00    -0.298 C  
HETATM   21  F   UNL     1     -10.624   5.037  67.854  1.00  0.00    -0.186 F  
HETATM   22  F   UNL     1     -11.276   4.567  65.826  1.00  0.00    -0.246 F  
ENDBRANCH  17  18
ENDBRANCH  16  17
ENDBRANCH   3  16
BRANCH  13  23
HETATM   23  S   UNL     1     -12.128  13.849  65.917  1.00  0.00    -0.459 S  
HETATM   24  H2  UNL     1     -10.184  14.887  64.859  1.00  0.00     0.000 HD 
HETATM   25  H1  UNL     1     -11.709  15.845  65.210  1.00  0.00     0.000 HD 
HETATM   26  N   UNL     1     -11.135  15.002  65.208  1.00  0.00    -0.367 N  
HETATM   27  O   UNL     1     -13.256  13.658  65.041  1.00  0.00    -0.729 OA 
HETATM   28  O   UNL     1     -12.287  14.300  67.281  1.00  0.00    -0.337 OA 
ENDBRANCH  13  23
TORSDOF 4
ENDMDL
MODEL       64
REMARK 921   NORMALIZED FREE ENERGY PREDICTED BY IDOCK:   -5.30 KCAL/MOL
REMARK 922        TOTAL FREE ENERGY PREDICTED BY IDOCK:   -6.90 KCAL/MOL
REMARK 923 INTER-LIGAND FREE ENERGY PREDICTED BY IDOCK:   -6.03 KCAL/MOL
REMARK 924 INTRA-LIGAND FREE ENERGY PREDICTED BY IDOCK:   -0.88 KCAL/MOL
REMARK 927      BINDING AFFINITY PREDICTED BY RF-SCORE:    0.00 PKD
ROOT
HETATM    1  C   UNL     1      -8.662   6.243  68.500  1.00  0.00    -0.112 C  
HETATM    2  N   UNL     1      -9.243   7.601  68.549  1.00  0.00    -0.144 N  
HETATM    3  C   UNL     1     -10.296   7.824  69.555  1.00  0.00    -0.219 C  
HETATM    4  N   UNL     1     -10.442   9.271  69.731  1.00  0.00    -0.212 NA 
HETATM    5 CL   UNL     1     -12.136  13.781  68.120  1.00  0.00    -0.378 Cl 
HETATM    6  C   UNL     1     -10.752  10.059  68.625  1.00  0.00    -0.226 A  
HETATM    7  C   UNL     1     -10.707  10.515  66.222  1.00  0.00    -0.139 A  
HETATM    8  H   UNL     1     -10.318   9.696  70.650  1.00  0.00     0.000 HD 
HETATM    9  C   UNL     1     -11.237  11.361  68.817  1.00  0.00    -0.308 A  
HETATM   10  O   UNL     1     -10.904   7.223  66.659  1.00  0.00    -0.220 OA 
HETATM   11  O   UNL     1      -8.649   8.235  66.155  1.00  0.00    -0.124 OA 
HETATM   12  C   UNL     1     -11.494  12.225  67.735  1.00  0.00    -0.329 A  
HETATM   13  C   UNL     1     -11.234  11.793  66.432  1.00  0.00    -0.323 A  
HETATM   14  S   UNL     1      -9.801   8.088  67.018  1.00  0.00    -0.253 S  
HETATM   15  C   UNL     1     -10.470   9.680  67.316  1.00  0.00    -0.258 A  
ENDROOT
BRANCH   3  16
HETATM   16  C   UNL     1      -9.961   7.196  70.937  1.00  0.00    -0.189 C  
BRANCH  16  17
HETATM   17  S   UNL     1      -9.317   8.466  72.110  1.00  0.00    -0.289 SA 
BRANCH  17  18
HETATM   18  C   UNL     1      -7.507   8.255  71.855  1.00  0.00    -0.098 C  
HETATM   19  F   UNL     1      -7.632  10.126  70.346  1.00  0.00    -0.174 F  
HETATM   20  C   UNL     1      -6.799   9.226  70.910  1.00  0.00    -0.103 C  
HETATM   21  F   UNL     1      -6.181   8.562  69.907  1.00  0.00    -0.031 F  
HETATM   22  F   UNL     1      -5.852   9.924  71.579  1.00  0.00    -0.079 F  
ENDBRANCH  17  18
ENDBRANCH  16  17
ENDBRANCH   3  16
BRANCH  13  23
HETATM   23  S   UNL     1     -11.499  12.818  65.022  1.00  0.00    -0.337 S  
HETATM   24  H2  UNL     1     -10.556  10.940  63.775  1.00  0.00     0.000 HD 
HETATM   25  H1  UNL     1     -11.103  12.473  62.929  1.00  0.00     0.000 HD 
HETATM   26  N   UNL     1     -10.950  11.880  63.744  1.00  0.00    -0.385 N  
HETATM   27  O   UNL     1     -12.914  13.012  64.835  1.00  0.00    -0.739 OA 
HETATM   28  O   UNL     1     -10.576  13.930  65.076  1.00  0.00    -0.354 OA 
ENDBRANCH  13  23
TORSDOF 4
ENDMDL
MODEL       65
REMARK 921   NORMALIZED FREE ENERGY PREDICTED BY IDOCK:   -5.28 KCAL/MOL
REMARK 922        TOTAL FREE ENERGY PREDICTED BY IDOCK:   -6.88 KCAL/MOL
REMARK 923 INTER-LIGAND FREE ENERGY PREDICTED BY IDOCK:   -6.63 KCAL/MOL
REMARK 924 INTRA-LIGAND FREE ENERGY PREDICTED BY IDOCK:   -0.25 KCAL/MOL
REMARK 927      BINDING AFFINITY PREDICTED BY RF-SCORE:    0.00 PKD
ROOT
HETATM    1  C   UNL     1     -11.045  12.020  65.211  1.00  0.00    -0.317 C  
HETATM    2  N   UNL     1     -10.184  13.066  65.801  1.00  0.00    -0.287 N  
HETATM    3  C   UNL     1      -9.425  12.683  67.004  1.00  0.00    -0.220 C  
HETATM    4  N   UNL     1      -8.356  13.670  67.186  1.00  0.00    -0.318 NA 
HETATM    5 CL   UNL     1      -6.780  18.279  68.626  1.00  0.00    -0.238 Cl 
HETATM    6  C   UNL     1      -8.693  15.015  67.319  1.00  0.00    -0.203 A  
HETATM    7  C   UNL     1     -10.164  16.922  66.889  1.00  0.00    -0.296 A  
HETATM    8  H   UNL     1      -7.380  13.376  67.215  1.00  0.00     0.000 HD 
HETATM    9  C   UNL     1      -7.751  15.916  67.836  1.00  0.00    -0.146 A  
HETATM   10  O   UNL     1     -12.041  14.186  67.133  1.00  0.00    -0.426 OA 
HETATM   11  O   UNL     1     -11.462  15.045  64.833  1.00  0.00    -0.386 OA 
HETATM   12  C   UNL     1      -8.014  17.297  67.921  1.00  0.00    -0.205 A  
HETATM   13  C   UNL     1      -9.230  17.797  67.451  1.00  0.00    -0.248 A  
HETATM   14  S   UNL     1     -11.065  14.488  66.108  1.00  0.00    -0.339 S  
HETATM   15  C   UNL     1      -9.877  15.556  66.826  1.00  0.00    -0.241 A  
ENDROOT
BRANCH   3  16
HETATM   16  C   UNL     1      -8.775  11.276  66.893  1.00  0.00    -0.157 C  
BRANCH  16  17
HETATM   17  S   UNL     1      -9.115  10.262  68.396  1.00  0.00    -0.141 SA 
BRANCH  17  18
HETATM   18  C   UNL     1      -8.844   8.573  67.717  1.00  0.00    -0.137 C  
HETATM   19  F   UNL     1     -11.035   8.755  66.737  1.00  0.00    -0.261 F  
HETATM   20  C   UNL     1      -9.952   7.958  66.862  1.00  0.00    -0.262 C  
HETATM   21  F   UNL     1     -10.372   6.784  67.384  1.00  0.00    -0.180 F  
HETATM   22  F   UNL     1      -9.496   7.707  65.613  1.00  0.00    -0.082 F  
ENDBRANCH  17  18
ENDBRANCH  16  17
ENDBRANCH   3  16
BRANCH  13  23
HETATM   23  S   UNL     1      -9.629  19.515  67.492  1.00  0.00    -0.345 S  
HETATM   24  H2  UNL     1     -10.042  19.118  69.868  1.00  0.00     0.000 HD 
HETATM   25  H1  UNL     1     -10.262  20.780  69.122  1.00  0.00     0.000 HD 
HETATM   26  N   UNL     1     -10.031  19.787  69.098  1.00  0.00    -0.391 N  
HETATM   27  O   UNL     1      -8.445  20.284  67.209  1.00  0.00    -0.331 OA 
HETATM   28  O   UNL     1     -10.866  19.721  66.771  1.00  0.00    -0.472 OA 
ENDBRANCH  13  23
TORSDOF 4
ENDMDL
MODEL       66
REMARK 921   NORMALIZED FREE ENERGY PREDICTED BY IDOCK:   -5.26 KCAL/MOL
REMARK 922        TOTAL FREE ENERGY PREDICTED BY IDOCK:   -6.85 KCAL/MOL
REMARK 923 INTER-LIGAND FREE ENERGY PREDICTED BY IDOCK:   -6.19 KCAL/MOL
REMARK 924 INTRA-LIGAND FREE ENERGY PREDICTED BY IDOCK:   -0.66 KCAL/MOL
REMARK 927      BINDING AFFINITY PREDICTED BY RF-SCORE:    0.00 PKD
ROOT
HETATM    1  C   UNL     1     -10.788  14.851  67.883  1.00  0.00    -0.276 C  
HETATM    2  N   UNL     1     -10.294  13.581  68.453  1.00  0.00    -0.244 N  
HETATM    3  C   UNL     1      -9.234  12.894  67.694  1.00  0.00    -0.193 C  
HETATM    4  N   UNL     1      -8.606  11.921  68.592  1.00  0.00    -0.329 NA 
HETATM    5 CL   UNL     1      -8.652   7.463  71.026  1.00  0.00    -0.133 Cl 
HETATM    6  C   UNL     1      -9.395  10.939  69.184  1.00  0.00    -0.078 A  
HETATM    7  C   UNL     1     -11.532  10.123  70.055  1.00  0.00    -0.344 A  
HETATM    8  H   UNL     1      -7.604  11.964  68.781  1.00  0.00     0.000 HD 
HETATM    9  C   UNL     1      -8.786   9.808  69.749  1.00  0.00    -0.228 A  
HETATM   10  O   UNL     1     -12.150  12.138  67.481  1.00  0.00    -0.534 OA 
HETATM   11  O   UNL     1     -12.384  13.065  69.815  1.00  0.00    -0.205 OA 
HETATM   12  C   UNL     1      -9.531   8.823  70.425  1.00  0.00    -0.179 A  
HETATM   13  C   UNL     1     -10.911   8.982  70.570  1.00  0.00    -0.251 A  
HETATM   14  S   UNL     1     -11.573  12.503  68.757  1.00  0.00    -0.340 S  
HETATM   15  C   UNL     1     -10.765  11.079  69.383  1.00  0.00    -0.205 A  
ENDROOT
BRANCH   3  16
HETATM   16  C   UNL     1      -8.133  13.860  67.173  1.00  0.00    -0.083 C  
BRANCH  16  17
HETATM   17  S   UNL     1      -6.724  13.968  68.359  1.00  0.00    -0.114 SA 
BRANCH  17  18
HETATM   18  C   UNL     1      -7.325  15.319  69.455  1.00  0.00    -0.207 C  
HETATM   19  F   UNL     1      -6.717  16.843  67.694  1.00  0.00    -0.130 F  
HETATM   20  C   UNL     1      -7.256  16.752  68.928  1.00  0.00    -0.225 C  
HETATM   21  F   UNL     1      -6.520  17.535  69.749  1.00  0.00    -0.248 F  
HETATM   22  F   UNL     1      -8.497  17.288  68.862  1.00  0.00    -0.267 F  
ENDBRANCH  17  18
ENDBRANCH  16  17
ENDBRANCH   3  16
BRANCH  13  23
HETATM   23  S   UNL     1     -11.915   7.812  71.427  1.00  0.00    -0.314 S  
HETATM   24  H2  UNL     1     -13.658   9.513  71.217  1.00  0.00     0.000 HD 
HETATM   25  H1  UNL     1     -13.979   7.911  72.050  1.00  0.00     0.000 HD 
HETATM   26  N   UNL     1     -13.399   8.586  71.555  1.00  0.00    -0.319 N  
HETATM   27  O   UNL     1     -12.107   6.652  70.597  1.00  0.00    -0.394 OA 
HETATM   28  O   UNL     1     -11.445   7.708  72.791  1.00  0.00    -0.355 OA 
ENDBRANCH  13  23
TORSDOF 4
ENDMDL
MODEL       67
REMARK 921   NORMALIZED FREE ENERGY PREDICTED BY IDOCK:   -5.24 KCAL/MOL
REMARK 922        TOTAL FREE ENERGY PREDICTED BY IDOCK:   -6.82 KCAL/MOL
REMARK 923 INTER-LIGAND FREE ENERGY PREDICTED BY IDOCK:   -6.40 KCAL/MOL
REMARK 924 INTRA-LIGAND FREE ENERGY PREDICTED BY IDOCK:   -0.42 KCAL/MOL
REMARK 927      BINDING AFFINITY PREDICTED BY RF-SCORE:    0.00 PKD
ROOT
HETATM    1  C   UNL     1     -11.586   8.029  72.817  1.00  0.00    -0.327 C  
HETATM    2  N   UNL     1     -11.081   8.588  71.546  1.00  0.00    -0.257 N  
HETATM    3  C   UNL     1     -12.017   9.438  70.789  1.00  0.00    -0.231 C  
HETATM    4  N   UNL     1     -11.232  10.207  69.820  1.00  0.00    -0.259 NA 
HETATM    5 CL   UNL     1      -8.663  10.518  65.449  1.00  0.00    -0.187 Cl 
HETATM    6  C   UNL     1     -10.448   9.526  68.892  1.00  0.00    -0.216 A  
HETATM    7  C   UNL     1      -9.117   7.594  68.198  1.00  0.00    -0.132 A  
HETATM    8  H   UNL     1     -11.259  11.227  69.825  1.00  0.00     0.000 HD 
HETATM    9  C   UNL     1      -9.978  10.201  67.755  1.00  0.00    -0.198 A  
HETATM   10  O   UNL     1     -11.583   6.518  70.153  1.00  0.00    -0.396 OA 
HETATM   11  O   UNL     1      -9.292   6.815  71.164  1.00  0.00    -0.159 OA 
HETATM   12  C   UNL     1      -9.121   9.581  66.825  1.00  0.00    -0.146 A  
HETATM   13  C   UNL     1      -8.697   8.269  67.048  1.00  0.00    -0.127 A  
HETATM   14  S   UNL     1     -10.473   7.364  70.534  1.00  0.00    -0.222 S  
HETATM   15  C   UNL     1      -9.973   8.235  69.098  1.00  0.00    -0.196 A  
ENDROOT
BRANCH   3  16
HETATM   16  C   UNL     1     -12.796  10.438  71.689  1.00  0.00    -0.474 C  
BRANCH  16  17
HETATM   17  S   UNL     1     -12.623  12.168  71.072  1.00  0.00    -0.161 SA 
BRANCH  17  18
HETATM   18  C   UNL     1     -13.490  13.080  72.415  1.00  0.00    -0.515 C  
HETATM   19  F   UNL     1     -12.037  14.933  71.918  1.00  0.00    -0.345 F  
HETATM   20  C   UNL     1     -13.055  14.517  72.700  1.00  0.00    -0.467 C  
HETATM   21  F   UNL     1     -12.662  14.659  73.986  1.00  0.00    -0.568 F  
HETATM   22  F   UNL     1     -14.088  15.368  72.495  1.00  0.00    -0.522 F  
ENDBRANCH  17  18
ENDBRANCH  16  17
ENDBRANCH   3  16
BRANCH  13  23
HETATM   23  S   UNL     1      -7.601   7.428  65.951  1.00  0.00    -0.093 S  
HETATM   24  H2  UNL     1      -7.601   5.688  67.668  1.00  0.00     0.000 HD 
HETATM   25  H1  UNL     1      -6.625   5.511  66.125  1.00  0.00     0.000 HD 
HETATM   26  N   UNL     1      -7.258   5.997  66.759  1.00  0.00    -0.070 N  
HETATM   27  O   UNL     1      -8.310   7.080  64.746  1.00  0.00    -0.089 OA 
HETATM   28  O   UNL     1      -6.341   8.135  65.920  1.00  0.00    -0.044 OA 
ENDBRANCH  13  23
TORSDOF 4
ENDMDL
MODEL       68
REMARK 921   NORMALIZED FREE ENERGY PREDICTED BY IDOCK:   -5.20 KCAL/MOL
REMARK 922        TOTAL FREE ENERGY PREDICTED BY IDOCK:   -6.78 KCAL/MOL
REMARK 923 INTER-LIGAND FREE ENERGY PREDICTED BY IDOCK:   -5.99 KCAL/MOL
REMARK 924 INTRA-LIGAND FREE ENERGY PREDICTED BY IDOCK:   -0.80 KCAL/MOL
REMARK 927      BINDING AFFINITY PREDICTED BY RF-SCORE:    0.00 PKD
ROOT
HETATM    1  C   UNL     1     -12.177   6.924  71.778  1.00  0.00    -0.356 C  
HETATM    2  N   UNL     1     -11.872   7.664  70.536  1.00  0.00    -0.151 N  
HETATM    3  C   UNL     1     -10.746   7.156  69.734  1.00  0.00    -0.239 C  
HETATM    4  N   UNL     1     -10.862   7.733  68.392  1.00  0.00    -0.422 NA 
HETATM    5 CL   UNL     1     -10.342  11.642  65.190  1.00  0.00    -0.310 Cl 
HETATM    6  C   UNL     1     -10.880   9.118  68.251  1.00  0.00    -0.051 A  
HETATM    7  C   UNL     1     -11.369  11.365  69.086  1.00  0.00    -0.353 A  
HETATM    8  H   UNL     1     -10.929   7.128  67.573  1.00  0.00     0.000 HD 
HETATM    9  C   UNL     1     -10.636   9.689  66.993  1.00  0.00    -0.267 A  
HETATM   10  O   UNL     1     -10.469   9.463  71.663  1.00  0.00    -0.325 OA 
HETATM   11  O   UNL     1     -12.928   9.864  71.267  1.00  0.00    -0.351 OA 
HETATM   12  C   UNL     1     -10.716  11.078  66.779  1.00  0.00    -0.266 A  
HETATM   13  C   UNL     1     -11.078  11.917  67.836  1.00  0.00    -0.242 A  
HETATM   14  S   UNL     1     -11.654   9.322  70.845  1.00  0.00    -0.312 S  
HETATM   15  C   UNL     1     -11.273   9.983  69.267  1.00  0.00    -0.166 A  
ENDROOT
BRANCH   3  16
HETATM   16  C   UNL     1     -10.742   5.607  69.601  1.00  0.00    -0.328 C  
BRANCH  16  17
HETATM   17  S   UNL     1      -9.167   4.885  70.235  1.00  0.00    -0.147 SA 
BRANCH  17  18
HETATM   18  C   UNL     1      -8.038   6.320  70.007  1.00  0.00    -0.120 C  
HETATM   19  F   UNL     1      -7.661   5.504  67.773  1.00  0.00    -0.087 F  
HETATM   20  C   UNL     1      -7.355   6.485  68.649  1.00  0.00    -0.087 C  
HETATM   21  F   UNL     1      -6.009   6.502  68.782  1.00  0.00    -0.018 F  
HETATM   22  F   UNL     1      -7.722   7.656  68.079  1.00  0.00    -0.107 F  
ENDBRANCH  17  18
ENDBRANCH  16  17
ENDBRANCH   3  16
BRANCH  13  23
HETATM   23  S   UNL     1     -11.231  13.665  67.650  1.00  0.00    -0.292 S  
HETATM   24  H2  UNL     1     -12.108  13.591  69.930  1.00  0.00     0.000 HD 
HETATM   25  H1  UNL     1     -11.955  15.173  69.013  1.00  0.00     0.000 HD 
HETATM   26  N   UNL     1     -11.867  14.163  69.121  1.00  0.00    -0.321 N  
HETATM   27  O   UNL     1      -9.919  14.247  67.531  1.00  0.00    -0.231 OA 
HETATM   28  O   UNL     1     -12.279  13.940  66.693  1.00  0.00    -0.437 OA 
ENDBRANCH  13  23
TORSDOF 4
ENDMDL
MODEL       69
REMARK 921   NORMALIZED FREE ENERGY PREDICTED BY IDOCK:   -5.19 KCAL/MOL
REMARK 922        TOTAL FREE ENERGY PREDICTED BY IDOCK:   -6.77 KCAL/MOL
REMARK 923 INTER-LIGAND FREE ENERGY PREDICTED BY IDOCK:   -6.47 KCAL/MOL
REMARK 924 INTRA-LIGAND FREE ENERGY PREDICTED BY IDOCK:   -0.30 KCAL/MOL
REMARK 927      BINDING AFFINITY PREDICTED BY RF-SCORE:    0.00 PKD
ROOT
HETATM    1  C   UNL     1      -8.048  11.941  68.601  1.00  0.00    -0.086 C  
HETATM    2  N   UNL     1      -8.527  13.335  68.497  1.00  0.00    -0.116 N  
HETATM    3  C   UNL     1      -9.466  13.622  67.398  1.00  0.00    -0.225 C  
HETATM    4  N   UNL     1     -10.127  14.894  67.702  1.00  0.00    -0.227 NA 
HETATM    5 CL   UNL     1     -10.080  19.969  67.926  1.00  0.00    -0.553 Cl 
HETATM    6  C   UNL     1      -9.348  16.033  67.890  1.00  0.00    -0.208 A  
HETATM    7  C   UNL     1      -7.268  17.138  68.554  1.00  0.00    -0.220 A  
HETATM    8  H   UNL     1     -11.143  14.945  67.774  1.00  0.00     0.000 HD 
HETATM    9  C   UNL     1      -9.948  17.300  67.829  1.00  0.00    -0.301 A  
HETATM   10  O   UNL     1      -6.506  14.192  67.211  1.00  0.00    -0.288 OA 
HETATM   11  O   UNL     1      -6.560  14.388  69.725  1.00  0.00    -0.138 OA 
HETATM   12  C   UNL     1      -9.221  18.479  68.086  1.00  0.00    -0.309 A  
HETATM   13  C   UNL     1      -7.874  18.393  68.443  1.00  0.00    -0.306 A  
HETATM   14  S   UNL     1      -7.228  14.430  68.442  1.00  0.00    -0.127 S  
HETATM   15  C   UNL     1      -8.015  15.987  68.285  1.00  0.00    -0.145 A  
ENDROOT
BRANCH   3  16
HETATM   16  C   UNL     1     -10.560  12.531  67.230  1.00  0.00    -0.227 C  
BRANCH  16  17
HETATM   17  S   UNL     1     -11.863  12.686  68.527  1.00  0.00    -0.246 SA 
BRANCH  17  18
HETATM   18  C   UNL     1     -12.000  10.931  69.061  1.00  0.00    -0.251 C  
HETATM   19  F   UNL     1     -12.438  11.773  71.274  1.00  0.00    -0.440 F  
HETATM   20  C   UNL     1     -12.321  10.652  70.529  1.00  0.00    -0.359 C  
HETATM   21  F   UNL     1     -11.362   9.888  71.099  1.00  0.00    -0.371 F  
HETATM   22  F   UNL     1     -13.491   9.980  70.634  1.00  0.00    -0.417 F  
ENDBRANCH  17  18
ENDBRANCH  16  17
ENDBRANCH   3  16
BRANCH  13  23
HETATM   23  S   UNL     1      -6.898  19.815  68.810  1.00  0.00    -0.328 S  
HETATM   24  H2  UNL     1      -5.009  18.372  68.240  1.00  0.00     0.000 HD 
HETATM   25  H1  UNL     1      -4.761  20.115  68.755  1.00  0.00     0.000 HD 
HETATM   26  N   UNL     1      -5.325  19.293  68.543  1.00  0.00    -0.187 N  
HETATM   27  O   UNL     1      -7.177  20.846  67.844  1.00  0.00    -0.234 OA 
HETATM   28  O   UNL     1      -6.957  20.065  70.233  1.00  0.00    -0.158 OA 
ENDBRANCH  13  23
TORSDOF 4
ENDMDL
MODEL       70
REMARK 921   NORMALIZED FREE ENERGY PREDICTED BY IDOCK:   -5.09 KCAL/MOL
REMARK 922        TOTAL FREE ENERGY PREDICTED BY IDOCK:   -6.65 KCAL/MOL
REMARK 923 INTER-LIGAND FREE ENERGY PREDICTED BY IDOCK:   -5.83 KCAL/MOL
REMARK 924 INTRA-LIGAND FREE ENERGY PREDICTED BY IDOCK:   -0.82 KCAL/MOL
REMARK 927      BINDING AFFINITY PREDICTED BY RF-SCORE:    0.00 PKD
ROOT
HETATM    1  C   UNL     1      -9.858   7.571  70.056  1.00  0.00    -0.180 C  
HETATM    2  N   UNL     1     -10.094   8.320  68.805  1.00  0.00    -0.195 N  
HETATM    3  C   UNL     1      -9.128   8.092  67.716  1.00  0.00    -0.131 C  
HETATM    4  N   UNL     1      -9.740   8.571  66.473  1.00  0.00    -0.240 NA 
HETATM    5 CL   UNL     1     -11.114  12.364  63.388  1.00  0.00    -0.503 Cl 
HETATM    6  C   UNL     1     -10.152   9.899  66.391  1.00  0.00    -0.240 A  
HETATM    7  C   UNL     1     -10.967  11.971  67.404  1.00  0.00    -0.311 A  
HETATM    8  H   UNL     1      -9.863   7.941  65.680  1.00  0.00     0.000 HD 
HETATM    9  C   UNL     1     -10.406  10.467  65.133  1.00  0.00    -0.310 A  
HETATM   10  O   UNL     1      -8.958  10.460  69.582  1.00  0.00    -0.153 OA 
HETATM   11  O   UNL     1     -11.451  10.197  69.865  1.00  0.00    -0.253 OA 
HETATM   12  C   UNL     1     -10.896  11.781  64.998  1.00  0.00    -0.295 A  
HETATM   13  C   UNL     1     -11.170  12.535  66.141  1.00  0.00    -0.321 A  
HETATM   14  S   UNL     1     -10.239   9.988  69.103  1.00  0.00    -0.225 S  
HETATM   15  C   UNL     1     -10.473  10.668  67.505  1.00  0.00    -0.230 A  
ENDROOT
BRANCH   3  16
HETATM   16  C   UNL     1      -8.760   6.593  67.532  1.00  0.00    -0.118 C  
BRANCH  16  17
HETATM   17  S   UNL     1      -6.940   6.371  67.333  1.00  0.00    -0.077 SA 
BRANCH  17  18
HETATM   18  C   UNL     1      -6.832   6.194  65.505  1.00  0.00    -0.052 C  
HETATM   19  F   UNL     1      -6.781   8.598  65.404  1.00  0.00    -0.063 F  
HETATM   20  C   UNL     1      -6.741   7.468  64.666  1.00  0.00    -0.050 C  
HETATM   21  F   UNL     1      -7.753   7.533  63.771  1.00  0.00    -0.098 F  
HETATM   22  F   UNL     1      -5.581   7.489  63.969  1.00  0.00    -0.035 F  
ENDBRANCH  17  18
ENDBRANCH  16  17
ENDBRANCH   3  16
BRANCH  13  23
HETATM   23  S   UNL     1     -11.812  14.176  66.064  1.00  0.00    -0.412 S  
HETATM   24  H2  UNL     1     -11.760  14.056  68.505  1.00  0.00     0.000 HD 
HETATM   25  H1  UNL     1     -12.350  15.558  67.632  1.00  0.00     0.000 HD 
HETATM   26  N   UNL     1     -11.979  14.610  67.676  1.00  0.00    -0.336 N  
HETATM   27  O   UNL     1     -10.823  15.047  65.485  1.00  0.00    -0.313 OA 
HETATM   28  O   UNL     1     -13.168  14.120  65.564  1.00  0.00    -0.688 OA 
ENDBRANCH  13  23
TORSDOF 4
ENDMDL
MODEL       71
REMARK 921   NORMALIZED FREE ENERGY PREDICTED BY IDOCK:   -5.09 KCAL/MOL
REMARK 922        TOTAL FREE ENERGY PREDICTED BY IDOCK:   -6.64 KCAL/MOL
REMARK 923 INTER-LIGAND FREE ENERGY PREDICTED BY IDOCK:   -5.96 KCAL/MOL
REMARK 924 INTRA-LIGAND FREE ENERGY PREDICTED BY IDOCK:   -0.68 KCAL/MOL
REMARK 927      BINDING AFFINITY PREDICTED BY RF-SCORE:    0.00 PKD
ROOT
HETATM    1  C   UNL     1     -13.276  13.034  71.516  1.00  0.00    -0.272 C  
HETATM    2  N   UNL     1     -12.162  12.321  70.857  1.00  0.00    -0.299 N  
HETATM    3  C   UNL     1     -11.766  12.817  69.527  1.00  0.00    -0.318 C  
HETATM    4  N   UNL     1     -10.433  12.282  69.234  1.00  0.00    -0.426 NA 
HETATM    5 CL   UNL     1      -7.407   8.453  67.828  1.00  0.00    -0.091 Cl 
HETATM    6  C   UNL     1     -10.243  10.903  69.235  1.00  0.00    -0.166 A  
HETATM    7  C   UNL     1     -10.803   8.649  70.005  1.00  0.00    -0.226 A  
HETATM    8  H   UNL     1      -9.656  12.912  69.032  1.00  0.00     0.000 HD 
HETATM    9  C   UNL     1      -9.101  10.361  68.626  1.00  0.00    -0.157 A  
HETATM   10  O   UNL     1     -13.600  10.448  69.907  1.00  0.00     0.255 OA 
HETATM   11  O   UNL     1     -12.450  10.134  72.131  1.00  0.00    -0.278 OA 
HETATM   12  C   UNL     1      -8.823   8.982  68.664  1.00  0.00    -0.137 A  
HETATM   13  C   UNL     1      -9.685   8.124  69.352  1.00  0.00    -0.170 A  
HETATM   14  S   UNL     1     -12.462  10.649  70.779  1.00  0.00    -0.414 S  
HETATM   15  C   UNL     1     -11.056  10.022  69.942  1.00  0.00    -0.288 A  
ENDROOT
BRANCH   3  16
HETATM   16  C   UNL     1     -11.697  14.368  69.451  1.00  0.00    -0.317 C  
BRANCH  16  17
HETATM   17  S   UNL     1     -11.061  14.929  67.813  1.00  0.00    -0.320 SA 
BRANCH  17  18
HETATM   18  C   UNL     1     -12.114  13.919  66.692  1.00  0.00    -0.448 C  
HETATM   19  F   UNL     1     -10.090  12.819  65.994  1.00  0.00    -0.247 F  
HETATM   20  C   UNL     1     -11.430  12.857  65.832  1.00  0.00    -0.346 C  
HETATM   21  F   UNL     1     -11.673  13.067  64.518  1.00  0.00    -0.342 F  
HETATM   22  F   UNL     1     -11.904  11.627  66.140  1.00  0.00    -0.335 F  
ENDBRANCH  17  18
ENDBRANCH  16  17
ENDBRANCH   3  16
BRANCH  13  23
HETATM   23  S   UNL     1      -9.396   6.388  69.475  1.00  0.00    -0.143 S  
HETATM   24  H2  UNL     1      -9.591   6.425  67.038  1.00  0.00     0.000 HD 
HETATM   25  H1  UNL     1      -9.270   4.866  67.950  1.00  0.00     0.000 HD 
HETATM   26  N   UNL     1      -9.437   5.869  67.879  1.00  0.00    -0.110 N  
HETATM   27  O   UNL     1      -8.062   6.162  69.966  1.00  0.00    -0.114 OA 
HETATM   28  O   UNL     1     -10.551   5.768  70.085  1.00  0.00    -0.256 OA 
ENDBRANCH  13  23
TORSDOF 4
ENDMDL
MODEL       72
REMARK 921   NORMALIZED FREE ENERGY PREDICTED BY IDOCK:   -5.09 KCAL/MOL
REMARK 922        TOTAL FREE ENERGY PREDICTED BY IDOCK:   -6.64 KCAL/MOL
REMARK 923 INTER-LIGAND FREE ENERGY PREDICTED BY IDOCK:   -6.37 KCAL/MOL
REMARK 924 INTRA-LIGAND FREE ENERGY PREDICTED BY IDOCK:   -0.27 KCAL/MOL
REMARK 927      BINDING AFFINITY PREDICTED BY RF-SCORE:    0.00 PKD
ROOT
HETATM    1  C   UNL     1      -8.400  19.660  68.308  1.00  0.00    -0.318 C  
HETATM    2  N   UNL     1      -8.483  18.225  67.968  1.00  0.00    -0.256 N  
HETATM    3  C   UNL     1      -7.269  17.618  67.397  1.00  0.00    -0.181 C  
HETATM    4  N   UNL     1      -7.403  16.163  67.516  1.00  0.00    -0.144 NA 
HETATM    5 CL   UNL     1      -9.381  11.754  65.953  1.00  0.00    -0.232 Cl 
HETATM    6  C   UNL     1      -8.497  15.535  66.927  1.00  0.00    -0.254 A  
HETATM    7  C   UNL     1     -10.815  15.524  66.146  1.00  0.00    -0.295 A  
HETATM    8  H   UNL     1      -6.704  15.619  68.023  1.00  0.00     0.000 HD 
HETATM    9  C   UNL     1      -8.470  14.147  66.721  1.00  0.00    -0.029 A  
HETATM   10  O   UNL     1      -9.572  18.576  65.695  1.00  0.00    -0.365 OA 
HETATM   11  O   UNL     1     -11.018  18.155  67.719  1.00  0.00    -0.315 OA 
HETATM   12  C   UNL     1      -9.577  13.452  66.199  1.00  0.00    -0.202 A  
HETATM   13  C   UNL     1     -10.751  14.149  65.905  1.00  0.00    -0.298 A  
HETATM   14  S   UNL     1      -9.813  17.909  66.956  1.00  0.00    -0.330 S  
HETATM   15  C   UNL     1      -9.696  16.186  66.657  1.00  0.00    -0.244 A  
ENDROOT
BRANCH   3  16
HETATM   16  C   UNL     1      -5.968  18.050  68.131  1.00  0.00    -0.171 C  
BRANCH  16  17
HETATM   17  S   UNL     1      -6.078  17.710  69.941  1.00  0.00    -0.100 SA 
BRANCH  17  18
HETATM   18  C   UNL     1      -5.177  16.108  70.025  1.00  0.00    -0.144 C  
HETATM   19  F   UNL     1      -7.280  15.106  70.632  1.00  0.00     0.074 F  
HETATM   20  C   UNL     1      -5.976  14.856  70.387  1.00  0.00    -0.150 C  
HETATM   21  F   UNL     1      -5.466  14.255  71.486  1.00  0.00    -0.138 F  
HETATM   22  F   UNL     1      -5.926  13.959  69.374  1.00  0.00    -0.083 F  
ENDBRANCH  17  18
ENDBRANCH  16  17
ENDBRANCH   3  16
BRANCH  13  23
HETATM   23  S   UNL     1     -12.195  13.353  65.276  1.00  0.00    -0.468 S  
HETATM   24  H2  UNL     1     -10.888  13.133  63.222  1.00  0.00     0.000 HD 
HETATM   25  H1  UNL     1     -12.605  12.496  63.338  1.00  0.00     0.000 HD 
HETATM   26  N   UNL     1     -11.771  12.956  63.702  1.00  0.00    -0.487 N  
HETATM   27  O   UNL     1     -12.405  12.119  65.988  1.00  0.00    -0.550 OA 
HETATM   28  O   UNL     1     -13.242  14.339  65.130  1.00  0.00    -0.686 OA 
ENDBRANCH  13  23
TORSDOF 4
ENDMDL
MODEL       73
REMARK 921   NORMALIZED FREE ENERGY PREDICTED BY IDOCK:   -5.08 KCAL/MOL
REMARK 922        TOTAL FREE ENERGY PREDICTED BY IDOCK:   -6.63 KCAL/MOL
REMARK 923 INTER-LIGAND FREE ENERGY PREDICTED BY IDOCK:   -6.18 KCAL/MOL
REMARK 924 INTRA-LIGAND FREE ENERGY PREDICTED BY IDOCK:   -0.45 KCAL/MOL
REMARK 927      BINDING AFFINITY PREDICTED BY RF-SCORE:    0.00 PKD
ROOT
HETATM    1  C   UNL     1     -11.041  11.760  65.965  1.00  0.00    -0.312 C  
HETATM    2  N   UNL     1     -10.280  12.869  66.576  1.00  0.00    -0.254 N  
HETATM    3  C   UNL     1     -10.075  12.794  68.033  1.00  0.00    -0.230 C  
HETATM    4  N   UNL     1      -8.988  13.716  68.376  1.00  0.00    -0.250 NA 
HETATM    5 CL   UNL     1      -7.260  18.424  69.177  1.00  0.00    -0.243 Cl 
HETATM    6  C   UNL     1      -9.114  15.062  68.044  1.00  0.00    -0.178 A  
HETATM    7  C   UNL     1      -9.985  16.865  66.638  1.00  0.00    -0.302 A  
HETATM    8  H   UNL     1      -8.152  13.375  68.851  1.00  0.00     0.000 HD 
HETATM    9  C   UNL     1      -8.277  16.007  68.657  1.00  0.00    -0.193 A  
HETATM   10  O   UNL     1     -12.266  14.448  66.774  1.00  0.00    -0.420 OA 
HETATM   11  O   UNL     1     -10.770  14.574  64.748  1.00  0.00    -0.413 OA 
HETATM   12  C   UNL     1      -8.311  17.370  68.303  1.00  0.00    -0.248 A  
HETATM   13  C   UNL     1      -9.176  17.797  67.293  1.00  0.00    -0.253 A  
HETATM   14  S   UNL     1     -10.954  14.377  66.169  1.00  0.00    -0.327 S  
HETATM   15  C   UNL     1      -9.933  15.521  67.017  1.00  0.00    -0.239 A  
ENDROOT
BRANCH   3  16
HETATM   16  C   UNL     1      -9.680  11.372  68.521  1.00  0.00    -0.197 C  
BRANCH  16  17
HETATM   17  S   UNL     1      -7.859  11.104  68.397  1.00  0.00    -0.141 SA 
BRANCH  17  18
HETATM   18  C   UNL     1      -7.821   9.645  67.276  1.00  0.00    -0.095 C  
HETATM   19  F   UNL     1      -7.166   8.349  69.196  1.00  0.00    -0.059 F  
HETATM   20  C   UNL     1      -7.453   8.289  67.878  1.00  0.00    -0.098 C  
HETATM   21  F   UNL     1      -6.377   7.758  67.254  1.00  0.00    -0.047 F  
HETATM   22  F   UNL     1      -8.478   7.417  67.732  1.00  0.00    -0.115 F  
ENDBRANCH  17  18
ENDBRANCH  16  17
ENDBRANCH   3  16
BRANCH  13  23
HETATM   23  S   UNL     1      -9.262  19.478  66.767  1.00  0.00    -0.370 S  
HETATM   24  H2  UNL     1     -11.224  18.737  65.512  1.00  0.00     0.000 HD 
HETATM   25  H1  UNL     1     -10.654  20.479  65.456  1.00  0.00     0.000 HD 
HETATM   26  N   UNL     1     -10.604  19.508  65.761  1.00  0.00    -0.489 N  
HETATM   27  O   UNL     1      -9.556  20.317  67.900  1.00  0.00    -0.355 OA 
HETATM   28  O   UNL     1      -8.146  19.747  65.887  1.00  0.00    -0.348 OA 
ENDBRANCH  13  23
TORSDOF 4
ENDMDL
MODEL       74
REMARK 921   NORMALIZED FREE ENERGY PREDICTED BY IDOCK:   -5.04 KCAL/MOL
REMARK 922        TOTAL FREE ENERGY PREDICTED BY IDOCK:   -6.58 KCAL/MOL
REMARK 923 INTER-LIGAND FREE ENERGY PREDICTED BY IDOCK:   -6.29 KCAL/MOL
REMARK 924 INTRA-LIGAND FREE ENERGY PREDICTED BY IDOCK:   -0.30 KCAL/MOL
REMARK 927      BINDING AFFINITY PREDICTED BY RF-SCORE:    0.00 PKD
ROOT
HETATM    1  C   UNL     1     -10.638  17.383  67.509  1.00  0.00    -0.330 C  
HETATM    2  N   UNL     1      -9.893  16.111  67.606  1.00  0.00    -0.234 N  
HETATM    3  C   UNL     1      -8.952  15.820  66.511  1.00  0.00    -0.306 C  
HETATM    4  N   UNL     1      -8.040  14.772  66.977  1.00  0.00    -0.323 NA 
HETATM    5 CL   UNL     1      -7.062   9.903  68.042  1.00  0.00    -0.081 Cl 
HETATM    6  C   UNL     1      -8.568  13.556  67.402  1.00  0.00    -0.208 A  
HETATM    7  C   UNL     1     -10.362  12.207  68.376  1.00  0.00    -0.236 A  
HETATM    8  H   UNL     1      -7.032  14.932  66.990  1.00  0.00     0.000 HD 
HETATM    9  C   UNL     1      -7.729  12.438  67.513  1.00  0.00    -0.161 A  
HETATM   10  O   UNL     1     -11.742  14.669  66.616  1.00  0.00    -0.372 OA 
HETATM   11  O   UNL     1     -11.570  14.932  69.119  1.00  0.00    -0.275 OA 
HETATM   12  C   UNL     1      -8.195  11.205  68.009  1.00  0.00    -0.125 A  
HETATM   13  C   UNL     1      -9.521  11.092  68.435  1.00  0.00    -0.182 A  
HETATM   14  S   UNL     1     -10.948  14.794  67.819  1.00  0.00    -0.302 S  
HETATM   15  C   UNL     1      -9.870  13.414  67.871  1.00  0.00    -0.237 A  
ENDROOT
BRANCH   3  16
HETATM   16  C   UNL     1      -8.104  17.055  66.093  1.00  0.00    -0.257 C  
BRANCH  16  17
HETATM   17  S   UNL     1      -6.527  17.136  67.047  1.00  0.00    -0.211 SA 
BRANCH  17  18
HETATM   18  C   UNL     1      -7.157  17.747  68.664  1.00  0.00    -0.257 C  
HETATM   19  F   UNL     1      -7.073  19.957  67.716  1.00  0.00    -0.272 F  
HETATM   20  C   UNL     1      -7.395  19.248  68.819  1.00  0.00    -0.346 C  
HETATM   21  F   UNL     1      -6.674  19.750  69.847  1.00  0.00    -0.358 F  
HETATM   22  F   UNL     1      -8.700  19.491  69.082  1.00  0.00    -0.396 F  
ENDBRANCH  17  18
ENDBRANCH  16  17
ENDBRANCH   3  16
BRANCH  13  23
HETATM   23  S   UNL     1     -10.180   9.595  69.096  1.00  0.00    -0.213 S  
HETATM   24  H2  UNL     1      -8.225   9.663  70.563  1.00  0.00     0.000 HD 
HETATM   25  H1  UNL     1      -9.456   8.307  70.669  1.00  0.00     0.000 HD 
HETATM   26  N   UNL     1      -9.076   9.172  70.287  1.00  0.00    -0.198 N  
HETATM   27  O   UNL     1     -11.431   9.876  69.752  1.00  0.00    -0.221 OA 
HETATM   28  O   UNL     1     -10.054   8.553  68.102  1.00  0.00    -0.185 OA 
ENDBRANCH  13  23
TORSDOF 4
ENDMDL
MODEL       75
REMARK 921   NORMALIZED FREE ENERGY PREDICTED BY IDOCK:   -5.04 KCAL/MOL
REMARK 922        TOTAL FREE ENERGY PREDICTED BY IDOCK:   -6.58 KCAL/MOL
REMARK 923 INTER-LIGAND FREE ENERGY PREDICTED BY IDOCK:   -6.43 KCAL/MOL
REMARK 924 INTRA-LIGAND FREE ENERGY PREDICTED BY IDOCK:   -0.15 KCAL/MOL
REMARK 927      BINDING AFFINITY PREDICTED BY RF-SCORE:    0.00 PKD
ROOT
HETATM    1  C   UNL     1     -13.520  12.162  71.958  1.00  0.00    -0.286 C  
HETATM    2  N   UNL     1     -12.437  11.318  71.412  1.00  0.00    -0.325 N  
HETATM    3  C   UNL     1     -12.052  11.574  70.014  1.00  0.00    -0.331 C  
HETATM    4  N   UNL     1     -10.739  10.960  69.797  1.00  0.00    -0.434 NA 
HETATM    5 CL   UNL     1      -7.838   6.865  69.011  1.00  0.00    -0.110 Cl 
HETATM    6  C   UNL     1     -10.584   9.595  70.026  1.00  0.00    -0.260 A  
HETATM    7  C   UNL     1     -11.190   7.518  71.167  1.00  0.00    -0.277 A  
HETATM    8  H   UNL     1      -9.949  11.525  69.483  1.00  0.00     0.000 HD 
HETATM    9  C   UNL     1      -9.468   8.927  69.501  1.00  0.00    -0.159 A  
HETATM   10  O   UNL     1     -13.940   9.355  70.807  1.00  0.00    -0.023 OA 
HETATM   11  O   UNL     1     -12.760   9.382  73.037  1.00  0.00     0.051 OA 
HETATM   12  C   UNL     1      -9.225   7.566  69.765  1.00  0.00    -0.147 A  
HETATM   13  C   UNL     1     -10.097   6.860  70.597  1.00  0.00    -0.194 A  
HETATM   14  S   UNL     1     -12.782   9.665  71.618  1.00  0.00    -0.438 S  
HETATM   15  C   UNL     1     -11.407   8.868  70.879  1.00  0.00    -0.283 A  
ENDROOT
BRANCH   3  16
HETATM   16  C   UNL     1     -11.944  13.088  69.679  1.00  0.00    -0.302 C  
BRANCH  16  17
HETATM   17  S   UNL     1     -10.718  13.390  68.334  1.00  0.00    -0.261 SA 
BRANCH  17  18
HETATM   18  C   UNL     1     -11.647  12.723  66.892  1.00  0.00    -0.366 C  
HETATM   19  F   UNL     1     -11.417  14.904  65.900  1.00  0.00    -0.344 F  
HETATM   20  C   UNL     1     -11.902  13.658  65.711  1.00  0.00    -0.371 C  
HETATM   21  F   UNL     1     -13.226  13.773  65.460  1.00  0.00    -0.515 F  
HETATM   22  F   UNL     1     -11.318  13.170  64.592  1.00  0.00    -0.311 F  
ENDBRANCH  17  18
ENDBRANCH  16  17
ENDBRANCH   3  16
BRANCH  13  23
HETATM   23  S   UNL     1      -9.852   5.161  71.004  1.00  0.00    -0.208 S  
HETATM   24  H2  UNL     1      -7.544   5.843  71.433  1.00  0.00     0.000 HD 
HETATM   25  H1  UNL     1      -8.086   4.104  71.654  1.00  0.00     0.000 HD 
HETATM   26  N   UNL     1      -8.228   5.086  71.419  1.00  0.00    -0.111 N  
HETATM   27  O   UNL     1     -10.611   4.841  72.184  1.00  0.00    -0.198 OA 
HETATM   28  O   UNL     1      -9.951   4.375  69.794  1.00  0.00    -0.225 OA 
ENDBRANCH  13  23
TORSDOF 4
ENDMDL
MODEL       76
REMARK 921   NORMALIZED FREE ENERGY PREDICTED BY IDOCK:   -5.00 KCAL/MOL
REMARK 922        TOTAL FREE ENERGY PREDICTED BY IDOCK:   -6.53 KCAL/MOL
REMARK 923 INTER-LIGAND FREE ENERGY PREDICTED BY IDOCK:   -6.22 KCAL/MOL
REMARK 924 INTRA-LIGAND FREE ENERGY PREDICTED BY IDOCK:   -0.31 KCAL/MOL
REMARK 927      BINDING AFFINITY PREDICTED BY RF-SCORE:    0.00 PKD
ROOT
HETATM    1  C   UNL     1      -9.794  11.768  65.591  1.00  0.00    -0.237 C  
HETATM    2  N   UNL     1     -10.078  11.178  66.915  1.00  0.00    -0.208 N  
HETATM    3  C   UNL     1      -9.759  12.016  68.085  1.00  0.00    -0.199 C  
HETATM    4  N   UNL     1     -10.471  11.457  69.237  1.00  0.00    -0.406 NA 
HETATM    5 CL   UNL     1     -10.936   7.947  72.879  1.00  0.00    -0.461 Cl 
HETATM    6  C   UNL     1     -10.235  10.133  69.600  1.00  0.00    -0.242 A  
HETATM    7  C   UNL     1      -9.618   7.827  69.064  1.00  0.00    -0.155 A  
HETATM    8  H   UNL     1     -11.129  12.030  69.767  1.00  0.00     0.000 HD 
HETATM    9  C   UNL     1     -10.616   9.686  70.874  1.00  0.00    -0.386 A  
HETATM   10  O   UNL     1      -7.905   9.861  67.065  1.00  0.00    -0.101 OA 
HETATM   11  O   UNL     1      -9.978   8.749  66.155  1.00  0.00    -0.275 OA 
HETATM   12  C   UNL     1     -10.470   8.341  71.264  1.00  0.00    -0.211 A  
HETATM   13  C   UNL     1      -9.961   7.412  70.353  1.00  0.00    -0.188 A  
HETATM   14  S   UNL     1      -9.338   9.656  67.083  1.00  0.00    -0.142 S  
HETATM   15  C   UNL     1      -9.769   9.171  68.710  1.00  0.00    -0.162 A  
ENDROOT
BRANCH   3  16
HETATM   16  C   UNL     1     -10.199  13.497  67.911  1.00  0.00    -0.247 C  
BRANCH  16  17
HETATM   17  S   UNL     1     -11.973  13.725  68.364  1.00  0.00    -0.304 SA 
BRANCH  17  18
HETATM   18  C   UNL     1     -11.826  15.113  69.563  1.00  0.00    -0.332 C  
HETATM   19  F   UNL     1     -12.631  13.581  71.237  1.00  0.00    -0.392 F  
HETATM   20  C   UNL     1     -12.200  14.842  71.020  1.00  0.00    -0.317 C  
HETATM   21  F   UNL     1     -13.178  15.680  71.434  1.00  0.00    -0.459 F  
HETATM   22  F   UNL     1     -11.129  15.041  71.824  1.00  0.00    -0.416 F  
ENDBRANCH  17  18
ENDBRANCH  16  17
ENDBRANCH   3  16
BRANCH  13  23
HETATM   23  S   UNL     1      -9.772   5.703  70.748  1.00  0.00    -0.184 S  
HETATM   24  H2  UNL     1     -12.059   5.890  71.591  1.00  0.00     0.000 HD 
HETATM   25  H1  UNL     1     -11.137   4.306  71.665  1.00  0.00     0.000 HD 
HETATM   26  N   UNL     1     -11.246   5.293  71.437  1.00  0.00     0.073 N  
HETATM   27  O   UNL     1      -9.642   4.946  69.530  1.00  0.00    -0.137 OA 
HETATM   28  O   UNL     1      -8.822   5.579  71.830  1.00  0.00    -0.134 OA 
ENDBRANCH  13  23
TORSDOF 4
ENDMDL
MODEL       77
REMARK 921   NORMALIZED FREE ENERGY PREDICTED BY IDOCK:   -4.98 KCAL/MOL
REMARK 922        TOTAL FREE ENERGY PREDICTED BY IDOCK:   -6.51 KCAL/MOL
REMARK 923 INTER-LIGAND FREE ENERGY PREDICTED BY IDOCK:   -6.11 KCAL/MOL
REMARK 924 INTRA-LIGAND FREE ENERGY PREDICTED BY IDOCK:   -0.40 KCAL/MOL
REMARK 927      BINDING AFFINITY PREDICTED BY RF-SCORE:    0.00 PKD
ROOT
HETATM    1  C   UNL     1      -8.968  12.960  66.494  1.00  0.00    -0.078 C  
HETATM    2  N   UNL     1      -9.176  11.498  66.545  1.00  0.00    -0.189 N  
HETATM    3  C   UNL     1     -10.185  10.950  65.623  1.00  0.00    -0.263 C  
HETATM    4  N   UNL     1      -9.957   9.506  65.523  1.00  0.00    -0.399 NA 
HETATM    5 CL   UNL     1     -10.325   4.819  67.447  1.00  0.00    -0.136 Cl 
HETATM    6  C   UNL     1      -9.992   8.734  66.682  1.00  0.00    -0.285 A  
HETATM    7  C   UNL     1      -9.702   8.452  69.095  1.00  0.00    -0.171 A  
HETATM    8  H   UNL     1      -9.775   9.072  64.618  1.00  0.00     0.000 HD 
HETATM    9  C   UNL     1     -10.128   7.341  66.582  1.00  0.00    -0.238 A  
HETATM   10  O   UNL     1     -10.776  11.549  68.524  1.00  0.00    -0.190 OA 
HETATM   11  O   UNL     1      -8.311  11.186  68.921  1.00  0.00    -0.150 OA 
HETATM   12  C   UNL     1     -10.094   6.509  67.717  1.00  0.00    -0.148 A  
HETATM   13  C   UNL     1      -9.886   7.072  68.979  1.00  0.00    -0.154 A  
HETATM   14  S   UNL     1      -9.505  10.978  68.131  1.00  0.00    -0.179 S  
HETATM   15  C   UNL     1      -9.749   9.252  67.950  1.00  0.00    -0.153 A  
ENDROOT
BRANCH   3  16
HETATM   16  C   UNL     1     -10.100  11.557  64.195  1.00  0.00    -0.307 C  
BRANCH  16  17
HETATM   17  S   UNL     1     -11.780  11.885  63.506  1.00  0.00    -0.389 SA 
BRANCH  17  18
HETATM   18  C   UNL     1     -12.013  13.632  64.038  1.00  0.00    -0.431 C  
HETATM   19  F   UNL     1     -12.599  12.759  66.203  1.00  0.00    -0.410 F  
HETATM   20  C   UNL     1     -12.426  13.890  65.486  1.00  0.00    -0.511 C  
HETATM   21  F   UNL     1     -13.584  14.586  65.544  1.00  0.00    -0.284 F  
HETATM   22  F   UNL     1     -11.481  14.623  66.120  1.00  0.00    -0.334 F  
ENDBRANCH  17  18
ENDBRANCH  16  17
ENDBRANCH   3  16
BRANCH  13  23
HETATM   23  S   UNL     1      -9.800   6.101  70.449  1.00  0.00    -0.181 S  
HETATM   24  H2  UNL     1      -8.565   8.008  71.351  1.00  0.00     0.000 HD 
HETATM   25  H1  UNL     1      -8.894   6.514  72.364  1.00  0.00     0.000 HD 
HETATM   26  N   UNL     1      -8.945   7.075  71.514  1.00  0.00    -0.139 N  
HETATM   27  O   UNL     1     -11.125   5.935  70.988  1.00  0.00    -0.284 OA 
HETATM   28  O   UNL     1      -8.925   4.974  70.210  1.00  0.00    -0.111 OA 
ENDBRANCH  13  23
TORSDOF 4
ENDMDL
MODEL       78
REMARK 921   NORMALIZED FREE ENERGY PREDICTED BY IDOCK:   -4.98 KCAL/MOL
REMARK 922        TOTAL FREE ENERGY PREDICTED BY IDOCK:   -6.50 KCAL/MOL
REMARK 923 INTER-LIGAND FREE ENERGY PREDICTED BY IDOCK:   -6.12 KCAL/MOL
REMARK 924 INTRA-LIGAND FREE ENERGY PREDICTED BY IDOCK:   -0.38 KCAL/MOL
REMARK 927      BINDING AFFINITY PREDICTED BY RF-SCORE:    0.00 PKD
ROOT
HETATM    1  C   UNL     1      -9.713  10.184  68.673  1.00  0.00    -0.163 C  
HETATM    2  N   UNL     1      -9.892  11.650  68.701  1.00  0.00    -0.193 N  
HETATM    3  C   UNL     1     -11.247  12.149  68.407  1.00  0.00    -0.265 C  
HETATM    4  N   UNL     1     -11.321  13.534  68.878  1.00  0.00    -0.271 NA 
HETATM    5 CL   UNL     1     -10.248  18.467  68.317  1.00  0.00    -0.404 Cl 
HETATM    6  C   UNL     1     -10.419  14.468  68.376  1.00  0.00    -0.246 A  
HETATM    7  C   UNL     1      -8.246  15.075  67.427  1.00  0.00    -0.215 A  
HETATM    8  H   UNL     1     -12.024  13.811  69.564  1.00  0.00     0.000 HD 
HETATM    9  C   UNL     1     -10.682  15.838  68.530  1.00  0.00    -0.274 A  
HETATM   10  O   UNL     1      -9.060  12.042  66.328  1.00  0.00    -0.211 OA 
HETATM   11  O   UNL     1      -7.450  12.228  68.261  1.00  0.00    -0.102 OA 
HETATM   12  C   UNL     1      -9.768  16.822  68.108  1.00  0.00    -0.247 A  
HETATM   13  C   UNL     1      -8.548  16.434  67.548  1.00  0.00    -0.173 A  
HETATM   14  S   UNL     1      -8.765  12.427  67.691  1.00  0.00    -0.190 S  
HETATM   15  C   UNL     1      -9.178  14.123  67.849  1.00  0.00    -0.196 A  
ENDROOT
BRANCH   3  16
HETATM   16  C   UNL     1     -12.363  11.332  69.117  1.00  0.00    -0.048 C  
BRANCH  16  17
HETATM   17  S   UNL     1     -12.120  11.315  70.945  1.00  0.00    -0.220 SA 
BRANCH  17  18
HETATM   18  C   UNL     1     -13.502  12.412  71.467  1.00  0.00     0.107 C  
HETATM   19  F   UNL     1     -11.873  14.177  71.620  1.00  0.00    -0.360 F  
HETATM   20  C   UNL     1     -13.182  13.877  71.760  1.00  0.00    -0.376 C  
HETATM   21  F   UNL     1     -13.539  14.209  73.022  1.00  0.00    -0.559 F  
HETATM   22  F   UNL     1     -13.868  14.685  70.919  1.00  0.00    -0.404 F  
ENDBRANCH  17  18
ENDBRANCH  16  17
ENDBRANCH   3  16
BRANCH  13  23
HETATM   23  S   UNL     1      -7.334  17.599  67.020  1.00  0.00    -0.203 S  
HETATM   24  H2  UNL     1      -5.835  15.668  66.999  1.00  0.00     0.000 HD 
HETATM   25  H1  UNL     1      -5.247  17.343  66.535  1.00  0.00     0.000 HD 
HETATM   26  N   UNL     1      -5.949  16.669  66.840  1.00  0.00    -0.156 N  
HETATM   27  O   UNL     1      -7.688  18.097  65.716  1.00  0.00    -0.523 OA 
HETATM   28  O   UNL     1      -7.032  18.486  68.121  1.00  0.00    -0.225 OA 
ENDBRANCH  13  23
TORSDOF 4
ENDMDL
MODEL       79
REMARK 921   NORMALIZED FREE ENERGY PREDICTED BY IDOCK:   -4.96 KCAL/MOL
REMARK 922        TOTAL FREE ENERGY PREDICTED BY IDOCK:   -6.48 KCAL/MOL
REMARK 923 INTER-LIGAND FREE ENERGY PREDICTED BY IDOCK:   -6.11 KCAL/MOL
REMARK 924 INTRA-LIGAND FREE ENERGY PREDICTED BY IDOCK:   -0.37 KCAL/MOL
REMARK 927      BINDING AFFINITY PREDICTED BY RF-SCORE:    0.00 PKD
ROOT
HETATM    1  C   UNL     1     -13.249  10.102  70.944  1.00  0.00    -0.289 C  
HETATM    2  N   UNL     1     -11.796   9.844  71.009  1.00  0.00    -0.345 N  
HETATM    3  C   UNL     1     -11.033  10.095  69.774  1.00  0.00    -0.280 C  
HETATM    4  N   UNL     1      -9.617  10.188  70.139  1.00  0.00    -0.396 NA 
HETATM    5 CL   UNL     1      -5.230   7.993  71.458  1.00  0.00    -0.034 Cl 
HETATM    6  C   UNL     1      -9.014   9.112  70.787  1.00  0.00    -0.242 A  
HETATM    7  C   UNL     1      -9.100   7.152  72.249  1.00  0.00    -0.148 A  
HETATM    8  H   UNL     1      -9.080  11.028  69.922  1.00  0.00     0.000 HD 
HETATM    9  C   UNL     1      -7.614   9.026  70.830  1.00  0.00    -0.131 A  
HETATM   10  O   UNL     1     -11.972   7.341  70.583  1.00  0.00    -0.291 OA 
HETATM   11  O   UNL     1     -11.900   8.201  72.953  1.00  0.00    -0.352 OA 
HETATM   12  C   UNL     1      -6.955   8.001  71.535  1.00  0.00    -0.060 A  
HETATM   13  C   UNL     1      -7.705   7.058  72.241  1.00  0.00    -0.091 A  
HETATM   14  S   UNL     1     -11.473   8.272  71.572  1.00  0.00    -0.291 S  
HETATM   15  C   UNL     1      -9.724   8.177  71.533  1.00  0.00    -0.176 A  
ENDROOT
BRANCH   3  16
HETATM   16  C   UNL     1     -11.440  11.417  69.064  1.00  0.00    -0.300 C  
BRANCH  16  17
HETATM   17  S   UNL     1     -11.047  11.356  67.263  1.00  0.00    -0.308 SA 
BRANCH  17  18
HETATM   18  C   UNL     1     -11.394  13.102  66.796  1.00  0.00    -0.316 C  
HETATM   19  F   UNL     1     -12.495  12.225  64.843  1.00  0.00    -0.482 F  
HETATM   20  C   UNL     1     -12.176  13.357  65.507  1.00  0.00    -0.455 C  
HETATM   21  F   UNL     1     -11.471  14.138  64.658  1.00  0.00    -0.340 F  
HETATM   22  F   UNL     1     -13.336  13.999  65.781  1.00  0.00    -0.501 F  
ENDBRANCH  17  18
ENDBRANCH  16  17
ENDBRANCH   3  16
BRANCH  13  23
HETATM   23  S   UNL     1      -6.960   5.759  73.174  1.00  0.00    -0.085 S  
HETATM   24  H2  UNL     1      -9.240   5.328  73.945  1.00  0.00     0.000 HD 
HETATM   25  H1  UNL     1      -7.825   4.313  74.523  1.00  0.00     0.000 HD 
HETATM   26  N   UNL     1      -8.256   5.063  73.983  1.00  0.00    -0.104 N  
HETATM   27  O   UNL     1      -6.435   4.767  72.273  1.00  0.00    -0.034 OA 
HETATM   28  O   UNL     1      -6.154   6.344  74.222  1.00  0.00    -0.063 OA 
ENDBRANCH  13  23
TORSDOF 4
ENDMDL
MODEL       80
REMARK 921   NORMALIZED FREE ENERGY PREDICTED BY IDOCK:   -4.95 KCAL/MOL
REMARK 922        TOTAL FREE ENERGY PREDICTED BY IDOCK:   -6.47 KCAL/MOL
REMARK 923 INTER-LIGAND FREE ENERGY PREDICTED BY IDOCK:   -6.54 KCAL/MOL
REMARK 924 INTRA-LIGAND FREE ENERGY PREDICTED BY IDOCK:    0.07 KCAL/MOL
REMARK 927      BINDING AFFINITY PREDICTED BY RF-SCORE:    0.00 PKD
ROOT
HETATM    1  C   UNL     1      -9.495  12.198  68.280  1.00  0.00    -0.204 C  
HETATM    2  N   UNL     1      -9.832  13.517  67.706  1.00  0.00    -0.227 N  
HETATM    3  C   UNL     1     -10.192  13.535  66.278  1.00  0.00    -0.299 C  
HETATM    4  N   UNL     1     -10.872  14.805  66.008  1.00  0.00    -0.310 NA 
HETATM    5 CL   UNL     1     -10.741  19.821  65.220  1.00  0.00    -0.247 Cl 
HETATM    6  C   UNL     1     -10.210  15.998  66.283  1.00  0.00    -0.316 A  
HETATM    7  C   UNL     1      -8.582  17.321  67.544  1.00  0.00    -0.213 A  
HETATM    8  H   UNL     1     -11.818  14.814  65.624  1.00  0.00     0.000 HD 
HETATM    9  C   UNL     1     -10.678  17.195  65.721  1.00  0.00    -0.140 A  
HETATM   10  O   UNL     1      -7.423  14.215  67.273  1.00  0.00    -0.167 OA 
HETATM   11  O   UNL     1      -8.550  14.893  69.425  1.00  0.00    -0.152 OA 
HETATM   12  C   UNL     1     -10.092  18.439  66.026  1.00  0.00    -0.279 A  
HETATM   13  C   UNL     1      -9.034  18.496  66.937  1.00  0.00    -0.280 A  
HETATM   14  S   UNL     1      -8.596  14.649  68.000  1.00  0.00    -0.171 S  
HETATM   15  C   UNL     1      -9.181  16.102  67.214  1.00  0.00    -0.208 A  
ENDROOT
BRANCH   3  16
HETATM   16  C   UNL     1     -11.146  12.376  65.875  1.00  0.00    -0.313 C  
BRANCH  16  17
HETATM   17  S   UNL     1     -11.512  12.408  64.067  1.00  0.00    -0.450 SA 
BRANCH  17  18
HETATM   18  C   UNL     1      -9.896  11.836  63.398  1.00  0.00    -0.384 C  
HETATM   19  F   UNL     1     -10.174   9.870  64.759  1.00  0.00    -0.385 F  
HETATM   20  C   UNL     1      -9.368  10.479  63.864  1.00  0.00    -0.275 C  
HETATM   21  F   UNL     1      -8.149  10.603  64.437  1.00  0.00    -0.157 F  
HETATM   22  F   UNL     1      -9.237   9.640  62.810  1.00  0.00    -0.253 F  
ENDBRANCH  17  18
ENDBRANCH  16  17
ENDBRANCH   3  16
BRANCH  13  23
HETATM   23  S   UNL     1      -8.262  20.013  67.398  1.00  0.00    -0.341 S  
HETATM   24  H2  UNL     1     -10.544  20.887  67.440  1.00  0.00     0.000 HD 
HETATM   25  H1  UNL     1      -9.104  21.951  67.837  1.00  0.00     0.000 HD 
HETATM   26  N   UNL     1      -9.550  21.074  67.570  1.00  0.00    -0.266 N  
HETATM   27  O   UNL     1      -7.654  19.862  68.695  1.00  0.00    -0.298 OA 
HETATM   28  O   UNL     1      -7.525  20.523  66.263  1.00  0.00    -0.209 OA 
ENDBRANCH  13  23
TORSDOF 4
ENDMDL
MODEL       81
REMARK 921   NORMALIZED FREE ENERGY PREDICTED BY IDOCK:   -4.94 KCAL/MOL
REMARK 922        TOTAL FREE ENERGY PREDICTED BY IDOCK:   -6.46 KCAL/MOL
REMARK 923 INTER-LIGAND FREE ENERGY PREDICTED BY IDOCK:   -6.04 KCAL/MOL
REMARK 924 INTRA-LIGAND FREE ENERGY PREDICTED BY IDOCK:   -0.42 KCAL/MOL
REMARK 927      BINDING AFFINITY PREDICTED BY RF-SCORE:    0.00 PKD
ROOT
HETATM    1  C   UNL     1     -12.091  13.929  66.265  1.00  0.00    -0.451 C  
HETATM    2  N   UNL     1     -10.823  14.243  66.954  1.00  0.00    -0.294 N  
HETATM    3  C   UNL     1     -10.559  13.505  68.202  1.00  0.00    -0.245 C  
HETATM    4  N   UNL     1      -9.130  13.634  68.500  1.00  0.00    -0.324 NA 
HETATM    5 CL   UNL     1      -5.187  16.345  70.204  1.00  0.00    -0.164 Cl 
HETATM    6  C   UNL     1      -8.582  14.906  68.646  1.00  0.00    -0.168 A  
HETATM    7  C   UNL     1      -8.535  17.304  68.159  1.00  0.00    -0.238 A  
HETATM    8  H   UNL     1      -8.545  12.804  68.598  1.00  0.00     0.000 HD 
HETATM    9  C   UNL     1      -7.332  15.054  69.266  1.00  0.00    -0.184 A  
HETATM   10  O   UNL     1     -11.706  16.299  68.167  1.00  0.00    -0.192 OA 
HETATM   11  O   UNL     1     -10.535  16.565  65.948  1.00  0.00    -0.337 OA 
HETATM   12  C   UNL     1      -6.699  16.308  69.372  1.00  0.00    -0.209 A  
HETATM   13  C   UNL     1      -7.311  17.436  68.821  1.00  0.00    -0.257 A  
HETATM   14  S   UNL     1     -10.669  15.913  67.233  1.00  0.00    -0.278 S  
HETATM   15  C   UNL     1      -9.140  16.047  68.077  1.00  0.00    -0.189 A  
ENDROOT
BRANCH   3  16
HETATM   16  C   UNL     1     -10.901  11.992  68.100  1.00  0.00    -0.221 C  
BRANCH  16  17
HETATM   17  S   UNL     1     -10.162  11.044  69.499  1.00  0.00     0.119 SA 
BRANCH  17  18
HETATM   18  C   UNL     1     -11.518   9.844  69.830  1.00  0.00    -0.179 C  
HETATM   19  F   UNL     1     -12.151  11.265  71.668  1.00  0.00    -0.265 F  
HETATM   20  C   UNL     1     -12.464  10.137  70.994  1.00  0.00    -0.375 C  
HETATM   21  F   UNL     1     -12.464   9.121  71.886  1.00  0.00    -0.355 F  
HETATM   22  F   UNL     1     -13.732  10.281  70.543  1.00  0.00    -0.306 F  
ENDBRANCH  17  18
ENDBRANCH  16  17
ENDBRANCH   3  16
BRANCH  13  23
HETATM   23  S   UNL     1      -6.576  19.039  68.883  1.00  0.00    -0.287 S  
HETATM   24  H2  UNL     1      -8.332  19.644  67.294  1.00  0.00     0.000 HD 
HETATM   25  H1  UNL     1      -7.098  20.873  67.873  1.00  0.00     0.000 HD 
HETATM   26  N   UNL     1      -7.523  19.947  67.837  1.00  0.00    -0.287 N  
HETATM   27  O   UNL     1      -6.746  19.589  70.203  1.00  0.00    -0.175 OA 
HETATM   28  O   UNL     1      -5.282  18.981  68.240  1.00  0.00    -0.179 OA 
ENDBRANCH  13  23
TORSDOF 4
ENDMDL
MODEL       82
REMARK 921   NORMALIZED FREE ENERGY PREDICTED BY IDOCK:   -4.93 KCAL/MOL
REMARK 922        TOTAL FREE ENERGY PREDICTED BY IDOCK:   -6.44 KCAL/MOL
REMARK 923 INTER-LIGAND FREE ENERGY PREDICTED BY IDOCK:   -5.96 KCAL/MOL
REMARK 924 INTRA-LIGAND FREE ENERGY PREDICTED BY IDOCK:   -0.48 KCAL/MOL
REMARK 927      BINDING AFFINITY PREDICTED BY RF-SCORE:    0.00 PKD
ROOT
HETATM    1  C   UNL     1     -13.399  12.350  71.922  1.00  0.00    -0.349 C  
HETATM    2  N   UNL     1     -12.328  11.537  71.310  1.00  0.00    -0.267 N  
HETATM    3  C   UNL     1     -12.007  11.833  69.903  1.00  0.00    -0.332 C  
HETATM    4  N   UNL     1     -10.696  11.247  69.615  1.00  0.00    -0.454 NA 
HETATM    5 CL   UNL     1      -7.769   7.220  68.605  1.00  0.00    -0.117 Cl 
HETATM    6  C   UNL     1     -10.511   9.879  69.803  1.00  0.00    -0.261 A  
HETATM    7  C   UNL     1     -11.034   7.765  70.918  1.00  0.00    -0.260 A  
HETATM    8  H   UNL     1      -9.929  11.832  69.281  1.00  0.00     0.000 HD 
HETATM    9  C   UNL     1      -9.407   9.243  69.214  1.00  0.00    -0.160 A  
HETATM   10  O   UNL     1     -13.825   9.565  70.722  1.00  0.00    -0.087 OA 
HETATM   11  O   UNL     1     -12.550   9.559  72.899  1.00  0.00     0.115 OA 
HETATM   12  C   UNL     1      -9.132   7.879  69.435  1.00  0.00    -0.145 A  
HETATM   13  C   UNL     1      -9.956   7.139  70.286  1.00  0.00    -0.187 A  
HETATM   14  S   UNL     1     -12.638   9.875  71.490  1.00  0.00    -0.449 S  
HETATM   15  C   UNL     1     -11.284   9.118  70.673  1.00  0.00    -0.270 A  
ENDROOT
BRANCH   3  16
HETATM   16  C   UNL     1     -11.937  13.357  69.601  1.00  0.00    -0.324 C  
BRANCH  16  17
HETATM   17  S   UNL     1     -10.473  13.764  68.556  1.00  0.00    -0.241 SA 
BRANCH  17  18
HETATM   18  C   UNL     1      -9.820  15.224  69.468  1.00  0.00    -0.226 C  
HETATM   19  F   UNL     1     -11.535  16.511  68.374  1.00  0.00    -0.360 F  
HETATM   20  C   UNL     1     -10.514  16.569  69.256  1.00  0.00    -0.326 C  
HETATM   21  F   UNL     1      -9.643  17.499  68.805  1.00  0.00    -0.271 F  
HETATM   22  F   UNL     1     -11.023  17.023  70.425  1.00  0.00    -0.267 F  
ENDBRANCH  17  18
ENDBRANCH  16  17
ENDBRANCH   3  16
BRANCH  13  23
HETATM   23  S   UNL     1      -9.668   5.436  70.640  1.00  0.00    -0.193 S  
HETATM   24  H2  UNL     1     -11.428   5.731  72.311  1.00  0.00     0.000 HD 
HETATM   25  H1  UNL     1     -10.591   4.115  72.076  1.00  0.00     0.000 HD 
HETATM   26  N   UNL     1     -10.758   5.100  71.871  1.00  0.00    -0.189 N  
HETATM   27  O   UNL     1     -10.050   4.642  69.501  1.00  0.00    -0.222 OA 
HETATM   28  O   UNL     1      -8.369   5.305  71.263  1.00  0.00    -0.119 OA 
ENDBRANCH  13  23
TORSDOF 4
ENDMDL
MODEL       83
REMARK 921   NORMALIZED FREE ENERGY PREDICTED BY IDOCK:   -4.92 KCAL/MOL
REMARK 922        TOTAL FREE ENERGY PREDICTED BY IDOCK:   -6.43 KCAL/MOL
REMARK 923 INTER-LIGAND FREE ENERGY PREDICTED BY IDOCK:   -6.32 KCAL/MOL
REMARK 924 INTRA-LIGAND FREE ENERGY PREDICTED BY IDOCK:   -0.11 KCAL/MOL
REMARK 927      BINDING AFFINITY PREDICTED BY RF-SCORE:    0.00 PKD
ROOT
HETATM    1  C   UNL     1     -10.960  10.869  65.213  1.00  0.00     0.037 C  
HETATM    2  N   UNL     1     -10.740  12.077  66.036  1.00  0.00    -0.269 N  
HETATM    3  C   UNL     1     -11.409  12.102  67.348  1.00  0.00    -0.326 C  
HETATM    4  N   UNL     1     -10.760  13.139  68.156  1.00  0.00    -0.235 NA 
HETATM    5 CL   UNL     1     -10.020  18.025  69.328  1.00  0.00    -0.184 Cl 
HETATM    6  C   UNL     1     -10.731  14.447  67.680  1.00  0.00    -0.263 A  
HETATM    7  C   UNL     1     -10.712  16.080  65.858  1.00  0.00    -0.287 A  
HETATM    8  H   UNL     1     -10.336  12.905  69.054  1.00  0.00     0.000 HD 
HETATM    9  C   UNL     1     -10.443  15.499  68.564  1.00  0.00    -0.238 A  
HETATM   10  O   UNL     1     -12.546  13.472  64.909  1.00  0.00    -0.561 OA 
HETATM   11  O   UNL     1     -10.162  13.624  64.096  1.00  0.00    -0.297 OA 
HETATM   12  C   UNL     1     -10.328  16.830  68.121  1.00  0.00    -0.318 A  
HETATM   13  C   UNL     1     -10.471  17.118  66.761  1.00  0.00    -0.263 A  
HETATM   14  S   UNL     1     -11.123  13.490  65.170  1.00  0.00    -0.330 S  
HETATM   15  C   UNL     1     -10.829  14.770  66.331  1.00  0.00    -0.322 A  
ENDROOT
BRANCH   3  16
HETATM   16  C   UNL     1     -11.305  10.752  68.112  1.00  0.00    -0.308 C  
BRANCH  16  17
HETATM   17  S   UNL     1     -10.019  10.829  69.433  1.00  0.00    -0.038 SA 
BRANCH  17  18
HETATM   18  C   UNL     1     -10.299   9.205  70.253  1.00  0.00    -0.214 C  
HETATM   19  F   UNL     1      -7.909   9.068  70.507  1.00  0.00    -0.075 F  
HETATM   20  C   UNL     1      -9.077   8.440  70.761  1.00  0.00    -0.156 C  
HETATM   21  F   UNL     1      -9.006   7.212  70.200  1.00  0.00    -0.142 F  
HETATM   22  F   UNL     1      -9.154   8.270  72.101  1.00  0.00    -0.182 F  
ENDBRANCH  17  18
ENDBRANCH  16  17
ENDBRANCH   3  16
BRANCH  13  23
HETATM   23  S   UNL     1     -10.312  18.752  66.117  1.00  0.00    -0.408 S  
HETATM   24  H2  UNL     1     -11.794  19.367  67.961  1.00  0.00     0.000 HD 
HETATM   25  H1  UNL     1     -11.165  20.621  66.779  1.00  0.00     0.000 HD 
HETATM   26  N   UNL     1     -11.256  19.677  67.151  1.00  0.00    -0.166 N  
HETATM   27  O   UNL     1      -8.950  19.194  66.269  1.00  0.00    -0.337 OA 
HETATM   28  O   UNL     1     -10.999  18.819  64.846  1.00  0.00    -0.439 OA 
ENDBRANCH  13  23
TORSDOF 4
ENDMDL
MODEL       84
REMARK 921   NORMALIZED FREE ENERGY PREDICTED BY IDOCK:   -4.92 KCAL/MOL
REMARK 922        TOTAL FREE ENERGY PREDICTED BY IDOCK:   -6.43 KCAL/MOL
REMARK 923 INTER-LIGAND FREE ENERGY PREDICTED BY IDOCK:   -6.05 KCAL/MOL
REMARK 924 INTRA-LIGAND FREE ENERGY PREDICTED BY IDOCK:   -0.37 KCAL/MOL
REMARK 927      BINDING AFFINITY PREDICTED BY RF-SCORE:    0.00 PKD
ROOT
HETATM    1  C   UNL     1      -7.652   9.216  68.002  1.00  0.00    -0.085 C  
HETATM    2  N   UNL     1      -8.448  10.433  68.262  1.00  0.00    -0.120 N  
HETATM    3  C   UNL     1      -9.900  10.241  68.418  1.00  0.00    -0.156 C  
HETATM    4  N   UNL     1     -10.439  11.443  69.062  1.00  0.00    -0.309 NA 
HETATM    5 CL   UNL     1     -11.906  16.301  68.853  1.00  0.00    -0.197 Cl 
HETATM    6  C   UNL     1     -10.247  12.680  68.452  1.00  0.00    -0.232 A  
HETATM    7  C   UNL     1      -8.975  14.208  67.026  1.00  0.00    -0.251 A  
HETATM    8  H   UNL     1     -10.947  11.373  69.944  1.00  0.00     0.000 HD 
HETATM    9  C   UNL     1     -11.034  13.774  68.845  1.00  0.00    -0.281 A  
HETATM   10  O   UNL     1      -8.639  11.126  65.821  1.00  0.00    -0.176 OA 
HETATM   11  O   UNL     1      -6.781  12.068  67.244  1.00  0.00    -0.121 OA 
HETATM   12  C   UNL     1     -10.830  15.062  68.314  1.00  0.00    -0.259 A  
HETATM   13  C   UNL     1      -9.799  15.274  67.396  1.00  0.00    -0.217 A  
HETATM   14  S   UNL     1      -8.150  11.626  67.088  1.00  0.00    -0.171 S  
HETATM   15  C   UNL     1      -9.208  12.939  67.565  1.00  0.00    -0.192 A  
ENDROOT
BRANCH   3  16
HETATM   16  C   UNL     1     -10.262   9.012  69.299  1.00  0.00    -0.205 C  
BRANCH  16  17
HETATM   17  S   UNL     1     -11.170   9.525  70.821  1.00  0.00    -0.345 SA 
BRANCH  17  18
HETATM   18  C   UNL     1     -10.197   8.625  72.098  1.00  0.00    -0.323 C  
HETATM   19  F   UNL     1     -12.017   7.053  72.194  1.00  0.00    -0.299 F  
HETATM   20  C   UNL     1     -10.796   7.349  72.687  1.00  0.00    -0.303 C  
HETATM   21  F   UNL     1     -10.915   7.443  74.030  1.00  0.00    -0.284 F  
HETATM   22  F   UNL     1      -9.994   6.290  72.424  1.00  0.00    -0.172 F  
ENDBRANCH  17  18
ENDBRANCH  16  17
ENDBRANCH   3  16
BRANCH  13  23
HETATM   23  S   UNL     1      -9.456  16.860  66.705  1.00  0.00    -0.279 S  
HETATM   24  H2  UNL     1      -7.305  15.868  66.102  1.00  0.00     0.000 HD 
HETATM   25  H1  UNL     1      -7.707  17.609  65.685  1.00  0.00     0.000 HD 
HETATM   26  N   UNL     1      -7.906  16.692  66.084  1.00  0.00    -0.268 N  
HETATM   27  O   UNL     1     -10.340  17.096  65.593  1.00  0.00    -0.557 OA 
HETATM   28  O   UNL     1      -9.311  17.814  67.782  1.00  0.00    -0.251 OA 
ENDBRANCH  13  23
TORSDOF 4
ENDMDL
MODEL       85
REMARK 921   NORMALIZED FREE ENERGY PREDICTED BY IDOCK:   -4.91 KCAL/MOL
REMARK 922        TOTAL FREE ENERGY PREDICTED BY IDOCK:   -6.41 KCAL/MOL
REMARK 923 INTER-LIGAND FREE ENERGY PREDICTED BY IDOCK:   -5.77 KCAL/MOL
REMARK 924 INTRA-LIGAND FREE ENERGY PREDICTED BY IDOCK:   -0.65 KCAL/MOL
REMARK 927      BINDING AFFINITY PREDICTED BY RF-SCORE:    0.00 PKD
ROOT
HETATM    1  C   UNL     1     -12.205  13.688  67.728  1.00  0.00    -0.166 C  
HETATM    2  N   UNL     1     -11.125  12.840  68.275  1.00  0.00    -0.242 N  
HETATM    3  C   UNL     1      -9.770  13.093  67.755  1.00  0.00    -0.218 C  
HETATM    4  N   UNL     1      -8.818  12.477  68.682  1.00  0.00    -0.383 NA 
HETATM    5 CL   UNL     1      -6.474   8.374  70.546  1.00  0.00    -0.035 Cl 
HETATM    6  C   UNL     1      -8.914  11.112  68.941  1.00  0.00    -0.081 A  
HETATM    7  C   UNL     1     -10.198   9.037  69.131  1.00  0.00    -0.213 A  
HETATM    8  H   UNL     1      -8.094  13.039  69.131  1.00  0.00     0.000 HD 
HETATM    9  C   UNL     1      -7.830  10.440  69.528  1.00  0.00    -0.161 A  
HETATM   10  O   UNL     1     -11.536  10.880  66.706  1.00  0.00    -0.285 OA 
HETATM   11  O   UNL     1     -12.629  10.908  68.979  1.00  0.00    -0.350 OA 
HETATM   12  C   UNL     1      -7.902   9.079  69.879  1.00  0.00    -0.090 A  
HETATM   13  C   UNL     1      -9.091   8.376  69.671  1.00  0.00    -0.153 A  
HETATM   14  S   UNL     1     -11.500  11.189  68.119  1.00  0.00    -0.289 S  
HETATM   15  C   UNL     1     -10.092  10.388  68.786  1.00  0.00    -0.187 A  
ENDROOT
BRANCH   3  16
HETATM   16  C   UNL     1      -9.433  14.607  67.645  1.00  0.00    -0.205 C  
BRANCH  16  17
HETATM   17  S   UNL     1      -9.009  15.320  69.293  1.00  0.00    -0.218 SA 
BRANCH  17  18
HETATM   18  C   UNL     1     -10.503  16.353  69.593  1.00  0.00    -0.278 C  
HETATM   19  F   UNL     1     -11.256  14.605  71.067  1.00  0.00    -0.285 F  
HETATM   20  C   UNL     1     -11.558  15.821  70.562  1.00  0.00    -0.375 C  
HETATM   21  F   UNL     1     -12.764  15.720  69.959  1.00  0.00    -0.393 F  
HETATM   22  F   UNL     1     -11.698  16.664  71.612  1.00  0.00    -0.475 F  
ENDBRANCH  17  18
ENDBRANCH  16  17
ENDBRANCH   3  16
BRANCH  13  23
HETATM   23  S   UNL     1      -9.278   6.678  70.109  1.00  0.00    -0.155 S  
HETATM   24  H2  UNL     1     -11.576   6.976  69.329  1.00  0.00     0.000 HD 
HETATM   25  H1  UNL     1     -10.985   5.364  69.976  1.00  0.00     0.000 HD 
HETATM   26  N   UNL     1     -10.877   6.346  69.723  1.00  0.00    -0.278 N  
HETATM   27  O   UNL     1      -8.453   5.871  69.247  1.00  0.00    -0.111 OA 
HETATM   28  O   UNL     1      -9.223   6.560  71.549  1.00  0.00    -0.145 OA 
ENDBRANCH  13  23
TORSDOF 4
ENDMDL
MODEL       86
REMARK 921   NORMALIZED FREE ENERGY PREDICTED BY IDOCK:   -4.90 KCAL/MOL
REMARK 922        TOTAL FREE ENERGY PREDICTED BY IDOCK:   -6.40 KCAL/MOL
REMARK 923 INTER-LIGAND FREE ENERGY PREDICTED BY IDOCK:   -6.28 KCAL/MOL
REMARK 924 INTRA-LIGAND FREE ENERGY PREDICTED BY IDOCK:   -0.12 KCAL/MOL
REMARK 927      BINDING AFFINITY PREDICTED BY RF-SCORE:    0.00 PKD
ROOT
HETATM    1  C   UNL     1      -7.805  11.991  68.688  1.00  0.00    -0.091 C  
HETATM    2  N   UNL     1      -8.435  13.212  68.146  1.00  0.00    -0.167 N  
HETATM    3  C   UNL     1      -9.066  13.089  66.820  1.00  0.00    -0.210 C  
HETATM    4  N   UNL     1      -9.963  14.234  66.648  1.00  0.00    -0.267 NA 
HETATM    5 CL   UNL     1     -10.719  19.160  65.666  1.00  0.00    -0.443 Cl 
HETATM    6  C   UNL     1      -9.440  15.522  66.739  1.00  0.00    -0.237 A  
HETATM    7  C   UNL     1      -7.808  17.131  67.595  1.00  0.00    -0.187 A  
HETATM    8  H   UNL     1     -10.956  14.091  66.464  1.00  0.00     0.000 HD 
HETATM    9  C   UNL     1     -10.179  16.606  66.240  1.00  0.00    -0.344 A  
HETATM   10  O   UNL     1      -6.285  14.200  67.209  1.00  0.00    -0.301 OA 
HETATM   11  O   UNL     1      -7.057  14.857  69.519  1.00  0.00    -0.162 OA 
HETATM   12  C   UNL     1      -9.731  17.934  66.374  1.00  0.00    -0.316 A  
HETATM   13  C   UNL     1      -8.536  18.193  67.049  1.00  0.00    -0.254 A  
HETATM   14  S   UNL     1      -7.344  14.517  68.142  1.00  0.00    -0.145 S  
HETATM   15  C   UNL     1      -8.276  15.824  67.438  1.00  0.00    -0.173 A  
ENDROOT
BRANCH   3  16
HETATM   16  C   UNL     1      -9.901  11.787  66.662  1.00  0.00    -0.202 C  
BRANCH  16  17
HETATM   17  S   UNL     1     -11.702  12.117  66.885  1.00  0.00    -0.231 SA 
BRANCH  17  18
HETATM   18  C   UNL     1     -11.823  12.033  68.719  1.00  0.00    -0.302 C  
HETATM   19  F   UNL     1     -11.508   9.657  68.503  1.00  0.00    -0.128 F  
HETATM   20  C   UNL     1     -11.682  10.665  69.384  1.00  0.00    -0.273 C  
HETATM   21  F   UNL     1     -12.774  10.370  70.124  1.00  0.00    -0.347 F  
HETATM   22  F   UNL     1     -10.614  10.655  70.216  1.00  0.00    -0.302 F  
ENDBRANCH  17  18
ENDBRANCH  16  17
ENDBRANCH   3  16
BRANCH  13  23
HETATM   23  S   UNL     1      -7.917  19.827  67.289  1.00  0.00    -0.297 S  
HETATM   24  H2  UNL     1     -10.274  20.428  67.533  1.00  0.00     0.000 HD 
HETATM   25  H1  UNL     1      -8.946  21.686  67.666  1.00  0.00     0.000 HD 
HETATM   26  N   UNL     1      -9.303  20.742  67.528  1.00  0.00    -0.315 N  
HETATM   27  O   UNL     1      -7.157  19.873  68.511  1.00  0.00    -0.303 OA 
HETATM   28  O   UNL     1      -7.380  20.308  66.036  1.00  0.00    -0.279 OA 
ENDBRANCH  13  23
TORSDOF 4
ENDMDL
MODEL       87
REMARK 921   NORMALIZED FREE ENERGY PREDICTED BY IDOCK:   -4.86 KCAL/MOL
REMARK 922        TOTAL FREE ENERGY PREDICTED BY IDOCK:   -6.36 KCAL/MOL
REMARK 923 INTER-LIGAND FREE ENERGY PREDICTED BY IDOCK:   -5.86 KCAL/MOL
REMARK 924 INTRA-LIGAND FREE ENERGY PREDICTED BY IDOCK:   -0.50 KCAL/MOL
REMARK 927      BINDING AFFINITY PREDICTED BY RF-SCORE:    0.00 PKD
ROOT
HETATM    1  C   UNL     1      -7.316  16.537  66.846  1.00  0.00    -0.225 C  
HETATM    2  N   UNL     1      -7.982  15.219  66.797  1.00  0.00    -0.153 N  
HETATM    3  C   UNL     1      -9.428  15.208  67.077  1.00  0.00    -0.226 C  
HETATM    4  N   UNL     1      -9.965  13.936  66.587  1.00  0.00    -0.271 NA 
HETATM    5 CL   UNL     1     -10.638   8.926  67.085  1.00  0.00    -0.344 Cl 
HETATM    6  C   UNL     1      -9.438  12.745  67.081  1.00  0.00    -0.223 A  
HETATM    7  C   UNL     1      -7.610  11.425  68.031  1.00  0.00    -0.110 A  
HETATM    8  H   UNL     1     -10.713  13.923  65.894  1.00  0.00     0.000 HD 
HETATM    9  C   UNL     1     -10.150  11.549  66.906  1.00  0.00    -0.241 A  
HETATM   10  O   UNL     1      -7.354  14.541  69.169  1.00  0.00    -0.131 OA 
HETATM   11  O   UNL     1      -5.886  13.841  67.240  1.00  0.00    -0.326 OA 
HETATM   12  C   UNL     1      -9.629  10.307  67.318  1.00  0.00    -0.159 A  
HETATM   13  C   UNL     1      -8.355  10.251  67.890  1.00  0.00    -0.114 A  
HETATM   14  S   UNL     1      -7.195  14.094  67.801  1.00  0.00    -0.187 S  
HETATM   15  C   UNL     1      -8.159  12.642  67.618  1.00  0.00    -0.173 A  
ENDROOT
BRANCH   3  16
HETATM   16  C   UNL     1     -10.194  16.364  66.374  1.00  0.00    -0.316 C  
BRANCH  16  17
HETATM   17  S   UNL     1     -10.763  17.627  67.592  1.00  0.00    -0.233 SA 
BRANCH  17  18
HETATM   18  C   UNL     1     -10.544  19.160  66.597  1.00  0.00    -0.432 C  
HETATM   19  F   UNL     1      -8.556  19.563  67.894  1.00  0.00    -0.320 F  
HETATM   20  C   UNL     1      -9.324  20.034  66.889  1.00  0.00    -0.393 C  
HETATM   21  F   UNL     1      -9.697  21.291  67.220  1.00  0.00    -0.599 F  
HETATM   22  F   UNL     1      -8.536  20.120  65.792  1.00  0.00    -0.344 F  
ENDBRANCH  17  18
ENDBRANCH  16  17
ENDBRANCH   3  16
BRANCH  13  23
HETATM   23  S   UNL     1      -7.614   8.736  68.408  1.00  0.00    -0.096 S  
HETATM   24  H2  UNL     1      -5.697  10.144  68.971  1.00  0.00     0.000 HD 
HETATM   25  H1  UNL     1      -5.668   8.330  69.247  1.00  0.00     0.000 HD 
HETATM   26  N   UNL     1      -6.097   9.206  68.948  1.00  0.00    -0.043 N  
HETATM   27  O   UNL     1      -8.333   8.220  69.543  1.00  0.00    -0.118 OA 
HETATM   28  O   UNL     1      -7.347   7.928  67.239  1.00  0.00    -0.088 OA 
ENDBRANCH  13  23
TORSDOF 4
ENDMDL
MODEL       88
REMARK 921   NORMALIZED FREE ENERGY PREDICTED BY IDOCK:   -4.84 KCAL/MOL
REMARK 922        TOTAL FREE ENERGY PREDICTED BY IDOCK:   -6.33 KCAL/MOL
REMARK 923 INTER-LIGAND FREE ENERGY PREDICTED BY IDOCK:   -6.83 KCAL/MOL
REMARK 924 INTRA-LIGAND FREE ENERGY PREDICTED BY IDOCK:    0.50 KCAL/MOL
REMARK 927      BINDING AFFINITY PREDICTED BY RF-SCORE:    0.00 PKD
ROOT
HETATM    1  C   UNL     1      -8.896  20.031  66.316  1.00  0.00    -0.292 C  
HETATM    2  N   UNL     1      -8.641  18.616  66.654  1.00  0.00    -0.289 N  
HETATM    3  C   UNL     1      -7.638  17.919  65.830  1.00  0.00    -0.142 C  
HETATM    4  N   UNL     1      -7.233  16.711  66.554  1.00  0.00    -0.239 NA 
HETATM    5 CL   UNL     1      -8.131  11.947  68.071  1.00  0.00    -0.141 Cl 
HETATM    6  C   UNL     1      -8.204  15.775  66.903  1.00  0.00    -0.253 A  
HETATM    7  C   UNL     1     -10.500  15.166  67.490  1.00  0.00    -0.258 A  
HETATM    8  H   UNL     1      -6.254  16.557  66.797  1.00  0.00     0.000 HD 
HETATM    9  C   UNL     1      -7.815  14.478  67.269  1.00  0.00    -0.199 A  
HETATM   10  O   UNL     1     -10.607  17.691  65.327  1.00  0.00    -0.663 OA 
HETATM   11  O   UNL     1     -10.887  18.199  67.782  1.00  0.00    -0.385 OA 
HETATM   12  C   UNL     1      -8.749  13.517  67.702  1.00  0.00    -0.194 A  
HETATM   13  C   UNL     1     -10.097  13.865  67.805  1.00  0.00    -0.241 A  
HETATM   14  S   UNL     1     -10.086  17.719  66.677  1.00  0.00    -0.364 S  
HETATM   15  C   UNL     1      -9.550  16.094  67.055  1.00  0.00    -0.224 A  
ENDROOT
BRANCH   3  16
HETATM   16  C   UNL     1      -6.368  18.775  65.563  1.00  0.00    -0.278 C  
BRANCH  16  17
HETATM   17  S   UNL     1      -6.096  20.006  66.910  1.00  0.00    -0.175 SA 
BRANCH  17  18
HETATM   18  C   UNL     1      -5.372  18.915  68.204  1.00  0.00    -0.179 C  
HETATM   19  F   UNL     1      -7.360  19.341  69.492  1.00  0.00    -0.342 F  
HETATM   20  C   UNL     1      -6.186  18.675  69.475  1.00  0.00    -0.263 C  
HETATM   21  F   UNL     1      -5.492  19.049  70.573  1.00  0.00    -0.195 F  
HETATM   22  F   UNL     1      -6.473  17.358  69.606  1.00  0.00    -0.240 F  
ENDBRANCH  17  18
ENDBRANCH  16  17
ENDBRANCH   3  16
BRANCH  13  23
HETATM   23  S   UNL     1     -11.329  12.734  68.367  1.00  0.00    -0.321 S  
HETATM   24  H2  UNL     1     -12.281  14.693  69.477  1.00  0.00     0.000 HD 
HETATM   25  H1  UNL     1     -13.065  13.039  69.613  1.00  0.00     0.000 HD 
HETATM   26  N   UNL     1     -12.353  13.693  69.287  1.00  0.00    -0.227 N  
HETATM   27  O   UNL     1     -12.086  12.257  67.239  1.00  0.00    -0.548 OA 
HETATM   28  O   UNL     1     -10.727  11.830  69.322  1.00  0.00    -0.178 OA 
ENDBRANCH  13  23
TORSDOF 4
ENDMDL
MODEL       89
REMARK 921   NORMALIZED FREE ENERGY PREDICTED BY IDOCK:   -4.80 KCAL/MOL
REMARK 922        TOTAL FREE ENERGY PREDICTED BY IDOCK:   -6.28 KCAL/MOL
REMARK 923 INTER-LIGAND FREE ENERGY PREDICTED BY IDOCK:   -6.38 KCAL/MOL
REMARK 924 INTRA-LIGAND FREE ENERGY PREDICTED BY IDOCK:    0.10 KCAL/MOL
REMARK 927      BINDING AFFINITY PREDICTED BY RF-SCORE:    0.00 PKD
ROOT
HETATM    1  C   UNL     1      -9.261   8.575  66.828  1.00  0.00    -0.172 C  
HETATM    2  N   UNL     1      -9.654   9.900  67.349  1.00  0.00    -0.152 N  
HETATM    3  C   UNL     1     -10.884   9.945  68.159  1.00  0.00    -0.234 C  
HETATM    4  N   UNL     1     -10.878  11.206  68.906  1.00  0.00    -0.203 NA 
HETATM    5 CL   UNL     1     -11.519  16.241  69.100  1.00  0.00    -0.298 Cl 
HETATM    6  C   UNL     1     -10.801  12.406  68.203  1.00  0.00    -0.221 A  
HETATM    7  C   UNL     1     -10.107  13.732  66.268  1.00  0.00    -0.304 A  
HETATM    8  H   UNL     1     -10.929  11.205  69.925  1.00  0.00     0.000 HD 
HETATM    9  C   UNL     1     -11.143  13.606  68.845  1.00  0.00    -0.292 A  
HETATM   10  O   UNL     1     -10.833  10.658  65.225  1.00  0.00    -0.104 OA 
HETATM   11  O   UNL     1      -8.411  11.261  65.590  1.00  0.00    -0.109 OA 
HETATM   12  C   UNL     1     -11.012  14.854  68.205  1.00  0.00    -0.264 A  
HETATM   13  C   UNL     1     -10.497  14.911  66.908  1.00  0.00    -0.280 A  
HETATM   14  S   UNL     1      -9.749  11.050  66.100  1.00  0.00    -0.228 S  
HETATM   15  C   UNL     1     -10.257  12.509  66.927  1.00  0.00    -0.226 A  
ENDROOT
BRANCH   3  16
HETATM   16  C   UNL     1     -10.984   8.775  69.179  1.00  0.00     0.043 C  
BRANCH  16  17
HETATM   17  S   UNL     1     -10.269   9.249  70.812  1.00  0.00    -0.305 SA 
BRANCH  17  18
HETATM   18  C   UNL     1     -11.669   8.804  71.921  1.00  0.00    -0.359 C  
HETATM   19  F   UNL     1     -12.903  10.578  70.861  1.00  0.00    -0.385 F  
HETATM   20  C   UNL     1     -12.967   9.599  71.789  1.00  0.00    -0.420 C  
HETATM   21  F   UNL     1     -13.303  10.178  72.964  1.00  0.00     0.099 F  
HETATM   22  F   UNL     1     -13.985   8.780  71.435  1.00  0.00    -0.406 F  
ENDBRANCH  17  18
ENDBRANCH  16  17
ENDBRANCH   3  16
BRANCH  13  23
HETATM   23  S   UNL     1     -10.271  16.433  66.044  1.00  0.00    -0.361 S  
HETATM   24  H2  UNL     1      -7.889  15.961  66.321  1.00  0.00     0.000 HD 
HETATM   25  H1  UNL     1      -8.472  17.472  65.460  1.00  0.00     0.000 HD 
HETATM   26  N   UNL     1      -8.603  16.593  65.959  1.00  0.00    -0.271 N  
HETATM   27  O   UNL     1     -10.758  16.291  64.697  1.00  0.00    -0.670 OA 
HETATM   28  O   UNL     1     -10.694  17.519  66.900  1.00  0.00    -0.255 OA 
ENDBRANCH  13  23
TORSDOF 4
ENDMDL
MODEL       90
REMARK 921   NORMALIZED FREE ENERGY PREDICTED BY IDOCK:   -4.75 KCAL/MOL
REMARK 922        TOTAL FREE ENERGY PREDICTED BY IDOCK:   -6.22 KCAL/MOL
REMARK 923 INTER-LIGAND FREE ENERGY PREDICTED BY IDOCK:   -5.92 KCAL/MOL
REMARK 924 INTRA-LIGAND FREE ENERGY PREDICTED BY IDOCK:   -0.31 KCAL/MOL
REMARK 927      BINDING AFFINITY PREDICTED BY RF-SCORE:    0.00 PKD
ROOT
HETATM    1  C   UNL     1      -9.362   7.165  69.554  1.00  0.00    -0.148 C  
HETATM    2  N   UNL     1      -9.674   7.980  68.362  1.00  0.00    -0.154 N  
HETATM    3  C   UNL     1      -8.670   7.971  67.283  1.00  0.00    -0.131 C  
HETATM    4  N   UNL     1      -9.320   8.472  66.069  1.00  0.00    -0.309 NA 
HETATM    5 CL   UNL     1     -11.128  12.306  63.271  1.00  0.00    -0.454 Cl 
HETATM    6  C   UNL     1      -9.899   9.738  66.085  1.00  0.00    -0.263 A  
HETATM    7  C   UNL     1     -10.991  11.596  67.244  1.00  0.00    -0.318 A  
HETATM    8  H   UNL     1      -9.348   7.900  65.224  1.00  0.00     0.000 HD 
HETATM    9  C   UNL     1     -10.206  10.374  64.873  1.00  0.00    -0.330 A  
HETATM   10  O   UNL     1      -8.836  10.175  69.342  1.00  0.00    -0.170 OA 
HETATM   11  O   UNL     1     -11.278   9.572  69.538  1.00  0.00    -0.189 OA 
HETATM   12  C   UNL     1     -10.860  11.621  64.833  1.00  0.00    -0.301 A  
HETATM   13  C   UNL     1     -11.246  12.234  66.027  1.00  0.00    -0.332 A  
HETATM   14  S   UNL     1     -10.038   9.585  68.792  1.00  0.00    -0.195 S  
HETATM   15  C   UNL     1     -10.334  10.363  67.250  1.00  0.00    -0.228 A  
ENDROOT
BRANCH   3  16
HETATM   16  C   UNL     1      -8.108   6.553  66.986  1.00  0.00    -0.113 C  
BRANCH  16  17
HETATM   17  S   UNL     1      -8.436   6.056  65.240  1.00  0.00    -0.096 SA 
BRANCH  17  18
HETATM   18  C   UNL     1      -8.270   4.229  65.386  1.00  0.00    -0.109 C  
HETATM   19  F   UNL     1      -5.895   4.587  65.548  1.00  0.00    -0.019 F  
HETATM   20  C   UNL     1      -6.866   3.649  65.556  1.00  0.00    -0.053 C  
HETATM   21  F   UNL     1      -6.583   2.767  64.571  1.00  0.00    -0.030 F  
HETATM   22  F   UNL     1      -6.772   2.987  66.733  1.00  0.00    -0.037 F  
ENDBRANCH  17  18
ENDBRANCH  16  17
ENDBRANCH   3  16
BRANCH  13  23
HETATM   23  S   UNL     1     -12.095  13.780  66.068  1.00  0.00    -0.456 S  
HETATM   24  H2  UNL     1     -10.052  14.657  65.052  1.00  0.00     0.000 HD 
HETATM   25  H1  UNL     1     -11.481  15.746  65.423  1.00  0.00     0.000 HD 
HETATM   26  N   UNL     1     -10.991  14.852  65.399  1.00  0.00    -0.344 N  
HETATM   27  O   UNL     1     -13.228  13.723  65.181  1.00  0.00    -0.757 OA 
HETATM   28  O   UNL     1     -12.221  14.204  67.444  1.00  0.00    -0.380 OA 
ENDBRANCH  13  23
TORSDOF 4
ENDMDL
MODEL       91
REMARK 921   NORMALIZED FREE ENERGY PREDICTED BY IDOCK:   -4.74 KCAL/MOL
REMARK 922        TOTAL FREE ENERGY PREDICTED BY IDOCK:   -6.20 KCAL/MOL
REMARK 923 INTER-LIGAND FREE ENERGY PREDICTED BY IDOCK:   -5.34 KCAL/MOL
REMARK 924 INTRA-LIGAND FREE ENERGY PREDICTED BY IDOCK:   -0.86 KCAL/MOL
REMARK 927      BINDING AFFINITY PREDICTED BY RF-SCORE:    0.00 PKD
ROOT
HETATM    1  C   UNL     1      -8.600  12.522  67.462  1.00  0.00    -0.183 C  
HETATM    2  N   UNL     1      -8.750  13.989  67.543  1.00  0.00    -0.186 N  
HETATM    3  C   UNL     1      -9.184  14.670  66.311  1.00  0.00    -0.222 C  
HETATM    4  N   UNL     1      -9.664  16.003  66.687  1.00  0.00    -0.233 NA 
HETATM    5 CL   UNL     1      -8.766  20.806  68.076  1.00  0.00     0.100 Cl 
HETATM    6  C   UNL     1      -8.802  16.868  67.356  1.00  0.00    -0.204 A  
HETATM    7  C   UNL     1      -6.912  17.302  68.848  1.00  0.00    -0.233 A  
HETATM    8  H   UNL     1     -10.615  16.293  66.461  1.00  0.00     0.000 HD 
HETATM    9  C   UNL     1      -9.101  18.237  67.412  1.00  0.00    -0.253 A  
HETATM   10  O   UNL     1      -6.289  14.507  67.155  1.00  0.00    -0.219 OA 
HETATM   11  O   UNL     1      -7.166  14.313  69.512  1.00  0.00    -0.099 OA 
HETATM   12  C   UNL     1      -8.304  19.143  68.139  1.00  0.00    -0.316 A  
HETATM   13  C   UNL     1      -7.201  18.669  68.853  1.00  0.00    -0.285 A  
HETATM   14  S   UNL     1      -7.333  14.721  68.134  1.00  0.00    -0.134 S  
HETATM   15  C   UNL     1      -7.718  16.430  68.111  1.00  0.00    -0.160 A  
ENDROOT
BRANCH   3  16
HETATM   16  C   UNL     1     -10.334  13.927  65.577  1.00  0.00    -0.333 C  
BRANCH  16  17
HETATM   17  S   UNL     1     -11.985  14.518  66.150  1.00  0.00    -0.257 SA 
BRANCH  17  18
HETATM   18  C   UNL     1     -12.190  13.492  67.664  1.00  0.00    -0.175 C  
HETATM   19  F   UNL     1     -11.676  15.478  68.923  1.00  0.00    -0.307 F  
HETATM   20  C   UNL     1     -12.004  14.172  69.020  1.00  0.00    -0.340 C  
HETATM   21  F   UNL     1     -11.035  13.564  69.739  1.00  0.00    -0.173 F  
HETATM   22  F   UNL     1     -13.148  14.102  69.740  1.00  0.00    -0.163 F  
ENDBRANCH  17  18
ENDBRANCH  16  17
ENDBRANCH   3  16
BRANCH  13  23
HETATM   23  S   UNL     1      -6.167  19.728  69.813  1.00  0.00    -0.356 S  
HETATM   24  H2  UNL     1      -5.125  17.645  70.552  1.00  0.00     0.000 HD 
HETATM   25  H1  UNL     1      -4.547  19.275  71.164  1.00  0.00     0.000 HD 
HETATM   26  N   UNL     1      -5.144  18.663  70.609  1.00  0.00    -0.230 N  
HETATM   27  O   UNL     1      -5.354  20.525  68.931  1.00  0.00    -0.230 OA 
HETATM   28  O   UNL     1      -6.961  20.321  70.866  1.00  0.00    -0.147 OA 
ENDBRANCH  13  23
TORSDOF 4
ENDMDL
MODEL       92
REMARK 921   NORMALIZED FREE ENERGY PREDICTED BY IDOCK:   -4.73 KCAL/MOL
REMARK 922        TOTAL FREE ENERGY PREDICTED BY IDOCK:   -6.20 KCAL/MOL
REMARK 923 INTER-LIGAND FREE ENERGY PREDICTED BY IDOCK:   -5.82 KCAL/MOL
REMARK 924 INTRA-LIGAND FREE ENERGY PREDICTED BY IDOCK:   -0.38 KCAL/MOL
REMARK 927      BINDING AFFINITY PREDICTED BY RF-SCORE:    0.00 PKD
ROOT
HETATM    1  C   UNL     1      -6.783   8.206  67.802  1.00  0.00    -0.065 C  
HETATM    2  N   UNL     1      -7.805   8.873  66.968  1.00  0.00    -0.101 N  
HETATM    3  C   UNL     1      -7.741   8.607  65.520  1.00  0.00    -0.092 C  
HETATM    4  N   UNL     1      -9.030   8.996  64.941  1.00  0.00    -0.376 NA 
HETATM    5 CL   UNL     1     -12.269  12.564  63.336  1.00  0.00    -0.632 Cl 
HETATM    6  C   UNL     1      -9.476  10.305  65.103  1.00  0.00    -0.252 A  
HETATM    7  C   UNL     1      -9.578  12.412  66.344  1.00  0.00    -0.249 A  
HETATM    8  H   UNL     1      -9.592   8.317  64.427  1.00  0.00     0.000 HD 
HETATM    9  C   UNL     1     -10.504  10.792  64.282  1.00  0.00    -0.330 A  
HETATM   10  O   UNL     1      -6.559  11.084  66.780  1.00  0.00    -0.103 OA 
HETATM   11  O   UNL     1      -8.282  10.773  68.596  1.00  0.00    -0.123 OA 
HETATM   12  C   UNL     1     -11.043  12.082  64.453  1.00  0.00    -0.342 A  
HETATM   13  C   UNL     1     -10.570  12.895  65.486  1.00  0.00    -0.279 A  
HETATM   14  S   UNL     1      -7.823  10.551  67.242  1.00  0.00    -0.108 S  
HETATM   15  C   UNL     1      -9.058  11.130  66.143  1.00  0.00    -0.201 A  
ENDROOT
BRANCH   3  16
HETATM   16  C   UNL     1      -7.488   7.110  65.186  1.00  0.00    -0.094 C  
BRANCH  16  17
HETATM   17  S   UNL     1      -8.899   6.055  65.734  1.00  0.00    -0.098 SA 
BRANCH  17  18
HETATM   18  C   UNL     1      -8.904   4.797  64.391  1.00  0.00    -0.142 C  
HETATM   19  F   UNL     1     -11.075   4.137  65.194  1.00  0.00    -0.267 F  
HETATM   20  C   UNL     1     -10.133   3.898  64.257  1.00  0.00    -0.211 C  
HETATM   21  F   UNL     1      -9.792   2.593  64.351  1.00  0.00    -0.149 F  
HETATM   22  F   UNL     1     -10.716   4.079  63.049  1.00  0.00    -0.206 F  
ENDBRANCH  17  18
ENDBRANCH  16  17
ENDBRANCH   3  16
BRANCH  13  23
HETATM   23  S   UNL     1     -11.208  14.511  65.789  1.00  0.00    -0.339 S  
HETATM   24  H2  UNL     1      -9.893  14.384  67.846  1.00  0.00     0.000 HD 
HETATM   25  H1  UNL     1     -10.896  15.866  67.440  1.00  0.00     0.000 HD 
HETATM   26  N   UNL     1     -10.526  14.932  67.264  1.00  0.00    -0.259 N  
HETATM   27  O   UNL     1     -10.690  15.420  64.801  1.00  0.00    -0.415 OA 
HETATM   28  O   UNL     1     -12.624  14.406  66.064  1.00  0.00    -0.382 OA 
ENDBRANCH  13  23
TORSDOF 4
ENDMDL
MODEL       93
REMARK 921   NORMALIZED FREE ENERGY PREDICTED BY IDOCK:   -4.71 KCAL/MOL
REMARK 922        TOTAL FREE ENERGY PREDICTED BY IDOCK:   -6.18 KCAL/MOL
REMARK 923 INTER-LIGAND FREE ENERGY PREDICTED BY IDOCK:   -5.79 KCAL/MOL
REMARK 924 INTRA-LIGAND FREE ENERGY PREDICTED BY IDOCK:   -0.38 KCAL/MOL
REMARK 927      BINDING AFFINITY PREDICTED BY RF-SCORE:    0.00 PKD
ROOT
HETATM    1  C   UNL     1     -12.430   9.943  71.988  1.00  0.00    -0.268 C  
HETATM    2  N   UNL     1     -11.500   9.138  71.169  1.00  0.00    -0.293 N  
HETATM    3  C   UNL     1     -11.509   9.403  69.720  1.00  0.00     0.039 C  
HETATM    4  N   UNL     1     -10.279   8.839  69.158  1.00  0.00    -0.203 NA 
HETATM    5 CL   UNL     1      -7.541   4.853  67.604  1.00  0.00    -0.082 Cl 
HETATM    6  C   UNL     1     -10.019   7.482  69.329  1.00  0.00    -0.179 A  
HETATM    7  C   UNL     1     -10.221   5.387  70.578  1.00  0.00    -0.326 A  
HETATM    8  H   UNL     1      -9.623   9.432  68.649  1.00  0.00     0.000 HD 
HETATM    9  C   UNL     1      -9.057   6.855  68.522  1.00  0.00    -0.127 A  
HETATM   10  O   UNL     1     -13.035   7.118  70.973  1.00  0.00    -0.325 OA 
HETATM   11  O   UNL     1     -11.307   7.198  72.809  1.00  0.00    -0.284 OA 
HETATM   12  C   UNL     1      -8.702   5.504  68.704  1.00  0.00    -0.108 A  
HETATM   13  C   UNL     1      -9.295   4.769  69.733  1.00  0.00    -0.141 A  
HETATM   14  S   UNL     1     -11.715   7.475  71.449  1.00  0.00    -0.294 S  
HETATM   15  C   UNL     1     -10.558   6.727  70.367  1.00  0.00    -0.227 A  
ENDROOT
BRANCH   3  16
HETATM   16  C   UNL     1     -11.551  10.919  69.378  1.00  0.00    -0.316 C  
BRANCH  16  17
HETATM   17  S   UNL     1     -11.145  11.216  67.604  1.00  0.00    -0.299 SA 
BRANCH  17  18
HETATM   18  C   UNL     1     -11.754  12.942  67.415  1.00  0.00    -0.372 C  
HETATM   19  F   UNL     1     -11.389  12.676  65.051  1.00  0.00    -0.314 F  
HETATM   20  C   UNL     1     -11.825  13.527  66.005  1.00  0.00    -0.379 C  
HETATM   21  F   UNL     1     -11.086  14.655  65.910  1.00  0.00    -0.312 F  
HETATM   22  F   UNL     1     -13.102  13.851  65.695  1.00  0.00    -0.540 F  
ENDBRANCH  17  18
ENDBRANCH  16  17
ENDBRANCH   3  16
BRANCH  13  23
HETATM   23  S   UNL     1      -8.887   3.082  70.050  1.00  0.00    -0.102 S  
HETATM   24  H2  UNL     1     -10.366   3.335  71.980  1.00  0.00     0.000 HD 
HETATM   25  H1  UNL     1      -9.515   1.749  71.627  1.00  0.00     0.000 HD 
HETATM   26  N   UNL     1      -9.751   2.724  71.443  1.00  0.00    -0.157 N  
HETATM   27  O   UNL     1      -9.416   2.259  68.994  1.00  0.00    -0.144 OA 
HETATM   28  O   UNL     1      -7.501   3.008  70.457  1.00  0.00    -0.040 OA 
ENDBRANCH  13  23
TORSDOF 4
ENDMDL
MODEL       94
REMARK 921   NORMALIZED FREE ENERGY PREDICTED BY IDOCK:   -4.66 KCAL/MOL
REMARK 922        TOTAL FREE ENERGY PREDICTED BY IDOCK:   -6.12 KCAL/MOL
REMARK 923 INTER-LIGAND FREE ENERGY PREDICTED BY IDOCK:   -5.98 KCAL/MOL
REMARK 924 INTRA-LIGAND FREE ENERGY PREDICTED BY IDOCK:   -0.13 KCAL/MOL
REMARK 927      BINDING AFFINITY PREDICTED BY RF-SCORE:    0.00 PKD
ROOT
HETATM    1  C   UNL     1     -11.656  12.499  67.270  1.00  0.00    -0.367 C  
HETATM    2  N   UNL     1     -11.415  11.198  67.927  1.00  0.00    -0.297 N  
HETATM    3  C   UNL     1     -11.396  11.204  69.400  1.00  0.00    -0.283 C  
HETATM    4  N   UNL     1     -11.561   9.820  69.851  1.00  0.00    -0.424 NA 
HETATM    5 CL   UNL     1      -9.690   5.164  70.640  1.00  0.00    -0.241 Cl 
HETATM    6  C   UNL     1     -10.648   8.858  69.429  1.00  0.00    -0.217 A  
HETATM    7  C   UNL     1      -9.045   7.970  67.808  1.00  0.00    -0.136 A  
HETATM    8  H   UNL     1     -12.335   9.565  70.466  1.00  0.00     0.000 HD 
HETATM    9  C   UNL     1     -10.570   7.632  70.108  1.00  0.00    -0.239 A  
HETATM   10  O   UNL     1      -8.880  11.291  67.732  1.00  0.00    -0.135 OA 
HETATM   11  O   UNL     1     -10.225  10.115  65.952  1.00  0.00    -0.254 OA 
HETATM   12  C   UNL     1      -9.718   6.597  69.677  1.00  0.00    -0.154 A  
HETATM   13  C   UNL     1      -8.948   6.774  68.525  1.00  0.00    -0.121 A  
HETATM   14  S   UNL     1      -9.999  10.463  67.338  1.00  0.00    -0.196 S  
HETATM   15  C   UNL     1      -9.894   8.980  68.266  1.00  0.00    -0.166 A  
ENDROOT
BRANCH   3  16
HETATM   16  C   UNL     1     -12.536  12.060  70.020  1.00  0.00     0.128 C  
BRANCH  16  17
HETATM   17  S   UNL     1     -11.967  13.779  70.372  1.00  0.00    -0.283 SA 
BRANCH  17  18
HETATM   18  C   UNL     1     -12.767  14.058  72.005  1.00  0.00    -0.277 C  
HETATM   19  F   UNL     1     -12.307  16.399  71.685  1.00  0.00    -0.463 F  
HETATM   20  C   UNL     1     -12.866  15.495  72.518  1.00  0.00    -0.420 C  
HETATM   21  F   UNL     1     -12.260  15.623  73.720  1.00  0.00    -0.486 F  
HETATM   22  F   UNL     1     -14.162  15.848  72.677  1.00  0.00    -0.632 F  
ENDBRANCH  17  18
ENDBRANCH  16  17
ENDBRANCH   3  16
BRANCH  13  23
HETATM   23  S   UNL     1      -7.877   5.520  67.898  1.00  0.00    -0.097 S  
HETATM   24  H2  UNL     1      -7.327   7.179  66.189  1.00  0.00     0.000 HD 
HETATM   25  H1  UNL     1      -6.554   5.515  66.193  1.00  0.00     0.000 HD 
HETATM   26  N   UNL     1      -7.173   6.240  66.556  1.00  0.00    -0.072 N  
HETATM   27  O   UNL     1      -6.828   5.271  68.852  1.00  0.00    -0.051 OA 
HETATM   28  O   UNL     1      -8.684   4.451  67.352  1.00  0.00    -0.103 OA 
ENDBRANCH  13  23
TORSDOF 4
ENDMDL
MODEL       95
REMARK 921   NORMALIZED FREE ENERGY PREDICTED BY IDOCK:   -4.65 KCAL/MOL
REMARK 922        TOTAL FREE ENERGY PREDICTED BY IDOCK:   -6.10 KCAL/MOL
REMARK 923 INTER-LIGAND FREE ENERGY PREDICTED BY IDOCK:   -5.55 KCAL/MOL
REMARK 924 INTRA-LIGAND FREE ENERGY PREDICTED BY IDOCK:   -0.56 KCAL/MOL
REMARK 927      BINDING AFFINITY PREDICTED BY RF-SCORE:    0.00 PKD
ROOT
HETATM    1  C   UNL     1      -9.485   4.122  67.704  1.00  0.00    -0.180 C  
HETATM    2  N   UNL     1      -9.577   5.468  67.102  1.00  0.00    -0.127 N  
HETATM    3  C   UNL     1      -8.451   5.879  66.246  1.00  0.00    -0.128 C  
HETATM    4  N   UNL     1      -8.901   7.016  65.438  1.00  0.00    -0.367 NA 
HETATM    5 CL   UNL     1     -10.020  11.948  64.967  1.00  0.00    -0.281 Cl 
HETATM    6  C   UNL     1      -9.370   8.158  66.081  1.00  0.00    -0.166 A  
HETATM    7  C   UNL     1     -10.439   9.283  67.972  1.00  0.00    -0.275 A  
HETATM    8  H   UNL     1      -8.870   6.971  64.419  1.00  0.00     0.000 HD 
HETATM    9  C   UNL     1      -9.469   9.362  65.368  1.00  0.00    -0.322 A  
HETATM   10  O   UNL     1      -8.688   6.707  69.140  1.00  0.00    -0.129 OA 
HETATM   11  O   UNL     1     -11.177   6.429  68.836  1.00  0.00    -0.343 OA 
HETATM   12  C   UNL     1     -10.007  10.527  65.948  1.00  0.00    -0.254 A  
HETATM   13  C   UNL     1     -10.487  10.484  67.259  1.00  0.00    -0.250 A  
HETATM   14  S   UNL     1      -9.857   6.654  68.288  1.00  0.00    -0.141 S  
HETATM   15  C   UNL     1      -9.893   8.147  67.370  1.00  0.00    -0.184 A  
ENDROOT
BRANCH   3  16
HETATM   16  C   UNL     1      -7.976   4.754  65.283  1.00  0.00    -0.096 C  
BRANCH  16  17
HETATM   17  S   UNL     1      -8.452   5.121  63.539  1.00  0.00    -0.075 SA 
BRANCH  17  18
HETATM   18  C   UNL     1      -9.074   3.470  63.018  1.00  0.00    -0.096 C  
HETATM   19  F   UNL     1     -11.052   3.952  64.301  1.00  0.00    -0.315 F  
HETATM   20  C   UNL     1     -10.458   3.040  63.502  1.00  0.00    -0.224 C  
HETATM   21  F   UNL     1     -10.392   1.880  64.193  1.00  0.00    -0.105 F  
HETATM   22  F   UNL     1     -11.282   2.838  62.447  1.00  0.00    -0.168 F  
ENDBRANCH  17  18
ENDBRANCH  16  17
ENDBRANCH   3  16
BRANCH  13  23
HETATM   23  S   UNL     1     -11.203  11.887  68.053  1.00  0.00    -0.281 S  
HETATM   24  H2  UNL     1     -12.051  10.249  69.657  1.00  0.00     0.000 HD 
HETATM   25  H1  UNL     1     -12.409  12.039  69.836  1.00  0.00     0.000 HD 
HETATM   26  N   UNL     1     -11.995  11.228  69.377  1.00  0.00    -0.333 N  
HETATM   27  O   UNL     1     -10.153  12.734  68.559  1.00  0.00    -0.229 OA 
HETATM   28  O   UNL     1     -12.264  12.402  67.217  1.00  0.00    -0.478 OA 
ENDBRANCH  13  23
TORSDOF 4
ENDMDL
MODEL       96
REMARK 921   NORMALIZED FREE ENERGY PREDICTED BY IDOCK:   -4.62 KCAL/MOL
REMARK 922        TOTAL FREE ENERGY PREDICTED BY IDOCK:   -6.06 KCAL/MOL
REMARK 923 INTER-LIGAND FREE ENERGY PREDICTED BY IDOCK:   -5.62 KCAL/MOL
REMARK 924 INTRA-LIGAND FREE ENERGY PREDICTED BY IDOCK:   -0.45 KCAL/MOL
REMARK 927      BINDING AFFINITY PREDICTED BY RF-SCORE:    0.00 PKD
ROOT
HETATM    1  C   UNL     1      -7.223  16.867  69.194  1.00  0.00    -0.209 C  
HETATM    2  N   UNL     1      -7.839  15.739  68.466  1.00  0.00    -0.133 N  
HETATM    3  C   UNL     1      -9.165  15.303  68.938  1.00  0.00    -0.211 C  
HETATM    4  N   UNL     1      -9.769  14.494  67.875  1.00  0.00    -0.215 NA 
HETATM    5 CL   UNL     1     -10.138  10.136  65.293  1.00  0.00    -0.384 Cl 
HETATM    6  C   UNL     1      -9.098  13.361  67.424  1.00  0.00    -0.216 A  
HETATM    7  C   UNL     1      -7.048  12.092  67.006  1.00  0.00    -0.091 A  
HETATM    8  H   UNL     1     -10.669  14.758  67.473  1.00  0.00     0.000 HD 
HETATM    9  C   UNL     1      -9.793  12.394  66.683  1.00  0.00    -0.231 A  
HETATM   10  O   UNL     1      -6.607  13.919  69.751  1.00  0.00    -0.117 OA 
HETATM   11  O   UNL     1      -5.657  14.772  67.575  1.00  0.00    -0.334 OA 
HETATM   12  C   UNL     1      -9.146  11.268  66.139  1.00  0.00    -0.204 A  
HETATM   13  C   UNL     1      -7.767  11.117  66.310  1.00  0.00    -0.097 A  
HETATM   14  S   UNL     1      -6.788  14.403  68.399  1.00  0.00    -0.119 S  
HETATM   15  C   UNL     1      -7.721  13.194  67.540  1.00  0.00    -0.166 A  
ENDROOT
BRANCH   3  16
HETATM   16  C   UNL     1     -10.120  16.489  69.250  1.00  0.00    -0.270 C  
BRANCH  16  17
HETATM   17  S   UNL     1     -10.625  17.366  67.708  1.00  0.00    -0.340 SA 
BRANCH  17  18
HETATM   18  C   UNL     1      -9.743  18.965  67.940  1.00  0.00    -0.327 C  
HETATM   19  F   UNL     1     -10.255  19.434  65.635  1.00  0.00    -0.425 F  
HETATM   20  C   UNL     1      -9.667  19.920  66.749  1.00  0.00    -0.416 C  
HETATM   21  F   UNL     1      -8.383  20.205  66.437  1.00  0.00    -0.319 F  
HETATM   22  F   UNL     1     -10.281  21.089  67.045  1.00  0.00    -0.459 F  
ENDBRANCH  17  18
ENDBRANCH  16  17
ENDBRANCH   3  16
BRANCH  13  23
HETATM   23  S   UNL     1      -6.872   9.753  65.639  1.00  0.00    -0.103 S  
HETATM   24  H2  UNL     1      -4.907  10.930  66.492  1.00  0.00     0.000 HD 
HETATM   25  H1  UNL     1      -4.757   9.327  65.612  1.00  0.00     0.000 HD 
HETATM   26  N   UNL     1      -5.274  10.115  66.001  1.00  0.00    -0.044 N  
HETATM   27  O   UNL     1      -7.216   8.556  66.362  1.00  0.00    -0.077 OA 
HETATM   28  O   UNL     1      -6.939   9.820  64.196  1.00  0.00    -0.112 OA 
ENDBRANCH  13  23
TORSDOF 4
ENDMDL
MODEL       97
REMARK 921   NORMALIZED FREE ENERGY PREDICTED BY IDOCK:   -4.60 KCAL/MOL
REMARK 922        TOTAL FREE ENERGY PREDICTED BY IDOCK:   -6.04 KCAL/MOL
REMARK 923 INTER-LIGAND FREE ENERGY PREDICTED BY IDOCK:   -5.79 KCAL/MOL
REMARK 924 INTRA-LIGAND FREE ENERGY PREDICTED BY IDOCK:   -0.25 KCAL/MOL
REMARK 927      BINDING AFFINITY PREDICTED BY RF-SCORE:    0.00 PKD
ROOT
HETATM    1  C   UNL     1      -7.944  11.141  68.534  1.00  0.00    -0.143 C  
HETATM    2  N   UNL     1      -8.532  12.402  68.036  1.00  0.00    -0.167 N  
HETATM    3  C   UNL     1      -9.232  12.328  66.742  1.00  0.00    -0.210 C  
HETATM    4  N   UNL     1     -10.073  13.523  66.625  1.00  0.00    -0.270 NA 
HETATM    5 CL   UNL     1     -10.607  18.494  65.728  1.00  0.00    -0.405 Cl 
HETATM    6  C   UNL     1      -9.477  14.779  66.702  1.00  0.00    -0.273 A  
HETATM    7  C   UNL     1      -7.720  16.288  67.491  1.00  0.00    -0.169 A  
HETATM    8  H   UNL     1     -11.080  13.435  66.488  1.00  0.00     0.000 HD 
HETATM    9  C   UNL     1     -10.179  15.907  66.250  1.00  0.00    -0.324 A  
HETATM   10  O   UNL     1      -6.379  13.283  67.003  1.00  0.00    -0.141 OA 
HETATM   11  O   UNL     1      -7.000  13.953  69.354  1.00  0.00    -0.099 OA 
HETATM   12  C   UNL     1      -9.653  17.207  66.375  1.00  0.00    -0.278 A  
HETATM   13  C   UNL     1      -8.415  17.393  66.993  1.00  0.00    -0.225 A  
HETATM   14  S   UNL     1      -7.373  13.646  67.990  1.00  0.00    -0.151 S  
HETATM   15  C   UNL     1      -8.265  15.009  67.345  1.00  0.00    -0.194 A  
ENDROOT
BRANCH   3  16
HETATM   16  C   UNL     1     -10.144  11.076  66.613  1.00  0.00    -0.220 C  
BRANCH  16  17
HETATM   17  S   UNL     1      -9.743  10.111  65.092  1.00  0.00    -0.317 SA 
BRANCH  17  18
HETATM   18  C   UNL     1      -8.865   8.677  65.839  1.00  0.00    -0.184 C  
HETATM   19  F   UNL     1     -10.963   8.091  66.863  1.00  0.00    -0.387 F  
HETATM   20  C   UNL     1      -9.671   7.724  66.721  1.00  0.00    -0.227 C  
HETATM   21  F   UNL     1      -9.136   7.641  67.960  1.00  0.00    -0.134 F  
HETATM   22  F   UNL     1      -9.667   6.478  66.192  1.00  0.00    -0.187 F  
ENDBRANCH  17  18
ENDBRANCH  16  17
ENDBRANCH   3  16
BRANCH  13  23
HETATM   23  S   UNL     1      -7.697  18.989  67.216  1.00  0.00    -0.239 S  
HETATM   24  H2  UNL     1      -9.569  19.355  68.744  1.00  0.00     0.000 HD 
HETATM   25  H1  UNL     1      -8.313  20.656  68.440  1.00  0.00     0.000 HD 
HETATM   26  N   UNL     1      -8.727  19.734  68.311  1.00  0.00    -0.309 N  
HETATM   27  O   UNL     1      -6.416  18.848  67.861  1.00  0.00    -0.211 OA 
HETATM   28  O   UNL     1      -7.859  19.746  65.996  1.00  0.00    -0.328 OA 
ENDBRANCH  13  23
TORSDOF 4
ENDMDL
MODEL       98
REMARK 921   NORMALIZED FREE ENERGY PREDICTED BY IDOCK:   -4.60 KCAL/MOL
REMARK 922        TOTAL FREE ENERGY PREDICTED BY IDOCK:   -6.04 KCAL/MOL
REMARK 923 INTER-LIGAND FREE ENERGY PREDICTED BY IDOCK:   -5.59 KCAL/MOL
REMARK 924 INTRA-LIGAND FREE ENERGY PREDICTED BY IDOCK:   -0.45 KCAL/MOL
REMARK 927      BINDING AFFINITY PREDICTED BY RF-SCORE:    0.00 PKD
ROOT
HETATM    1  C   UNL     1     -10.530   7.472  73.577  1.00  0.00    -0.306 C  
HETATM    2  N   UNL     1     -10.569   7.213  72.122  1.00  0.00    -0.206 N  
HETATM    3  C   UNL     1     -11.892   7.305  71.479  1.00  0.00    -0.304 C  
HETATM    4  N   UNL     1     -11.674   7.431  70.035  1.00  0.00    -0.507 NA 
HETATM    5 CL   UNL     1     -10.511   5.381  65.535  1.00  0.00     0.232 Cl 
HETATM    6  C   UNL     1     -10.958   6.438  69.371  1.00  0.00    -0.359 A  
HETATM    7  C   UNL     1      -9.265   4.673  69.311  1.00  0.00    -0.185 A  
HETATM    8  H   UNL     1     -12.042   8.234  69.524  1.00  0.00     0.000 HD 
HETATM    9  C   UNL     1     -11.036   6.348  67.973  1.00  0.00    -0.400 A  
HETATM   10  O   UNL     1     -10.667   4.679  72.328  1.00  0.00    -0.172 OA 
HETATM   11  O   UNL     1      -8.437   5.822  72.038  1.00  0.00    -0.124 OA 
HETATM   12  C   UNL     1     -10.275   5.412  67.246  1.00  0.00    -0.214 A  
HETATM   13  C   UNL     1      -9.392   4.568  67.923  1.00  0.00    -0.140 A  
HETATM   14  S   UNL     1      -9.850   5.720  71.742  1.00  0.00    -0.168 S  
HETATM   15  C   UNL     1     -10.040   5.607  70.004  1.00  0.00    -0.228 A  
ENDROOT
BRANCH   3  16
HETATM   16  C   UNL     1     -12.718   8.533  71.956  1.00  0.00    -0.376 C  
BRANCH  16  17
HETATM   17  S   UNL     1     -12.272  10.049  71.005  1.00  0.00    -0.394 SA 
BRANCH  17  18
HETATM   18  C   UNL     1     -13.265  11.305  71.913  1.00  0.00    -0.386 C  
HETATM   19  F   UNL     1     -12.056  12.973  70.667  1.00  0.00    -0.404 F  
HETATM   20  C   UNL     1     -13.022  12.779  71.590  1.00  0.00    -0.303 C  
HETATM   21  F   UNL     1     -12.666  13.466  72.699  1.00  0.00    -0.313 F  
HETATM   22  F   UNL     1     -14.153  13.346  71.108  1.00  0.00     0.000 F  
ENDBRANCH  17  18
ENDBRANCH  16  17
ENDBRANCH   3  16
BRANCH  13  23
HETATM   23  S   UNL     1      -8.380   3.388  67.089  1.00  0.00    -0.095 S  
HETATM   24  H2  UNL     1      -7.532   2.889  69.327  1.00  0.00     0.000 HD 
HETATM   25  H1  UNL     1      -6.909   2.002  67.847  1.00  0.00     0.000 HD 
HETATM   26  N   UNL     1      -7.494   2.684  68.329  1.00  0.00    -0.048 N  
HETATM   27  O   UNL     1      -9.215   2.362  66.522  1.00  0.00    -0.111 OA 
HETATM   28  O   UNL     1      -7.396   4.096  66.301  1.00  0.00    -0.077 OA 
ENDBRANCH  13  23
TORSDOF 4
ENDMDL
MODEL       99
REMARK 921   NORMALIZED FREE ENERGY PREDICTED BY IDOCK:   -4.59 KCAL/MOL
REMARK 922        TOTAL FREE ENERGY PREDICTED BY IDOCK:   -6.03 KCAL/MOL
REMARK 923 INTER-LIGAND FREE ENERGY PREDICTED BY IDOCK:   -5.81 KCAL/MOL
REMARK 924 INTRA-LIGAND FREE ENERGY PREDICTED BY IDOCK:   -0.22 KCAL/MOL
REMARK 927      BINDING AFFINITY PREDICTED BY RF-SCORE:    0.00 PKD
ROOT
HETATM    1  C   UNL     1     -11.097  12.362  66.031  1.00  0.00    -0.308 C  
HETATM    2  N   UNL     1     -10.658  11.526  67.168  1.00  0.00    -0.226 N  
HETATM    3  C   UNL     1     -10.419  12.229  68.440  1.00  0.00    -0.233 C  
HETATM    4  N   UNL     1     -10.404  11.223  69.506  1.00  0.00    -0.445 NA 
HETATM    5 CL   UNL     1      -8.069   7.494  72.045  1.00  0.00    -0.103 Cl 
HETATM    6  C   UNL     1      -9.489  10.175  69.433  1.00  0.00    -0.224 A  
HETATM    7  C   UNL     1      -8.081   8.625  68.168  1.00  0.00    -0.115 A  
HETATM    8  H   UNL     1     -11.053  11.290  70.290  1.00  0.00     0.000 HD 
HETATM    9  C   UNL     1      -9.213   9.417  70.581  1.00  0.00    -0.303 A  
HETATM   10  O   UNL     1      -8.196  11.516  66.525  1.00  0.00    -0.167 OA 
HETATM   11  O   UNL     1      -9.694   9.637  65.757  1.00  0.00    -0.244 OA 
HETATM   12  C   UNL     1      -8.355   8.301  70.545  1.00  0.00    -0.124 A  
HETATM   13  C   UNL     1      -7.783   7.911  69.332  1.00  0.00    -0.105 A  
HETATM   14  S   UNL     1      -9.291  10.600  66.759  1.00  0.00    -0.159 S  
HETATM   15  C   UNL     1      -8.931   9.733  68.238  1.00  0.00    -0.119 A  
ENDROOT
BRANCH   3  16
HETATM   16  C   UNL     1     -11.518  13.276  68.774  1.00  0.00    -0.306 C  
BRANCH  16  17
HETATM   17  S   UNL     1     -12.174  13.036  70.482  1.00  0.00    -0.226 SA 
BRANCH  17  18
HETATM   18  C   UNL     1     -12.202  14.781  71.067  1.00  0.00    -0.329 C  
HETATM   19  F   UNL     1     -12.873  13.916  73.210  1.00  0.00    -0.496 F  
HETATM   20  C   UNL     1     -12.575  15.041  72.526  1.00  0.00    -0.357 C  
HETATM   21  F   UNL     1     -13.645  15.863  72.614  1.00  0.00    -0.524 F  
HETATM   22  F   UNL     1     -11.549  15.640  73.173  1.00  0.00    -0.512 F  
ENDBRANCH  17  18
ENDBRANCH  16  17
ENDBRANCH   3  16
BRANCH  13  23
HETATM   23  S   UNL     1      -6.721   6.510  69.191  1.00  0.00    -0.050 S  
HETATM   24  H2  UNL     1      -8.645   5.265  70.041  1.00  0.00     0.000 HD 
HETATM   25  H1  UNL     1      -7.065   4.426  69.636  1.00  0.00     0.000 HD 
HETATM   26  N   UNL     1      -7.679   5.236  69.717  1.00  0.00    -0.072 N  
HETATM   27  O   UNL     1      -6.423   6.277  67.801  1.00  0.00    -0.045 OA 
HETATM   28  O   UNL     1      -5.680   6.614  70.189  1.00  0.00    -0.018 OA 
ENDBRANCH  13  23
TORSDOF 4
ENDMDL
MODEL      100
REMARK 921   NORMALIZED FREE ENERGY PREDICTED BY IDOCK:   -4.57 KCAL/MOL
REMARK 922        TOTAL FREE ENERGY PREDICTED BY IDOCK:   -6.00 KCAL/MOL
REMARK 923 INTER-LIGAND FREE ENERGY PREDICTED BY IDOCK:   -5.86 KCAL/MOL
REMARK 924 INTRA-LIGAND FREE ENERGY PREDICTED BY IDOCK:   -0.14 KCAL/MOL
REMARK 927      BINDING AFFINITY PREDICTED BY RF-SCORE:    0.00 PKD
ROOT
HETATM    1  C   UNL     1      -8.724   7.971  68.339  1.00  0.00    -0.130 C  
HETATM    2  N   UNL     1      -9.590   8.972  68.996  1.00  0.00    -0.158 N  
HETATM    3  C   UNL     1     -11.015   8.620  69.120  1.00  0.00     0.063 C  
HETATM    4  N   UNL     1     -11.604   9.505  70.129  1.00  0.00    -0.424 NA 
HETATM    5 CL   UNL     1     -13.421  14.038  71.526  1.00  0.00    -0.411 Cl 
HETATM    6  C   UNL     1     -11.532  10.883  69.943  1.00  0.00    -0.323 A  
HETATM    7  C   UNL     1     -10.446  12.886  69.050  1.00  0.00    -0.022 A  
HETATM    8  H   UNL     1     -12.060   9.117  70.955  1.00  0.00     0.000 HD 
HETATM    9  C   UNL     1     -12.373  11.727  70.685  1.00  0.00    -0.421 A  
HETATM   10  O   UNL     1      -9.954  10.385  66.912  1.00  0.00    -0.190 OA 
HETATM   11  O   UNL     1      -8.098  10.979  68.513  1.00  0.00    -0.125 OA 
HETATM   12  C   UNL     1     -12.289  13.129  70.591  1.00  0.00    -0.326 A  
HETATM   13  C   UNL     1     -11.324  13.707  69.763  1.00  0.00    -0.112 A  
HETATM   14  S   UNL     1      -9.438  10.497  68.259  1.00  0.00    -0.161 S  
HETATM   15  C   UNL     1     -10.560  11.497  69.159  1.00  0.00    -0.136 A  
ENDROOT
BRANCH   3  16
HETATM   16  C   UNL     1     -11.243   7.149  69.569  1.00  0.00    -0.087 C  
BRANCH  16  17
HETATM   17  S   UNL     1     -12.182   7.073  71.156  1.00  0.00    -0.371 SA 
BRANCH  17  18
HETATM   18  C   UNL     1     -10.814   6.681  72.323  1.00  0.00    -0.229 C  
HETATM   19  F   UNL     1     -12.127   4.790  73.025  1.00  0.00    -0.325 F  
HETATM   20  C   UNL     1     -10.959   5.442  73.206  1.00  0.00    -0.307 C  
HETATM   21  F   UNL     1     -10.876   5.767  74.516  1.00  0.00    -0.187 F  
HETATM   22  F   UNL     1      -9.966   4.560  72.943  1.00  0.00    -0.159 F  
ENDBRANCH  17  18
ENDBRANCH  16  17
ENDBRANCH   3  16
BRANCH  13  23
HETATM   23  S   UNL     1     -11.130  15.453  69.608  1.00  0.00    -0.303 S  
HETATM   24  H2  UNL     1      -8.741  14.940  69.522  1.00  0.00     0.000 HD 
HETATM   25  H1  UNL     1      -9.355  16.665  69.413  1.00  0.00     0.000 HD 
HETATM   26  N   UNL     1      -9.467  15.656  69.502  1.00  0.00    -0.277 N  
HETATM   27  O   UNL     1     -11.696  15.885  68.357  1.00  0.00    -0.358 OA 
HETATM   28  O   UNL     1     -11.489  16.073  70.864  1.00  0.00    -0.378 OA 
ENDBRANCH  13  23
TORSDOF 4
ENDMDL
MODEL      101
REMARK 921   NORMALIZED FREE ENERGY PREDICTED BY IDOCK:   -4.54 KCAL/MOL
REMARK 922        TOTAL FREE ENERGY PREDICTED BY IDOCK:   -5.96 KCAL/MOL
REMARK 923 INTER-LIGAND FREE ENERGY PREDICTED BY IDOCK:   -5.45 KCAL/MOL
REMARK 924 INTRA-LIGAND FREE ENERGY PREDICTED BY IDOCK:   -0.52 KCAL/MOL
REMARK 927      BINDING AFFINITY PREDICTED BY RF-SCORE:    0.00 PKD
ROOT
HETATM    1  C   UNL     1      -9.369   5.587  68.871  1.00  0.00    -0.125 C  
HETATM    2  N   UNL     1      -9.784   6.988  69.087  1.00  0.00    -0.156 N  
HETATM    3  C   UNL     1     -10.954   7.195  69.959  1.00  0.00    -0.262 C  
HETATM    4  N   UNL     1     -10.952   8.600  70.375  1.00  0.00    -0.235 NA 
HETATM    5 CL   UNL     1     -11.809  13.511  69.399  1.00  0.00    -0.368 Cl 
HETATM    6  C   UNL     1     -10.981   9.594  69.400  1.00  0.00    -0.190 A  
HETATM    7  C   UNL     1     -10.489  10.425  67.152  1.00  0.00    -0.311 A  
HETATM    8  H   UNL     1     -10.931   8.847  71.365  1.00  0.00     0.000 HD 
HETATM    9  C   UNL     1     -11.332  10.905  69.758  1.00  0.00    -0.374 A  
HETATM   10  O   UNL     1     -11.147   7.171  66.945  1.00  0.00    -0.327 OA 
HETATM   11  O   UNL     1      -8.735   7.911  66.957  1.00  0.00    -0.124 OA 
HETATM   12  C   UNL     1     -11.304  11.962  68.828  1.00  0.00    -0.274 A  
HETATM   13  C   UNL     1     -10.886  11.715  67.518  1.00  0.00    -0.237 A  
HETATM   14  S   UNL     1     -10.022   7.795  67.609  1.00  0.00    -0.194 S  
HETATM   15  C   UNL     1     -10.535   9.397  68.097  1.00  0.00    -0.220 A  
ENDROOT
BRANCH   3  16
HETATM   16  C   UNL     1     -10.927   6.308  71.235  1.00  0.00    -0.275 C  
BRANCH  16  17
HETATM   17  S   UNL     1      -9.723   6.955  72.474  1.00  0.00    -0.153 SA 
BRANCH  17  18
HETATM   18  C   UNL     1      -8.818   5.407  72.887  1.00  0.00    -0.121 C  
HETATM   19  F   UNL     1      -6.874   6.785  73.224  1.00  0.00    -0.073 F  
HETATM   20  C   UNL     1      -7.343   5.520  73.268  1.00  0.00    -0.095 C  
HETATM   21  F   UNL     1      -6.571   4.774  72.447  1.00  0.00    -0.038 F  
HETATM   22  F   UNL     1      -7.148   5.068  74.529  1.00  0.00    -0.072 F  
ENDBRANCH  17  18
ENDBRANCH  16  17
ENDBRANCH   3  16
BRANCH  13  23
HETATM   23  S   UNL     1     -10.793  12.984  66.297  1.00  0.00    -0.282 S  
HETATM   24  H2  UNL     1      -9.994  11.193  64.838  1.00  0.00     0.000 HD 
HETATM   25  H1  UNL     1     -10.174  12.915  64.231  1.00  0.00     0.000 HD 
HETATM   26  N   UNL     1     -10.228  12.181  64.937  1.00  0.00    -0.276 N  
HETATM   27  O   UNL     1     -12.121  13.454  65.997  1.00  0.00    -0.396 OA 
HETATM   28  O   UNL     1      -9.723  13.890  66.651  1.00  0.00    -0.270 OA 
ENDBRANCH  13  23
TORSDOF 4
ENDMDL
MODEL      102
REMARK 921   NORMALIZED FREE ENERGY PREDICTED BY IDOCK:   -4.53 KCAL/MOL
REMARK 922        TOTAL FREE ENERGY PREDICTED BY IDOCK:   -5.96 KCAL/MOL
REMARK 923 INTER-LIGAND FREE ENERGY PREDICTED BY IDOCK:   -5.80 KCAL/MOL
REMARK 924 INTRA-LIGAND FREE ENERGY PREDICTED BY IDOCK:   -0.16 KCAL/MOL
REMARK 927      BINDING AFFINITY PREDICTED BY RF-SCORE:    0.00 PKD
ROOT
HETATM    1  C   UNL     1      -8.694  11.454  68.635  1.00  0.00    -0.121 C  
HETATM    2  N   UNL     1      -8.799   9.980  68.614  1.00  0.00    -0.127 N  
HETATM    3  C   UNL     1      -9.783   9.409  67.679  1.00  0.00    -0.155 C  
HETATM    4  N   UNL     1      -9.457   7.992  67.502  1.00  0.00    -0.142 NA 
HETATM    5 CL   UNL     1      -9.467   3.200  69.188  1.00  0.00    -0.222 Cl 
HETATM    6  C   UNL     1      -9.419   7.162  68.621  1.00  0.00    -0.140 A  
HETATM    7  C   UNL     1      -9.070   6.781  71.012  1.00  0.00    -0.156 A  
HETATM    8  H   UNL     1      -9.260   7.617  66.574  1.00  0.00     0.000 HD 
HETATM    9  C   UNL     1      -9.460   5.770  68.451  1.00  0.00    -0.137 A  
HETATM   10  O   UNL     1     -10.365   9.819  70.614  1.00  0.00    -0.289 OA 
HETATM   11  O   UNL     1      -7.875   9.611  70.960  1.00  0.00    -0.310 OA 
HETATM   12  C   UNL     1      -9.349   4.886  69.542  1.00  0.00    -0.130 A  
HETATM   13  C   UNL     1      -9.160   5.399  70.827  1.00  0.00    -0.141 A  
HETATM   14  S   UNL     1      -9.065   9.360  70.175  1.00  0.00    -0.246 S  
HETATM   15  C   UNL     1      -9.192   7.632  69.910  1.00  0.00    -0.147 A  
ENDROOT
BRANCH   3  16
HETATM   16  C   UNL     1      -9.764  10.092  66.282  1.00  0.00    -0.214 C  
BRANCH  16  17
HETATM   17  S   UNL     1     -11.024  11.435  66.177  1.00  0.00    -0.186 SA 
BRANCH  17  18
HETATM   18  C   UNL     1     -11.139  11.630  64.351  1.00  0.00    -0.317 C  
HETATM   19  F   UNL     1     -13.279  12.666  64.726  1.00  0.00    -0.471 F  
HETATM   20  C   UNL     1     -12.383  12.310  63.781  1.00  0.00    -0.538 C  
HETATM   21  F   UNL     1     -13.020  11.500  62.905  1.00  0.00    -0.572 F  
HETATM   22  F   UNL     1     -12.038  13.436  63.114  1.00  0.00    -0.577 F  
ENDBRANCH  17  18
ENDBRANCH  16  17
ENDBRANCH   3  16
BRANCH  13  23
HETATM   23  S   UNL     1      -8.982   4.364  72.244  1.00  0.00    -0.121 S  
HETATM   24  H2  UNL     1      -8.689   6.469  73.450  1.00  0.00     0.000 HD 
HETATM   25  H1  UNL     1      -8.626   4.853  74.316  1.00  0.00     0.000 HD 
HETATM   26  N   UNL     1      -8.730   5.451  73.497  1.00  0.00    -0.114 N  
HETATM   27  O   UNL     1     -10.230   3.693  72.503  1.00  0.00    -0.165 OA 
HETATM   28  O   UNL     1      -7.734   3.641  72.138  1.00  0.00    -0.057 OA 
ENDBRANCH  13  23
TORSDOF 4
ENDMDL
MODEL      103
REMARK 921   NORMALIZED FREE ENERGY PREDICTED BY IDOCK:   -4.51 KCAL/MOL
REMARK 922        TOTAL FREE ENERGY PREDICTED BY IDOCK:   -5.92 KCAL/MOL
REMARK 923 INTER-LIGAND FREE ENERGY PREDICTED BY IDOCK:   -5.46 KCAL/MOL
REMARK 924 INTRA-LIGAND FREE ENERGY PREDICTED BY IDOCK:   -0.46 KCAL/MOL
REMARK 927      BINDING AFFINITY PREDICTED BY RF-SCORE:    0.00 PKD
ROOT
HETATM    1  C   UNL     1      -8.253  16.867  68.543  1.00  0.00    -0.249 C  
HETATM    2  N   UNL     1      -8.684  15.519  68.118  1.00  0.00    -0.163 N  
HETATM    3  C   UNL     1      -9.814  14.931  68.860  1.00  0.00    -0.230 C  
HETATM    4  N   UNL     1     -10.346  13.828  68.056  1.00  0.00    -0.240 NA 
HETATM    5 CL   UNL     1     -10.042   9.064  66.320  1.00  0.00    -0.356 Cl 
HETATM    6  C   UNL     1      -9.497  12.783  67.696  1.00  0.00    -0.190 A  
HETATM    7  C   UNL     1      -7.282  11.886  67.173  1.00  0.00    -0.144 A  
HETATM    8  H   UNL     1     -11.323  13.825  67.763  1.00  0.00     0.000 HD 
HETATM    9  C   UNL     1     -10.044  11.572  67.245  1.00  0.00    -0.223 A  
HETATM   10  O   UNL     1      -6.933  14.264  69.473  1.00  0.00    -0.131 OA 
HETATM   11  O   UNL     1      -6.466  14.846  67.063  1.00  0.00    -0.163 OA 
HETATM   12  C   UNL     1      -9.232  10.512  66.799  1.00  0.00    -0.155 A  
HETATM   13  C   UNL     1      -7.844  10.672  66.771  1.00  0.00    -0.126 A  
HETATM   14  S   UNL     1      -7.378  14.430  68.106  1.00  0.00    -0.148 S  
HETATM   15  C   UNL     1      -8.115  12.917  67.618  1.00  0.00    -0.167 A  
ENDROOT
BRANCH   3  16
HETATM   16  C   UNL     1     -10.964  15.944  69.120  1.00  0.00    -0.284 C  
BRANCH  16  17
HETATM   17  S   UNL     1     -11.407  16.007  70.910  1.00  0.00    -0.342 SA 
BRANCH  17  18
HETATM   18  C   UNL     1     -13.033  15.146  70.873  1.00  0.00    -0.429 C  
HETATM   19  F   UNL     1     -12.310  13.972  72.846  1.00  0.00    -0.226 F  
HETATM   20  C   UNL     1     -13.330  14.129  71.975  1.00  0.00    -0.415 C  
HETATM   21  F   UNL     1     -13.606  12.914  71.452  1.00  0.00    -0.321 F  
HETATM   22  F   UNL     1     -14.410  14.517  72.693  1.00  0.00    -0.489 F  
ENDBRANCH  17  18
ENDBRANCH  16  17
ENDBRANCH   3  16
BRANCH  13  23
HETATM   23  S   UNL     1      -6.756   9.407  66.200  1.00  0.00    -0.079 S  
HETATM   24  H2  UNL     1      -5.058  11.163  66.282  1.00  0.00     0.000 HD 
HETATM   25  H1  UNL     1      -4.646   9.458  65.746  1.00  0.00     0.000 HD 
HETATM   26  N   UNL     1      -5.276  10.189  66.076  1.00  0.00    -0.044 N  
HETATM   27  O   UNL     1      -6.623   8.398  67.219  1.00  0.00    -0.057 OA 
HETATM   28  O   UNL     1      -7.104   9.076  64.836  1.00  0.00    -0.089 OA 
ENDBRANCH  13  23
TORSDOF 4
ENDMDL
MODEL      104
REMARK 921   NORMALIZED FREE ENERGY PREDICTED BY IDOCK:   -4.50 KCAL/MOL
REMARK 922        TOTAL FREE ENERGY PREDICTED BY IDOCK:   -5.92 KCAL/MOL
REMARK 923 INTER-LIGAND FREE ENERGY PREDICTED BY IDOCK:   -5.70 KCAL/MOL
REMARK 924 INTRA-LIGAND FREE ENERGY PREDICTED BY IDOCK:   -0.22 KCAL/MOL
REMARK 927      BINDING AFFINITY PREDICTED BY RF-SCORE:    0.00 PKD
ROOT
HETATM    1  C   UNL     1     -11.749  15.861  66.676  1.00  0.00     0.644 C  
HETATM    2  N   UNL     1     -11.254  14.535  67.098  1.00  0.00    -0.321 N  
HETATM    3  C   UNL     1     -10.798  14.422  68.494  1.00  0.00    -0.251 C  
HETATM    4  N   UNL     1     -10.746  12.997  68.830  1.00  0.00    -0.374 NA 
HETATM    5 CL   UNL     1      -8.475   8.462  68.560  1.00  0.00    -0.131 Cl 
HETATM    6  C   UNL     1      -9.948  12.151  68.064  1.00  0.00    -0.203 A  
HETATM    7  C   UNL     1      -8.854  11.533  65.965  1.00  0.00    -0.144 A  
HETATM    8  H   UNL     1     -11.287  12.630  69.614  1.00  0.00     0.000 HD 
HETATM    9  C   UNL     1      -9.606  10.884  68.563  1.00  0.00    -0.187 A  
HETATM   10  O   UNL     1      -8.900  14.852  66.185  1.00  0.00    -0.176 OA 
HETATM   11  O   UNL     1     -10.647  13.718  64.762  1.00  0.00    -0.386 OA 
HETATM   12  C   UNL     1      -8.865   9.962  67.799  1.00  0.00    -0.129 A  
HETATM   13  C   UNL     1      -8.484  10.295  66.497  1.00  0.00    -0.125 A  
HETATM   14  S   UNL     1     -10.039  13.969  66.051  1.00  0.00    -0.322 S  
HETATM   15  C   UNL     1      -9.583  12.429  66.751  1.00  0.00    -0.224 A  
ENDROOT
BRANCH   3  16
HETATM   16  C   UNL     1     -11.747  15.127  69.504  1.00  0.00    -0.327 C  
BRANCH  16  17
HETATM   17  S   UNL     1     -11.255  14.770  71.245  1.00  0.00     0.175 SA 
BRANCH  17  18
HETATM   18  C   UNL     1     -12.167  16.107  72.121  1.00  0.00    -0.473 C  
HETATM   19  F   UNL     1     -13.169  14.371  73.455  1.00  0.00    -0.552 F  
HETATM   20  C   UNL     1     -13.109  15.706  73.256  1.00  0.00    -0.564 C  
HETATM   21  F   UNL     1     -14.368  16.136  73.017  1.00  0.00    -0.665 F  
HETATM   22  F   UNL     1     -12.704  16.264  74.421  1.00  0.00    -0.551 F  
ENDBRANCH  17  18
ENDBRANCH  16  17
ENDBRANCH   3  16
BRANCH  13  23
HETATM   23  S   UNL     1      -7.581   9.188  65.461  1.00  0.00    -0.091 S  
HETATM   24  H2  UNL     1      -8.550  10.488  63.632  1.00  0.00     0.000 HD 
HETATM   25  H1  UNL     1      -7.427   9.074  63.312  1.00  0.00     0.000 HD 
HETATM   26  N   UNL     1      -7.948   9.713  63.911  1.00  0.00    -0.134 N  
HETATM   27  O   UNL     1      -6.170   9.395  65.661  1.00  0.00    -0.062 OA 
HETATM   28  O   UNL     1      -8.181   7.876  65.549  1.00  0.00    -0.125 OA 
ENDBRANCH  13  23
TORSDOF 4
ENDMDL
MODEL      105
REMARK 921   NORMALIZED FREE ENERGY PREDICTED BY IDOCK:   -4.43 KCAL/MOL
REMARK 922        TOTAL FREE ENERGY PREDICTED BY IDOCK:   -5.83 KCAL/MOL
REMARK 923 INTER-LIGAND FREE ENERGY PREDICTED BY IDOCK:   -5.54 KCAL/MOL
REMARK 924 INTRA-LIGAND FREE ENERGY PREDICTED BY IDOCK:   -0.29 KCAL/MOL
REMARK 927      BINDING AFFINITY PREDICTED BY RF-SCORE:    0.00 PKD
ROOT
HETATM    1  C   UNL     1     -11.312   9.451  71.689  1.00  0.00    -0.382 C  
HETATM    2  N   UNL     1     -10.950   9.716  70.281  1.00  0.00    -0.264 N  
HETATM    3  C   UNL     1      -9.516   9.904  70.001  1.00  0.00    -0.202 C  
HETATM    4  N   UNL     1      -9.321   9.740  68.558  1.00  0.00    -0.140 NA 
HETATM    5 CL   UNL     1      -9.665  11.517  63.812  1.00  0.00    -0.296 Cl 
HETATM    6  C   UNL     1     -10.025  10.564  67.683  1.00  0.00    -0.173 A  
HETATM    7  C   UNL     1     -11.965  11.938  67.105  1.00  0.00    -0.045 A  
HETATM    8  H   UNL     1      -8.679   9.033  68.199  1.00  0.00     0.000 HD 
HETATM    9  C   UNL     1      -9.607  10.674  66.348  1.00  0.00    -0.230 A  
HETATM   10  O   UNL     1     -11.423  12.215  70.375  1.00  0.00    -0.044 OA 
HETATM   11  O   UNL     1     -13.222  10.633  69.586  1.00  0.00     0.039 OA 
HETATM   12  C   UNL     1     -10.326  11.433  65.405  1.00  0.00    -0.279 A  
HETATM   13  C   UNL     1     -11.506  12.072  65.792  1.00  0.00    -0.320 A  
HETATM   14  S   UNL     1     -11.832  11.028  69.655  1.00  0.00    -0.369 S  
HETATM   15  C   UNL     1     -11.224  11.184  68.019  1.00  0.00    -0.296 A  
ENDROOT
BRANCH   3  16
HETATM   16  C   UNL     1      -8.612   8.874  70.735  1.00  0.00    -0.199 C  
BRANCH  16  17
HETATM   17  S   UNL     1      -8.805   7.185  70.019  1.00  0.00    -0.141 SA 
BRANCH  17  18
HETATM   18  C   UNL     1      -7.053   6.805  69.603  1.00  0.00    -0.068 C  
HETATM   19  F   UNL     1      -7.076   5.282  71.467  1.00  0.00    -0.057 F  
HETATM   20  C   UNL     1      -6.321   5.775  70.462  1.00  0.00    -0.032 C  
HETATM   21  F   UNL     1      -5.209   6.309  71.016  1.00  0.00    -0.015 F  
HETATM   22  F   UNL     1      -5.931   4.724  69.703  1.00  0.00    -0.015 F  
ENDBRANCH  17  18
ENDBRANCH  16  17
ENDBRANCH   3  16
BRANCH  13  23
HETATM   23  S   UNL     1     -12.484  13.018  64.669  1.00  0.00    -0.372 S  
HETATM   24  H2  UNL     1     -10.444  14.333  64.374  1.00  0.00     0.000 HD 
HETATM   25  H1  UNL     1     -11.987  14.743  63.470  1.00  0.00     0.000 HD 
HETATM   26  N   UNL     1     -11.422  14.196  64.119  1.00  0.00    -0.251 N  
HETATM   27  O   UNL     1     -12.837  12.198  63.539  1.00  0.00    -0.768 OA 
HETATM   28  O   UNL     1     -13.477  13.751  65.422  1.00  0.00    -0.620 OA 
ENDBRANCH  13  23
TORSDOF 4
ENDMDL
MODEL      106
REMARK 921   NORMALIZED FREE ENERGY PREDICTED BY IDOCK:   -4.41 KCAL/MOL
REMARK 922        TOTAL FREE ENERGY PREDICTED BY IDOCK:   -5.80 KCAL/MOL
REMARK 923 INTER-LIGAND FREE ENERGY PREDICTED BY IDOCK:   -5.41 KCAL/MOL
REMARK 924 INTRA-LIGAND FREE ENERGY PREDICTED BY IDOCK:   -0.39 KCAL/MOL
REMARK 927      BINDING AFFINITY PREDICTED BY RF-SCORE:    0.00 PKD
ROOT
HETATM    1  C   UNL     1     -11.277  16.516  68.106  1.00  0.00    -0.241 C  
HETATM    2  N   UNL     1     -10.451  15.315  67.868  1.00  0.00    -0.249 N  
HETATM    3  C   UNL     1      -9.783  15.232  66.558  1.00  0.00    -0.268 C  
HETATM    4  N   UNL     1      -8.721  14.228  66.665  1.00  0.00    -0.439 NA 
HETATM    5 CL   UNL     1      -7.209   9.382  66.851  1.00  0.00    -0.086 Cl 
HETATM    6  C   UNL     1      -9.054  12.929  67.043  1.00  0.00    -0.228 A  
HETATM    7  C   UNL     1     -10.473  11.324  68.224  1.00  0.00    -0.220 A  
HETATM    8  H   UNL     1      -7.752  14.476  66.465  1.00  0.00     0.000 HD 
HETATM    9  C   UNL     1      -8.143  11.887  66.815  1.00  0.00    -0.108 A  
HETATM   10  O   UNL     1     -12.388  13.825  67.155  1.00  0.00    -0.357 OA 
HETATM   11  O   UNL     1     -11.639  13.831  69.564  1.00  0.00    -0.269 OA 
HETATM   12  C   UNL     1      -8.398  10.571  67.245  1.00  0.00    -0.122 A  
HETATM   13  C   UNL     1      -9.573  10.291  67.947  1.00  0.00    -0.145 A  
HETATM   14  S   UNL     1     -11.339  13.892  68.150  1.00  0.00    -0.314 S  
HETATM   15  C   UNL     1     -10.194  12.618  67.777  1.00  0.00    -0.222 A  
ENDROOT
BRANCH   3  16
HETATM   16  C   UNL     1      -9.140  16.576  66.115  1.00  0.00    -0.306 C  
BRANCH  16  17
HETATM   17  S   UNL     1      -7.389  16.698  66.683  1.00  0.00    -0.237 SA 
BRANCH  17  18
HETATM   18  C   UNL     1      -7.646  16.865  68.497  1.00  0.00    -0.221 C  
HETATM   19  F   UNL     1      -6.405  14.817  68.732  1.00  0.00    -0.083 F  
HETATM   20  C   UNL     1      -7.045  15.795  69.407  1.00  0.00    -0.209 C  
HETATM   21  F   UNL     1      -8.001  15.206  70.160  1.00  0.00    -0.132 F  
HETATM   22  F   UNL     1      -6.146  16.349  70.253  1.00  0.00    -0.203 F  
ENDBRANCH  17  18
ENDBRANCH  16  17
ENDBRANCH   3  16
BRANCH  13  23
HETATM   23  S   UNL     1      -9.958   8.678  68.547  1.00  0.00    -0.188 S  
HETATM   24  H2  UNL     1     -10.582   8.223  66.228  1.00  0.00     0.000 HD 
HETATM   25  H1  UNL     1     -10.719   6.935  67.527  1.00  0.00     0.000 HD 
HETATM   26  N   UNL     1     -10.497   7.867  67.180  1.00  0.00    -0.326 N  
HETATM   27  O   UNL     1      -8.747   8.031  68.981  1.00  0.00    -0.136 OA 
HETATM   28  O   UNL     1     -11.125   8.765  69.397  1.00  0.00    -0.099 OA 
ENDBRANCH  13  23
TORSDOF 4
ENDMDL
MODEL      107
REMARK 921   NORMALIZED FREE ENERGY PREDICTED BY IDOCK:   -4.40 KCAL/MOL
REMARK 922        TOTAL FREE ENERGY PREDICTED BY IDOCK:   -5.79 KCAL/MOL
REMARK 923 INTER-LIGAND FREE ENERGY PREDICTED BY IDOCK:   -5.26 KCAL/MOL
REMARK 924 INTRA-LIGAND FREE ENERGY PREDICTED BY IDOCK:   -0.54 KCAL/MOL
REMARK 927      BINDING AFFINITY PREDICTED BY RF-SCORE:    0.00 PKD
ROOT
HETATM    1  C   UNL     1     -12.486  11.912  69.960  1.00  0.00    -0.021 C  
HETATM    2  N   UNL     1     -11.806  10.946  69.071  1.00  0.00    -0.321 N  
HETATM    3  C   UNL     1     -10.882  10.001  69.721  1.00  0.00    -0.273 C  
HETATM    4  N   UNL     1     -10.642   8.901  68.783  1.00  0.00    -0.339 NA 
HETATM    5 CL   UNL     1      -8.383   7.026  64.637  1.00  0.00    -0.016 Cl 
HETATM    6  C   UNL     1     -10.123   9.188  67.523  1.00  0.00    -0.228 A  
HETATM    7  C   UNL     1      -9.810  10.678  65.607  1.00  0.00    -0.307 A  
HETATM    8  H   UNL     1     -10.852   7.938  69.049  1.00  0.00     0.000 HD 
HETATM    9  C   UNL     1      -9.563   8.156  66.754  1.00  0.00    -0.281 A  
HETATM   10  O   UNL     1      -9.945  12.532  68.366  1.00  0.00    -0.224 OA 
HETATM   11  O   UNL     1     -12.022  12.336  66.947  1.00  0.00    -0.578 OA 
HETATM   12  C   UNL     1      -9.093   8.377  65.445  1.00  0.00     0.010 A  
HETATM   13  C   UNL     1      -9.213   9.647  64.876  1.00  0.00    -0.246 A  
HETATM   14  S   UNL     1     -11.011  11.739  67.794  1.00  0.00    -0.242 S  
HETATM   15  C   UNL     1     -10.259  10.428  66.907  1.00  0.00    -0.227 A  
ENDROOT
BRANCH   3  16
HETATM   16  C   UNL     1     -11.448   9.403  71.039  1.00  0.00    -0.334 C  
BRANCH  16  17
HETATM   17  S   UNL     1     -10.564   7.852  71.504  1.00  0.00    -0.227 SA 
BRANCH  17  18
HETATM   18  C   UNL     1      -9.012   8.557  72.197  1.00  0.00    -0.230 C  
HETATM   19  F   UNL     1      -7.843   7.329  70.488  1.00  0.00    -0.091 F  
HETATM   20  C   UNL     1      -7.692   8.183  71.523  1.00  0.00    -0.092 C  
HETATM   21  F   UNL     1      -6.846   7.603  72.404  1.00  0.00    -0.056 F  
HETATM   22  F   UNL     1      -7.081   9.290  71.041  1.00  0.00    -0.085 F  
ENDBRANCH  17  18
ENDBRANCH  16  17
ENDBRANCH   3  16
BRANCH  13  23
HETATM   23  S   UNL     1      -8.678  10.005  63.233  1.00  0.00    -0.245 S  
HETATM   24  H2  UNL     1     -10.200  11.909  63.407  1.00  0.00     0.000 HD 
HETATM   25  H1  UNL     1      -9.223  11.600  61.886  1.00  0.00     0.000 HD 
HETATM   26  N   UNL     1      -9.531  11.394  62.835  1.00  0.00    -0.381 N  
HETATM   27  O   UNL     1      -7.281  10.351  63.253  1.00  0.00    -0.123 OA 
HETATM   28  O   UNL     1      -9.203   8.993  62.344  1.00  0.00    -0.100 OA 
ENDBRANCH  13  23
TORSDOF 4
ENDMDL
MODEL      108
REMARK 921   NORMALIZED FREE ENERGY PREDICTED BY IDOCK:   -4.40 KCAL/MOL
REMARK 922        TOTAL FREE ENERGY PREDICTED BY IDOCK:   -5.79 KCAL/MOL
REMARK 923 INTER-LIGAND FREE ENERGY PREDICTED BY IDOCK:   -5.73 KCAL/MOL
REMARK 924 INTRA-LIGAND FREE ENERGY PREDICTED BY IDOCK:   -0.06 KCAL/MOL
REMARK 927      BINDING AFFINITY PREDICTED BY RF-SCORE:    0.00 PKD
ROOT
HETATM    1  C   UNL     1     -10.459   9.278  67.100  1.00  0.00    -0.249 C  
HETATM    2  N   UNL     1     -10.397  10.634  67.683  1.00  0.00    -0.197 N  
HETATM    3  C   UNL     1     -11.361  10.928  68.757  1.00  0.00    -0.292 C  
HETATM    4  N   UNL     1     -10.885  12.119  69.466  1.00  0.00    -0.449 NA 
HETATM    5 CL   UNL     1     -10.254  17.151  69.745  1.00  0.00     0.035 Cl 
HETATM    6  C   UNL     1     -10.690  13.298  68.751  1.00  0.00    -0.227 A  
HETATM    7  C   UNL     1     -10.165  14.509  66.691  1.00  0.00    -0.276 A  
HETATM    8  H   UNL     1     -10.701  12.084  70.469  1.00  0.00     0.000 HD 
HETATM    9  C   UNL     1     -10.582  14.515  69.440  1.00  0.00    -0.172 A  
HETATM   10  O   UNL     1     -11.819  11.738  65.884  1.00  0.00    -0.414 OA 
HETATM   11  O   UNL     1      -9.305  11.744  65.666  1.00  0.00    -0.221 OA 
HETATM   12  C   UNL     1     -10.309  15.724  68.773  1.00  0.00    -0.220 A  
HETATM   13  C   UNL     1     -10.107  15.718  67.391  1.00  0.00    -0.246 A  
HETATM   14  S   UNL     1     -10.501  11.828  66.476  1.00  0.00    -0.239 S  
HETATM   15  C   UNL     1     -10.445  13.327  67.382  1.00  0.00    -0.243 A  
ENDROOT
BRANCH   3  16
HETATM   16  C   UNL     1     -11.499   9.770  69.786  1.00  0.00    -0.098 C  
BRANCH  16  17
HETATM   17  S   UNL     1      -9.906   9.464  70.665  1.00  0.00    -0.264 SA 
BRANCH  17  18
HETATM   18  C   UNL     1      -9.780   7.637  70.482  1.00  0.00    -0.182 C  
HETATM   19  F   UNL     1      -7.973   8.046  68.944  1.00  0.00    -0.108 F  
HETATM   20  C   UNL     1      -8.700   7.084  69.552  1.00  0.00    -0.134 C  
HETATM   21  F   UNL     1      -9.243   6.315  68.582  1.00  0.00    -0.126 F  
HETATM   22  F   UNL     1      -7.834   6.310  70.247  1.00  0.00    -0.093 F  
ENDBRANCH  17  18
ENDBRANCH  16  17
ENDBRANCH   3  16
BRANCH  13  23
HETATM   23  S   UNL     1      -9.732  17.181  66.480  1.00  0.00    -0.299 S  
HETATM   24  H2  UNL     1      -7.408  16.605  66.972  1.00  0.00     0.000 HD 
HETATM   25  H1  UNL     1      -7.839  18.099  65.998  1.00  0.00     0.000 HD 
HETATM   26  N   UNL     1      -8.056  17.253  66.524  1.00  0.00    -0.254 N  
HETATM   27  O   UNL     1     -10.118  16.997  65.105  1.00  0.00    -0.427 OA 
HETATM   28  O   UNL     1     -10.162  18.328  67.248  1.00  0.00    -0.338 OA 
ENDBRANCH  13  23
TORSDOF 4
ENDMDL
MODEL      109
REMARK 921   NORMALIZED FREE ENERGY PREDICTED BY IDOCK:   -4.40 KCAL/MOL
REMARK 922        TOTAL FREE ENERGY PREDICTED BY IDOCK:   -5.79 KCAL/MOL
REMARK 923 INTER-LIGAND FREE ENERGY PREDICTED BY IDOCK:   -5.51 KCAL/MOL
REMARK 924 INTRA-LIGAND FREE ENERGY PREDICTED BY IDOCK:   -0.27 KCAL/MOL
REMARK 927      BINDING AFFINITY PREDICTED BY RF-SCORE:    0.00 PKD
ROOT
HETATM    1  C   UNL     1     -11.661  13.710  68.155  1.00  0.00    -0.332 C  
HETATM    2  N   UNL     1     -10.639  12.757  68.636  1.00  0.00    -0.248 N  
HETATM    3  C   UNL     1      -9.630  12.329  67.652  1.00  0.00    -0.191 C  
HETATM    4  N   UNL     1      -8.508  11.746  68.392  1.00  0.00    -0.159 NA 
HETATM    5 CL   UNL     1      -6.437   7.907  70.995  1.00  0.00    -0.037 Cl 
HETATM    6  C   UNL     1      -8.746  10.665  69.237  1.00  0.00    -0.077 A  
HETATM    7  C   UNL     1     -10.194   9.362  70.718  1.00  0.00    -0.368 A  
HETATM    8  H   UNL     1      -7.567  12.126  68.290  1.00  0.00     0.000 HD 
HETATM    9  C   UNL     1      -7.669   9.878  69.673  1.00  0.00    -0.149 A  
HETATM   10  O   UNL     1     -12.072  10.679  68.309  1.00  0.00    -0.423 OA 
HETATM   11  O   UNL     1     -12.027  11.822  70.557  1.00  0.00    -0.356 OA 
HETATM   12  C   UNL     1      -7.844   8.821  70.587  1.00  0.00    -0.107 A  
HETATM   13  C   UNL     1      -9.116   8.561  71.104  1.00  0.00    -0.190 A  
HETATM   14  S   UNL     1     -11.359  11.390  69.348  1.00  0.00    -0.312 S  
HETATM   15  C   UNL     1      -9.988  10.399  69.804  1.00  0.00    -0.124 A  
ENDROOT
BRANCH   3  16
HETATM   16  C   UNL     1      -9.087  13.502  66.788  1.00  0.00    -0.212 C  
BRANCH  16  17
HETATM   17  S   UNL     1      -8.056  14.653  67.796  1.00  0.00    -0.167 SA 
BRANCH  17  18
HETATM   18  C   UNL     1      -8.223  16.193  66.802  1.00  0.00    -0.269 C  
HETATM   19  F   UNL     1     -10.301  16.562  67.959  1.00  0.00    -0.253 F  
HETATM   20  C   UNL     1      -9.454  17.068  67.038  1.00  0.00    -0.250 C  
HETATM   21  F   UNL     1     -10.154  17.238  65.894  1.00  0.00    -0.299 F  
HETATM   22  F   UNL     1      -9.081  18.295  67.471  1.00  0.00    -0.249 F  
ENDBRANCH  17  18
ENDBRANCH  16  17
ENDBRANCH   3  16
BRANCH  13  23
HETATM   23  S   UNL     1      -9.419   7.277  72.274  1.00  0.00    -0.143 S  
HETATM   24  H2  UNL     1      -8.015   8.621  73.756  1.00  0.00     0.000 HD 
HETATM   25  H1  UNL     1      -8.748   7.034  74.311  1.00  0.00     0.000 HD 
HETATM   26  N   UNL     1      -8.573   7.776  73.634  1.00  0.00    -0.214 N  
HETATM   27  O   UNL     1     -10.817   7.268  72.618  1.00  0.00    -0.246 OA 
HETATM   28  O   UNL     1      -8.731   6.081  71.841  1.00  0.00    -0.136 OA 
ENDBRANCH  13  23
TORSDOF 4
ENDMDL
MODEL      110
REMARK 921   NORMALIZED FREE ENERGY PREDICTED BY IDOCK:   -4.38 KCAL/MOL
REMARK 922        TOTAL FREE ENERGY PREDICTED BY IDOCK:   -5.77 KCAL/MOL
REMARK 923 INTER-LIGAND FREE ENERGY PREDICTED BY IDOCK:   -5.28 KCAL/MOL
REMARK 924 INTRA-LIGAND FREE ENERGY PREDICTED BY IDOCK:   -0.49 KCAL/MOL
REMARK 927      BINDING AFFINITY PREDICTED BY RF-SCORE:    0.00 PKD
ROOT
HETATM    1  C   UNL     1     -10.465  13.362  65.406  1.00  0.00    -0.302 C  
HETATM    2  N   UNL     1     -10.593  11.999  65.963  1.00  0.00    -0.258 N  
HETATM    3  C   UNL     1     -10.895  11.908  67.402  1.00  0.00    -0.243 C  
HETATM    4  N   UNL     1     -11.382  10.552  67.667  1.00  0.00    -0.519 NA 
HETATM    5 CL   UNL     1     -10.523   5.591  68.346  1.00  0.00    -0.247 Cl 
HETATM    6  C   UNL     1     -10.569   9.467  67.345  1.00  0.00    -0.271 A  
HETATM    7  C   UNL     1      -8.819   8.406  66.004  1.00  0.00    -0.202 A  
HETATM    8  H   UNL     1     -12.302  10.404  68.082  1.00  0.00     0.000 HD 
HETATM    9  C   UNL     1     -10.845   8.208  67.898  1.00  0.00    -0.038 A  
HETATM   10  O   UNL     1      -8.096  11.640  66.301  1.00  0.00    -0.088 OA 
HETATM   11  O   UNL     1      -9.194  10.845  64.173  1.00  0.00    -0.203 OA 
HETATM   12  C   UNL     1     -10.102   7.064  67.548  1.00  0.00    -0.185 A  
HETATM   13  C   UNL     1      -9.081   7.170  66.601  1.00  0.00    -0.149 A  
HETATM   14  S   UNL     1      -9.223  11.057  65.604  1.00  0.00    -0.212 S  
HETATM   15  C   UNL     1      -9.570   9.524  66.379  1.00  0.00    -0.213 A  
ENDROOT
BRANCH   3  16
HETATM   16  C   UNL     1     -11.987  12.916  67.860  1.00  0.00    -0.282 C  
BRANCH  16  17
HETATM   17  S   UNL     1     -11.574  13.648  69.502  1.00  0.00    -0.292 SA 
BRANCH  17  18
HETATM   18  C   UNL     1     -11.375  15.416  69.028  1.00  0.00    -0.316 C  
HETATM   19  F   UNL     1      -9.159  14.835  68.290  1.00  0.00    -0.162 F  
HETATM   20  C   UNL     1     -10.051  15.843  68.396  1.00  0.00    -0.223 C  
HETATM   21  F   UNL     1      -9.466  16.827  69.115  1.00  0.00    -0.251 F  
HETATM   22  F   UNL     1     -10.261  16.322  67.148  1.00  0.00    -0.252 F  
ENDBRANCH  17  18
ENDBRANCH  16  17
ENDBRANCH   3  16
BRANCH  13  23
HETATM   23  S   UNL     1      -8.120   5.784  66.082  1.00  0.00    -0.112 S  
HETATM   24  H2  UNL     1      -7.274   5.815  68.375  1.00  0.00     0.000 HD 
HETATM   25  H1  UNL     1      -6.697   4.570  67.158  1.00  0.00     0.000 HD 
HETATM   26  N   UNL     1      -7.252   5.371  67.458  1.00  0.00    -0.074 N  
HETATM   27  O   UNL     1      -8.999   4.683  65.783  1.00  0.00    -0.125 OA 
HETATM   28  O   UNL     1      -7.117   6.239  65.146  1.00  0.00    -0.057 OA 
ENDBRANCH  13  23
TORSDOF 4
ENDMDL
MODEL      111
REMARK 921   NORMALIZED FREE ENERGY PREDICTED BY IDOCK:   -4.35 KCAL/MOL
REMARK 922        TOTAL FREE ENERGY PREDICTED BY IDOCK:   -5.72 KCAL/MOL
REMARK 923 INTER-LIGAND FREE ENERGY PREDICTED BY IDOCK:   -5.20 KCAL/MOL
REMARK 924 INTRA-LIGAND FREE ENERGY PREDICTED BY IDOCK:   -0.53 KCAL/MOL
REMARK 927      BINDING AFFINITY PREDICTED BY RF-SCORE:    0.00 PKD
ROOT
HETATM    1  C   UNL     1      -5.949   6.670  69.965  1.00  0.00    -0.023 C  
HETATM    2  N   UNL     1      -7.073   7.620  70.093  1.00  0.00    -0.058 N  
HETATM    3  C   UNL     1      -8.291   7.106  70.742  1.00  0.00    -0.128 C  
HETATM    4  N   UNL     1      -9.101   8.260  71.142  1.00  0.00    -0.152 NA 
HETATM    5 CL   UNL     1     -12.273  12.057  69.993  1.00  0.00    -0.315 Cl 
HETATM    6  C   UNL     1      -9.503   9.173  70.170  1.00  0.00    -0.208 A  
HETATM    7  C   UNL     1      -9.188  10.334  68.039  1.00  0.00    -0.138 A  
HETATM    8  H   UNL     1      -9.367   8.393  72.118  1.00  0.00     0.000 HD 
HETATM    9  C   UNL     1     -10.546  10.068  70.450  1.00  0.00    -0.343 A  
HETATM   10  O   UNL     1      -7.974   7.251  67.742  1.00  0.00    -0.111 OA 
HETATM   11  O   UNL     1      -6.360   9.140  68.177  1.00  0.00    -0.054 OA 
HETATM   12  C   UNL     1     -10.941  11.060  69.532  1.00  0.00    -0.243 A  
HETATM   13  C   UNL     1     -10.260  11.185  68.319  1.00  0.00    -0.182 A  
HETATM   14  S   UNL     1      -7.471   8.310  68.590  1.00  0.00    -0.099 S  
HETATM   15  C   UNL     1      -8.826   9.355  68.968  1.00  0.00    -0.141 A  
ENDROOT
BRANCH   3  16
HETATM   16  C   UNL     1      -7.995   6.256  72.009  1.00  0.00    -0.109 C  
BRANCH  16  17
HETATM   17  S   UNL     1      -9.175   4.846  72.159  1.00  0.00    -0.136 SA 
BRANCH  17  18
HETATM   18  C   UNL     1     -10.575   5.684  73.011  1.00  0.00    -0.242 C  
HETATM   19  F   UNL     1     -11.444   6.177  70.821  1.00  0.00    -0.361 F  
HETATM   20  C   UNL     1     -11.671   6.305  72.146  1.00  0.00    -0.319 C  
HETATM   21  F   UNL     1     -11.804   7.625  72.407  1.00  0.00    -0.302 F  
HETATM   22  F   UNL     1     -12.862   5.718  72.405  1.00  0.00    -0.251 F  
ENDBRANCH  17  18
ENDBRANCH  16  17
ENDBRANCH   3  16
BRANCH  13  23
HETATM   23  S   UNL     1     -10.669  12.417  67.125  1.00  0.00    -0.241 S  
HETATM   24  H2  UNL     1      -9.999  13.991  68.871  1.00  0.00     0.000 HD 
HETATM   25  H1  UNL     1     -10.584  14.571  67.232  1.00  0.00     0.000 HD 
HETATM   26  N   UNL     1     -10.347  13.859  67.922  1.00  0.00    -0.236 N  
HETATM   27  O   UNL     1      -9.754  12.327  66.016  1.00  0.00    -0.242 OA 
HETATM   28  O   UNL     1     -12.102  12.423  66.935  1.00  0.00    -0.564 OA 
ENDBRANCH  13  23
TORSDOF 4
ENDMDL
MODEL      112
REMARK 921   NORMALIZED FREE ENERGY PREDICTED BY IDOCK:   -4.34 KCAL/MOL
REMARK 922        TOTAL FREE ENERGY PREDICTED BY IDOCK:   -5.72 KCAL/MOL
REMARK 923 INTER-LIGAND FREE ENERGY PREDICTED BY IDOCK:   -5.69 KCAL/MOL
REMARK 924 INTRA-LIGAND FREE ENERGY PREDICTED BY IDOCK:   -0.03 KCAL/MOL
REMARK 927      BINDING AFFINITY PREDICTED BY RF-SCORE:    0.00 PKD
ROOT
HETATM    1  C   UNL     1      -7.118   7.711  71.041  1.00  0.00    -0.054 C  
HETATM    2  N   UNL     1      -8.110   8.551  70.339  1.00  0.00    -0.102 N  
HETATM    3  C   UNL     1      -9.032   7.851  69.428  1.00  0.00    -0.145 C  
HETATM    4  N   UNL     1     -10.160   8.748  69.164  1.00  0.00    -0.192 NA 
HETATM    5 CL   UNL     1     -12.157  12.777  66.802  1.00  0.00    -0.381 Cl 
HETATM    6  C   UNL     1      -9.911  10.003  68.615  1.00  0.00    -0.165 A  
HETATM    7  C   UNL     1      -8.481  11.956  68.259  1.00  0.00    -0.161 A  
HETATM    8  H   UNL     1     -11.114   8.456  69.378  1.00  0.00     0.000 HD 
HETATM    9  C   UNL     1     -10.965  10.726  68.035  1.00  0.00    -0.336 A  
HETATM   10  O   UNL     1      -6.542   9.262  68.464  1.00  0.00    -0.053 OA 
HETATM   11  O   UNL     1      -6.788  10.723  70.506  1.00  0.00    -0.285 OA 
HETATM   12  C   UNL     1     -10.784  12.029  67.534  1.00  0.00    -0.226 A  
HETATM   13  C   UNL     1      -9.532  12.641  67.643  1.00  0.00    -0.189 A  
HETATM   14  S   UNL     1      -7.355   9.834  69.515  1.00  0.00    -0.107 S  
HETATM   15  C   UNL     1      -8.692  10.661  68.739  1.00  0.00    -0.157 A  
ENDROOT
BRANCH   3  16
HETATM   16  C   UNL     1      -9.589   6.528  70.025  1.00  0.00    -0.159 C  
BRANCH  16  17
HETATM   17  S   UNL     1     -10.482   6.834  71.610  1.00  0.00    -0.210 SA 
BRANCH  17  18
HETATM   18  C   UNL     1     -12.177   7.159  70.970  1.00  0.00    -0.343 C  
HETATM   19  F   UNL     1     -12.438   8.689  72.810  1.00  0.00    -0.454 F  
HETATM   20  C   UNL     1     -13.044   8.170  71.721  1.00  0.00    -0.345 C  
HETATM   21  F   UNL     1     -14.201   7.605  72.132  1.00  0.00    -0.388 F  
HETATM   22  F   UNL     1     -13.363   9.206  70.911  1.00  0.00    -0.255 F  
ENDBRANCH  17  18
ENDBRANCH  16  17
ENDBRANCH   3  16
BRANCH  13  23
HETATM   23  S   UNL     1      -9.225  14.281  67.069  1.00  0.00    -0.248 S  
HETATM   24  H2  UNL     1     -10.770  14.936  68.847  1.00  0.00     0.000 HD 
HETATM   25  H1  UNL     1      -9.988  16.181  67.750  1.00  0.00     0.000 HD 
HETATM   26  N   UNL     1     -10.165  15.233  68.082  1.00  0.00    -0.228 N  
HETATM   27  O   UNL     1      -7.848  14.621  67.317  1.00  0.00    -0.192 OA 
HETATM   28  O   UNL     1      -9.829  14.437  65.765  1.00  0.00    -0.317 OA 
ENDBRANCH  13  23
TORSDOF 4
ENDMDL
MODEL      113
REMARK 921   NORMALIZED FREE ENERGY PREDICTED BY IDOCK:   -4.31 KCAL/MOL
REMARK 922        TOTAL FREE ENERGY PREDICTED BY IDOCK:   -5.68 KCAL/MOL
REMARK 923 INTER-LIGAND FREE ENERGY PREDICTED BY IDOCK:   -5.27 KCAL/MOL
REMARK 924 INTRA-LIGAND FREE ENERGY PREDICTED BY IDOCK:   -0.41 KCAL/MOL
REMARK 927      BINDING AFFINITY PREDICTED BY RF-SCORE:    0.00 PKD
ROOT
HETATM    1  C   UNL     1     -11.955  14.057  66.131  1.00  0.00    -0.420 C  
HETATM    2  N   UNL     1     -10.696  14.400  66.825  1.00  0.00    -0.289 N  
HETATM    3  C   UNL     1     -10.358  13.585  68.004  1.00  0.00    -0.241 C  
HETATM    4  N   UNL     1      -8.935  13.787  68.289  1.00  0.00    -0.185 NA 
HETATM    5 CL   UNL     1      -5.148  16.616  70.149  1.00  0.00    -0.165 Cl 
HETATM    6  C   UNL     1      -8.471  15.077  68.531  1.00  0.00    -0.163 A  
HETATM    7  C   UNL     1      -8.594  17.504  68.239  1.00  0.00    -0.266 A  
HETATM    8  H   UNL     1      -8.294  12.994  68.311  1.00  0.00     0.000 HD 
HETATM    9  C   UNL     1      -7.221  15.260  69.141  1.00  0.00    -0.169 A  
HETATM   10  O   UNL     1     -11.690  16.287  68.213  1.00  0.00    -0.238 OA 
HETATM   11  O   UNL     1     -10.586  16.809  66.006  1.00  0.00    -0.307 OA 
HETATM   12  C   UNL     1      -6.672  16.542  69.339  1.00  0.00    -0.213 A  
HETATM   13  C   UNL     1      -7.368  17.666  68.891  1.00  0.00    -0.239 A  
HETATM   14  S   UNL     1     -10.650  16.049  67.235  1.00  0.00    -0.296 S  
HETATM   15  C   UNL     1      -9.115  16.219  68.065  1.00  0.00    -0.188 A  
ENDROOT
BRANCH   3  16
HETATM   16  C   UNL     1     -10.601  12.065  67.785  1.00  0.00    -0.207 C  
BRANCH  16  17
HETATM   17  S   UNL     1      -9.189  11.064  68.424  1.00  0.00    -0.181 SA 
BRANCH  17  18
HETATM   18  C   UNL     1     -10.069   9.510  68.869  1.00  0.00    -0.188 C  
HETATM   19  F   UNL     1      -9.430   8.680  66.701  1.00  0.00    -0.185 F  
HETATM   20  C   UNL     1     -10.073   8.372  67.848  1.00  0.00    -0.203 C  
HETATM   21  F   UNL     1     -11.336   8.019  67.521  1.00  0.00    -0.031 F  
HETATM   22  F   UNL     1      -9.466   7.278  68.363  1.00  0.00    -0.142 F  
ENDBRANCH  17  18
ENDBRANCH  16  17
ENDBRANCH   3  16
BRANCH  13  23
HETATM   23  S   UNL     1      -6.741  19.305  69.072  1.00  0.00    -0.327 S  
HETATM   24  H2  UNL     1      -8.567  19.915  67.566  1.00  0.00     0.000 HD 
HETATM   25  H1  UNL     1      -7.406  21.174  68.223  1.00  0.00     0.000 HD 
HETATM   26  N   UNL     1      -7.769  20.227  68.119  1.00  0.00    -0.189 N  
HETATM   27  O   UNL     1      -6.919  19.734  70.435  1.00  0.00    -0.043 OA 
HETATM   28  O   UNL     1      -5.461  19.388  68.405  1.00  0.00    -0.194 OA 
ENDBRANCH  13  23
TORSDOF 4
ENDMDL
MODEL      114
REMARK 921   NORMALIZED FREE ENERGY PREDICTED BY IDOCK:   -4.31 KCAL/MOL
REMARK 922        TOTAL FREE ENERGY PREDICTED BY IDOCK:   -5.68 KCAL/MOL
REMARK 923 INTER-LIGAND FREE ENERGY PREDICTED BY IDOCK:   -4.98 KCAL/MOL
REMARK 924 INTRA-LIGAND FREE ENERGY PREDICTED BY IDOCK:   -0.70 KCAL/MOL
REMARK 927      BINDING AFFINITY PREDICTED BY RF-SCORE:    0.00 PKD
ROOT
HETATM    1  C   UNL     1      -7.008   8.271  66.403  1.00  0.00    -0.067 C  
HETATM    2  N   UNL     1      -7.782   7.674  67.511  1.00  0.00    -0.115 N  
HETATM    3  C   UNL     1      -8.062   6.231  67.409  1.00  0.00    -0.109 C  
HETATM    4  N   UNL     1      -8.451   5.760  68.740  1.00  0.00    -0.107 NA 
HETATM    5 CL   UNL     1     -11.876   5.350  72.469  1.00  0.00    -0.204 Cl 
HETATM    6  C   UNL     1      -9.542   6.350  69.374  1.00  0.00    -0.142 A  
HETATM    7  C   UNL     1     -11.030   8.248  69.786  1.00  0.00    -0.132 A  
HETATM    8  H   UNL     1      -7.931   5.010  69.196  1.00  0.00     0.000 HD 
HETATM    9  C   UNL     1     -10.144   5.700  70.463  1.00  0.00    -0.280 A  
HETATM   10  O   UNL     1     -10.063   8.346  66.605  1.00  0.00    -0.266 OA 
HETATM   11  O   UNL     1      -8.890   9.841  68.264  1.00  0.00    -0.119 OA 
HETATM   12  C   UNL     1     -11.200   6.287  71.186  1.00  0.00    -0.305 A  
HETATM   13  C   UNL     1     -11.647   7.564  70.838  1.00  0.00    -0.286 A  
HETATM   14  S   UNL     1      -9.232   8.522  67.776  1.00  0.00    -0.134 S  
HETATM   15  C   UNL     1      -9.989   7.634  69.083  1.00  0.00    -0.181 A  
ENDROOT
BRANCH   3  16
HETATM   16  C   UNL     1      -6.833   5.404  66.938  1.00  0.00    -0.063 C  
BRANCH  16  17
HETATM   17  S   UNL     1      -7.161   4.582  65.319  1.00  0.00    -0.069 SA 
BRANCH  17  18
HETATM   18  C   UNL     1      -8.850   5.223  64.966  1.00  0.00    -0.110 C  
HETATM   19  F   UNL     1      -9.686   3.315  66.172  1.00  0.00    -0.156 F  
HETATM   20  C   UNL     1     -10.042   4.434  65.506  1.00  0.00    -0.236 C  
HETATM   21  F   UNL     1     -10.871   4.062  64.505  1.00  0.00    -0.282 F  
HETATM   22  F   UNL     1     -10.759   5.197  66.364  1.00  0.00    -0.291 F  
ENDBRANCH  17  18
ENDBRANCH  16  17
ENDBRANCH   3  16
BRANCH  13  23
HETATM   23  S   UNL     1     -12.943   8.385  71.708  1.00  0.00    -0.353 S  
HETATM   24  H2  UNL     1     -12.426  10.260  70.227  1.00  0.00     0.000 HD 
HETATM   25  H1  UNL     1     -13.752  10.374  71.490  1.00  0.00     0.000 HD 
HETATM   26  N   UNL     1     -13.003   9.900  70.987  1.00  0.00    -0.350 N  
HETATM   27  O   UNL     1     -14.194   7.728  71.428  1.00  0.00    -0.405 OA 
HETATM   28  O   UNL     1     -12.502   8.647  73.059  1.00  0.00    -0.215 OA 
ENDBRANCH  13  23
TORSDOF 4
ENDMDL
MODEL      115
REMARK 921   NORMALIZED FREE ENERGY PREDICTED BY IDOCK:   -4.26 KCAL/MOL
REMARK 922        TOTAL FREE ENERGY PREDICTED BY IDOCK:   -5.62 KCAL/MOL
REMARK 923 INTER-LIGAND FREE ENERGY PREDICTED BY IDOCK:   -5.21 KCAL/MOL
REMARK 924 INTRA-LIGAND FREE ENERGY PREDICTED BY IDOCK:   -0.41 KCAL/MOL
REMARK 927      BINDING AFFINITY PREDICTED BY RF-SCORE:    0.00 PKD
ROOT
HETATM    1  C   UNL     1     -10.415   7.444  72.279  1.00  0.00    -0.223 C  
HETATM    2  N   UNL     1      -9.995   7.667  70.880  1.00  0.00    -0.181 N  
HETATM    3  C   UNL     1     -10.679   8.755  70.159  1.00  0.00    -0.224 C  
HETATM    4  N   UNL     1      -9.869   9.085  68.983  1.00  0.00    -0.171 NA 
HETATM    5 CL   UNL     1      -8.266   8.049  64.276  1.00  0.00    -0.113 Cl 
HETATM    6  C   UNL     1      -9.587   8.086  68.055  1.00  0.00    -0.152 A  
HETATM    7  C   UNL     1      -9.223   5.743  67.451  1.00  0.00    -0.109 A  
HETATM    8  H   UNL     1      -9.517  10.033  68.847  1.00  0.00     0.000 HD 
HETATM    9  C   UNL     1      -9.131   8.439  66.776  1.00  0.00    -0.192 A  
HETATM   10  O   UNL     1     -11.484   5.857  69.888  1.00  0.00    -0.309 OA 
HETATM   11  O   UNL     1      -9.095   5.316  70.490  1.00  0.00    -0.135 OA 
HETATM   12  C   UNL     1      -8.761   7.468  65.825  1.00  0.00    -0.118 A  
HETATM   13  C   UNL     1      -8.815   6.115  66.167  1.00  0.00    -0.152 A  
HETATM   14  S   UNL     1     -10.089   6.231  69.973  1.00  0.00    -0.182 S  
HETATM   15  C   UNL     1      -9.591   6.731  68.368  1.00  0.00    -0.125 A  
ENDROOT
BRANCH   3  16
HETATM   16  C   UNL     1     -10.844  10.042  71.015  1.00  0.00    -0.116 C  
BRANCH  16  17
HETATM   17  S   UNL     1     -12.567  10.694  70.915  1.00  0.00    -0.432 SA 
BRANCH  17  18
HETATM   18  C   UNL     1     -12.226  12.451  70.486  1.00  0.00    -0.295 C  
HETATM   19  F   UNL     1     -13.568  13.044  72.394  1.00  0.00    -0.575 F  
HETATM   20  C   UNL     1     -12.820  13.536  71.383  1.00  0.00    -0.355 C  
HETATM   21  F   UNL     1     -13.604  14.377  70.672  1.00  0.00    -0.352 F  
HETATM   22  F   UNL     1     -11.833  14.275  71.941  1.00  0.00    -0.335 F  
ENDBRANCH  17  18
ENDBRANCH  16  17
ENDBRANCH   3  16
BRANCH  13  23
HETATM   23  S   UNL     1      -8.342   4.835  65.048  1.00  0.00    -0.138 S  
HETATM   24  H2  UNL     1      -8.757   3.351  66.946  1.00  0.00     0.000 HD 
HETATM   25  H1  UNL     1      -8.198   2.700  65.324  1.00  0.00     0.000 HD 
HETATM   26  N   UNL     1      -8.472   3.439  65.970  1.00  0.00    -0.107 N  
HETATM   27  O   UNL     1      -9.316   4.744  63.991  1.00  0.00    -0.070 OA 
HETATM   28  O   UNL     1      -6.927   4.957  64.776  1.00  0.00    -0.048 OA 
ENDBRANCH  13  23
TORSDOF 4
ENDMDL
MODEL      116
REMARK 921   NORMALIZED FREE ENERGY PREDICTED BY IDOCK:   -4.22 KCAL/MOL
REMARK 922        TOTAL FREE ENERGY PREDICTED BY IDOCK:   -5.57 KCAL/MOL
REMARK 923 INTER-LIGAND FREE ENERGY PREDICTED BY IDOCK:   -4.93 KCAL/MOL
REMARK 924 INTRA-LIGAND FREE ENERGY PREDICTED BY IDOCK:   -0.63 KCAL/MOL
REMARK 927      BINDING AFFINITY PREDICTED BY RF-SCORE:    0.00 PKD
ROOT
HETATM    1  C   UNL     1     -12.355   8.840  72.435  1.00  0.00    -0.344 C  
HETATM    2  N   UNL     1     -11.824   8.270  71.179  1.00  0.00    -0.281 N  
HETATM    3  C   UNL     1     -11.171   6.953  71.284  1.00  0.00    -0.268 C  
HETATM    4  N   UNL     1     -11.093   6.388  69.935  1.00  0.00    -0.345 NA 
HETATM    5 CL   UNL     1      -8.957   6.192  65.330  1.00  0.00    -0.029 Cl 
HETATM    6  C   UNL     1     -10.429   7.102  68.940  1.00  0.00    -0.207 A  
HETATM    7  C   UNL     1      -9.663   9.197  67.935  1.00  0.00    -0.182 A  
HETATM    8  H   UNL     1     -11.519   5.485  69.727  1.00  0.00     0.000 HD 
HETATM    9  C   UNL     1     -10.037   6.447  67.763  1.00  0.00    -0.171 A  
HETATM   10  O   UNL     1      -9.624   9.547  71.243  1.00  0.00    -0.201 OA 
HETATM   11  O   UNL     1     -11.578  10.492  69.958  1.00  0.00    -0.265 OA 
HETATM   12  C   UNL     1      -9.431   7.137  66.696  1.00  0.00    -0.170 A  
HETATM   13  C   UNL     1      -9.238   8.517  66.790  1.00  0.00    -0.172 A  
HETATM   14  S   UNL     1     -10.784   9.365  70.397  1.00  0.00    -0.287 S  
HETATM   15  C   UNL     1     -10.255   8.481  68.980  1.00  0.00    -0.207 A  
ENDROOT
BRANCH   3  16
HETATM   16  C   UNL     1     -11.951   5.956  72.187  1.00  0.00    -0.130 C  
BRANCH  16  17
HETATM   17  S   UNL     1     -10.830   5.135  73.400  1.00  0.00    -0.321 SA 
BRANCH  17  18
HETATM   18  C   UNL     1     -10.407   3.606  72.467  1.00  0.00    -0.127 C  
HETATM   19  F   UNL     1      -8.775   4.929  71.292  1.00  0.00    -0.116 F  
HETATM   20  C   UNL     1      -9.298   3.690  71.419  1.00  0.00    -0.141 C  
HETATM   21  F   UNL     1      -9.752   3.317  70.202  1.00  0.00    -0.242 F  
HETATM   22  F   UNL     1      -8.280   2.860  71.745  1.00  0.00    -0.055 F  
ENDBRANCH  17  18
ENDBRANCH  16  17
ENDBRANCH   3  16
BRANCH  13  23
HETATM   23  S   UNL     1      -8.514   9.464  65.490  1.00  0.00    -0.152 S  
HETATM   24  H2  UNL     1      -8.243  11.178  67.211  1.00  0.00     0.000 HD 
HETATM   25  H1  UNL     1      -7.687  11.458  65.485  1.00  0.00     0.000 HD 
HETATM   26  N   UNL     1      -8.105  10.910  66.237  1.00  0.00    -0.162 N  
HETATM   27  O   UNL     1      -7.288   8.836  65.071  1.00  0.00    -0.086 OA 
HETATM   28  O   UNL     1      -9.549   9.826  64.547  1.00  0.00    -0.273 OA 
ENDBRANCH  13  23
TORSDOF 4
ENDMDL
MODEL      117
REMARK 921   NORMALIZED FREE ENERGY PREDICTED BY IDOCK:   -4.22 KCAL/MOL
REMARK 922        TOTAL FREE ENERGY PREDICTED BY IDOCK:   -5.57 KCAL/MOL
REMARK 923 INTER-LIGAND FREE ENERGY PREDICTED BY IDOCK:   -5.15 KCAL/MOL
REMARK 924 INTRA-LIGAND FREE ENERGY PREDICTED BY IDOCK:   -0.41 KCAL/MOL
REMARK 927      BINDING AFFINITY PREDICTED BY RF-SCORE:    0.00 PKD
ROOT
HETATM    1  C   UNL     1     -10.486  12.223  67.626  1.00  0.00    -0.214 C  
HETATM    2  N   UNL     1      -9.470  13.269  67.384  1.00  0.00    -0.211 N  
HETATM    3  C   UNL     1      -8.273  13.226  68.241  1.00  0.00    -0.156 C  
HETATM    4  N   UNL     1      -7.238  14.041  67.599  1.00  0.00    -0.167 NA 
HETATM    5 CL   UNL     1      -5.261  18.570  66.425  1.00  0.00    -0.160 Cl 
HETATM    6  C   UNL     1      -7.505  15.380  67.326  1.00  0.00    -0.207 A  
HETATM    7  C   UNL     1      -9.044  17.211  66.811  1.00  0.00    -0.266 A  
HETATM    8  H   UNL     1      -6.336  13.633  67.354  1.00  0.00     0.000 HD 
HETATM    9  C   UNL     1      -6.444  16.255  67.047  1.00  0.00    -0.161 A  
HETATM   10  O   UNL     1     -10.614  15.052  68.795  1.00  0.00    -0.226 OA 
HETATM   11  O   UNL     1     -11.060  14.947  66.314  1.00  0.00    -0.335 OA 
HETATM   12  C   UNL     1      -6.664  17.600  66.692  1.00  0.00    -0.209 A  
HETATM   13  C   UNL     1      -7.972  18.078  66.581  1.00  0.00    -0.251 A  
HETATM   14  S   UNL     1     -10.160  14.822  67.440  1.00  0.00    -0.231 S  
HETATM   15  C   UNL     1      -8.793  15.884  67.169  1.00  0.00    -0.207 A  
ENDROOT
BRANCH   3  16
HETATM   16  C   UNL     1      -7.712  11.789  68.434  1.00  0.00    -0.131 C  
BRANCH  16  17
HETATM   17  S   UNL     1      -6.641  11.294  67.015  1.00  0.00    -0.128 SA 
BRANCH  17  18
HETATM   18  C   UNL     1      -7.872  10.410  65.971  1.00  0.00    -0.142 C  
HETATM   19  F   UNL     1      -7.553   8.518  67.424  1.00  0.00    -0.091 F  
HETATM   20  C   UNL     1      -8.232   8.974  66.350  1.00  0.00    -0.111 C  
HETATM   21  F   UNL     1      -7.986   8.127  65.326  1.00  0.00    -0.096 F  
HETATM   22  F   UNL     1      -9.550   8.883  66.644  1.00  0.00    -0.196 F  
ENDBRANCH  17  18
ENDBRANCH  16  17
ENDBRANCH   3  16
BRANCH  13  23
HETATM   23  S   UNL     1      -8.338  19.739  66.114  1.00  0.00    -0.284 S  
HETATM   24  H2  UNL     1      -7.422  20.306  68.308  1.00  0.00     0.000 HD 
HETATM   25  H1  UNL     1      -8.050  21.599  67.168  1.00  0.00     0.000 HD 
HETATM   26  N   UNL     1      -7.838  20.639  67.438  1.00  0.00    -0.323 N  
HETATM   27  O   UNL     1      -7.505  20.114  65.001  1.00  0.00    -0.241 OA 
HETATM   28  O   UNL     1      -9.774  19.907  66.085  1.00  0.00    -0.410 OA 
ENDBRANCH  13  23
TORSDOF 4
ENDMDL
MODEL      118
REMARK 921   NORMALIZED FREE ENERGY PREDICTED BY IDOCK:   -4.21 KCAL/MOL
REMARK 922        TOTAL FREE ENERGY PREDICTED BY IDOCK:   -5.55 KCAL/MOL
REMARK 923 INTER-LIGAND FREE ENERGY PREDICTED BY IDOCK:   -5.00 KCAL/MOL
REMARK 924 INTRA-LIGAND FREE ENERGY PREDICTED BY IDOCK:   -0.56 KCAL/MOL
REMARK 927      BINDING AFFINITY PREDICTED BY RF-SCORE:    0.00 PKD
ROOT
HETATM    1  C   UNL     1      -8.802  11.228  65.828  1.00  0.00    -0.148 C  
HETATM    2  N   UNL     1      -9.174  10.190  66.811  1.00  0.00    -0.149 N  
HETATM    3  C   UNL     1      -9.157  10.595  68.227  1.00  0.00    -0.153 C  
HETATM    4  N   UNL     1      -9.929   9.604  68.981  1.00  0.00    -0.177 NA 
HETATM    5 CL   UNL     1     -10.355   5.019  71.125  1.00  0.00    -0.280 Cl 
HETATM    6  C   UNL     1      -9.545   8.266  68.929  1.00  0.00    -0.153 A  
HETATM    7  C   UNL     1      -8.510   6.362  67.793  1.00  0.00    -0.117 A  
HETATM    8  H   UNL     1     -10.735   9.890  69.537  1.00  0.00     0.000 HD 
HETATM    9  C   UNL     1     -10.029   7.369  69.894  1.00  0.00    -0.188 A  
HETATM   10  O   UNL     1      -6.868   9.120  66.922  1.00  0.00    -0.078 OA 
HETATM   11  O   UNL     1      -8.595   8.198  65.332  1.00  0.00    -0.160 OA 
HETATM   12  C   UNL     1      -9.733   5.993  69.843  1.00  0.00    -0.163 A  
HETATM   13  C   UNL     1      -8.963   5.493  68.789  1.00  0.00    -0.114 A  
HETATM   14  S   UNL     1      -8.239   8.784  66.606  1.00  0.00    -0.108 S  
HETATM   15  C   UNL     1      -8.815   7.723  67.876  1.00  0.00    -0.123 A  
ENDROOT
BRANCH   3  16
HETATM   16  C   UNL     1      -9.792  11.994  68.468  1.00  0.00    -0.172 C  
BRANCH  16  17
HETATM   17  S   UNL     1     -11.625  11.940  68.266  1.00  0.00    -0.330 SA 
BRANCH  17  18
HETATM   18  C   UNL     1     -11.886  13.464  67.269  1.00  0.00    -0.376 C  
HETATM   19  F   UNL     1     -11.978  12.030  65.337  1.00  0.00    -0.414 F  
HETATM   20  C   UNL     1     -12.066  13.310  65.759  1.00  0.00    -0.441 C  
HETATM   21  F   UNL     1     -11.135  14.022  65.084  1.00  0.00    -0.301 F  
HETATM   22  F   UNL     1     -13.281  13.771  65.382  1.00  0.00    -0.499 F  
ENDBRANCH  17  18
ENDBRANCH  16  17
ENDBRANCH   3  16
BRANCH  13  23
HETATM   23  S   UNL     1      -8.570   3.781  68.632  1.00  0.00    -0.100 S  
HETATM   24  H2  UNL     1      -7.019   4.540  66.903  1.00  0.00     0.000 HD 
HETATM   25  H1  UNL     1      -7.180   2.764  67.332  1.00  0.00     0.000 HD 
HETATM   26  N   UNL     1      -7.407   3.754  67.423  1.00  0.00    -0.066 N  
HETATM   27  O   UNL     1      -7.940   3.325  69.844  1.00  0.00    -0.046 OA 
HETATM   28  O   UNL     1      -9.705   3.095  68.056  1.00  0.00    -0.138 OA 
ENDBRANCH  13  23
TORSDOF 4
ENDMDL
MODEL      119
REMARK 921   NORMALIZED FREE ENERGY PREDICTED BY IDOCK:   -4.20 KCAL/MOL
REMARK 922        TOTAL FREE ENERGY PREDICTED BY IDOCK:   -5.54 KCAL/MOL
REMARK 923 INTER-LIGAND FREE ENERGY PREDICTED BY IDOCK:   -5.13 KCAL/MOL
REMARK 924 INTRA-LIGAND FREE ENERGY PREDICTED BY IDOCK:   -0.41 KCAL/MOL
REMARK 927      BINDING AFFINITY PREDICTED BY RF-SCORE:    0.00 PKD
ROOT
HETATM    1  C   UNL     1      -8.962   7.419  72.633  1.00  0.00    -0.137 C  
HETATM    2  N   UNL     1      -9.367   6.913  71.306  1.00  0.00    -0.164 N  
HETATM    3  C   UNL     1     -10.475   5.941  71.288  1.00  0.00    -0.233 C  
HETATM    4  N   UNL     1     -10.990   5.881  69.918  1.00  0.00    -0.370 NA 
HETATM    5 CL   UNL     1     -10.596   4.317  65.101  1.00  0.00    -0.238 Cl 
HETATM    6  C   UNL     1     -10.122   5.539  68.883  1.00  0.00    -0.198 A  
HETATM    7  C   UNL     1      -7.893   5.448  67.880  1.00  0.00    -0.092 A  
HETATM    8  H   UNL     1     -11.970   6.088  69.724  1.00  0.00     0.000 HD 
HETATM    9  C   UNL     1     -10.646   5.135  67.646  1.00  0.00    -0.062 A  
HETATM   10  O   UNL     1      -7.573   5.113  71.174  1.00  0.00    -0.088 OA 
HETATM   11  O   UNL     1      -7.145   7.378  70.150  1.00  0.00    -0.062 OA 
HETATM   12  C   UNL     1      -9.815   4.851  66.545  1.00  0.00    -0.207 A  
HETATM   13  C   UNL     1      -8.432   5.003  66.670  1.00  0.00    -0.106 A  
HETATM   14  S   UNL     1      -8.037   6.280  70.456  1.00  0.00    -0.114 S  
HETATM   15  C   UNL     1      -8.744   5.715  68.956  1.00  0.00    -0.104 A  
ENDROOT
BRANCH   3  16
HETATM   16  C   UNL     1     -11.645   6.334  72.233  1.00  0.00    -0.309 C  
BRANCH  16  17
HETATM   17  S   UNL     1     -12.836   7.462  71.388  1.00  0.00    -0.341 SA 
BRANCH  17  18
HETATM   18  C   UNL     1     -12.154   9.094  71.897  1.00  0.00    -0.378 C  
HETATM   19  F   UNL     1     -13.730  10.083  70.369  1.00  0.00    -0.283 F  
HETATM   20  C   UNL     1     -12.759  10.349  71.269  1.00  0.00    -0.432 C  
HETATM   21  F   UNL     1     -11.812  11.079  70.637  1.00  0.00    -0.367 F  
HETATM   22  F   UNL     1     -13.306  11.135  72.225  1.00  0.00    -0.582 F  
ENDBRANCH  17  18
ENDBRANCH  16  17
ENDBRANCH   3  16
BRANCH  13  23
HETATM   23  S   UNL     1      -7.321   4.697  65.334  1.00  0.00    -0.077 S  
HETATM   24  H2  UNL     1      -8.048   2.376  65.574  1.00  0.00     0.000 HD 
HETATM   25  H1  UNL     1      -6.818   2.868  64.305  1.00  0.00     0.000 HD 
HETATM   26  N   UNL     1      -7.461   3.045  65.076  1.00  0.00    -0.074 N  
HETATM   27  O   UNL     1      -7.806   5.358  64.151  1.00  0.00    -0.090 OA 
HETATM   28  O   UNL     1      -5.966   4.874  65.808  1.00  0.00    -0.021 OA 
ENDBRANCH  13  23
TORSDOF 4
ENDMDL
MODEL      120
REMARK 921   NORMALIZED FREE ENERGY PREDICTED BY IDOCK:   -4.16 KCAL/MOL
REMARK 922        TOTAL FREE ENERGY PREDICTED BY IDOCK:   -5.50 KCAL/MOL
REMARK 923 INTER-LIGAND FREE ENERGY PREDICTED BY IDOCK:   -5.21 KCAL/MOL
REMARK 924 INTRA-LIGAND FREE ENERGY PREDICTED BY IDOCK:   -0.29 KCAL/MOL
REMARK 927      BINDING AFFINITY PREDICTED BY RF-SCORE:    0.00 PKD
ROOT
HETATM    1  C   UNL     1     -12.339  14.141  69.402  1.00  0.00    -0.205 C  
HETATM    2  N   UNL     1     -11.103  13.526  68.876  1.00  0.00    -0.260 N  
HETATM    3  C   UNL     1     -10.490  14.188  67.711  1.00  0.00    -0.246 C  
HETATM    4  N   UNL     1      -9.110  13.706  67.604  1.00  0.00    -0.197 NA 
HETATM    5 CL   UNL     1      -5.760  10.110  66.321  1.00  0.00    -0.058 Cl 
HETATM    6  C   UNL     1      -8.879  12.339  67.472  1.00  0.00    -0.182 A  
HETATM    7  C   UNL     1      -9.497  10.002  67.848  1.00  0.00    -0.159 A  
HETATM    8  H   UNL     1      -8.329  14.363  67.625  1.00  0.00     0.000 HD 
HETATM    9  C   UNL     1      -7.629  11.888  67.021  1.00  0.00    -0.134 A  
HETATM   10  O   UNL     1     -12.286  11.773  67.460  1.00  0.00    -0.526 OA 
HETATM   11  O   UNL     1     -11.546  11.194  69.801  1.00  0.00    -0.275 OA 
HETATM   12  C   UNL     1      -7.319  10.517  66.942  1.00  0.00    -0.110 A  
HETATM   13  C   UNL     1      -8.263   9.573  67.352  1.00  0.00    -0.114 A  
HETATM   14  S   UNL     1     -11.330  11.874  68.542  1.00  0.00    -0.304 S  
HETATM   15  C   UNL     1      -9.777  11.370  67.907  1.00  0.00    -0.180 A  
ENDROOT
BRANCH   3  16
HETATM   16  C   UNL     1     -10.457  15.737  67.837  1.00  0.00    -0.270 C  
BRANCH  16  17
HETATM   17  S   UNL     1      -8.993  16.298  68.809  1.00  0.00    -0.252 SA 
BRANCH  17  18
HETATM   18  C   UNL     1      -8.720  17.955  68.057  1.00  0.00    -0.256 C  
HETATM   19  F   UNL     1      -6.632  18.012  69.254  1.00  0.00    -0.231 F  
HETATM   20  C   UNL     1      -7.423  18.689  68.395  1.00  0.00    -0.297 C  
HETATM   21  F   UNL     1      -7.679  19.897  68.947  1.00  0.00    -0.357 F  
HETATM   22  F   UNL     1      -6.698  18.903  67.271  1.00  0.00    -0.199 F  
ENDBRANCH  17  18
ENDBRANCH  16  17
ENDBRANCH   3  16
BRANCH  13  23
HETATM   23  S   UNL     1      -7.946   7.838  67.314  1.00  0.00    -0.119 S  
HETATM   24  H2  UNL     1      -7.796   8.159  64.895  1.00  0.00     0.000 HD 
HETATM   25  H1  UNL     1      -7.564   6.507  65.658  1.00  0.00     0.000 HD 
HETATM   26  N   UNL     1      -7.746   7.510  65.680  1.00  0.00    -0.094 N  
HETATM   27  O   UNL     1      -6.689   7.570  67.962  1.00  0.00    -0.055 OA 
HETATM   28  O   UNL     1      -9.158   7.137  67.676  1.00  0.00    -0.128 OA 
ENDBRANCH  13  23
TORSDOF 4
ENDMDL
MODEL      121
REMARK 921   NORMALIZED FREE ENERGY PREDICTED BY IDOCK:   -4.15 KCAL/MOL
REMARK 922        TOTAL FREE ENERGY PREDICTED BY IDOCK:   -5.48 KCAL/MOL
REMARK 923 INTER-LIGAND FREE ENERGY PREDICTED BY IDOCK:   -5.21 KCAL/MOL
REMARK 924 INTRA-LIGAND FREE ENERGY PREDICTED BY IDOCK:   -0.27 KCAL/MOL
REMARK 927      BINDING AFFINITY PREDICTED BY RF-SCORE:    0.00 PKD
ROOT
HETATM    1  C   UNL     1      -6.373   8.468  67.889  1.00  0.00    -0.057 C  
HETATM    2  N   UNL     1      -7.408   9.510  68.049  1.00  0.00    -0.082 N  
HETATM    3  C   UNL     1      -8.475   9.227  69.024  1.00  0.00    -0.132 C  
HETATM    4  N   UNL     1      -9.137  10.496  69.338  1.00  0.00    -0.365 NA 
HETATM    5 CL   UNL     1     -12.346  14.239  68.113  1.00  0.00    -0.147 Cl 
HETATM    6  C   UNL     1      -9.707  11.234  68.303  1.00  0.00    -0.198 A  
HETATM    7  C   UNL     1      -9.820  11.936  65.962  1.00  0.00    -0.258 A  
HETATM    8  H   UNL     1      -9.181  10.834  70.299  1.00  0.00     0.000 HD 
HETATM    9  C   UNL     1     -10.633  12.245  68.603  1.00  0.00    -0.249 A  
HETATM   10  O   UNL     1      -8.810   8.768  66.058  1.00  0.00    -0.153 OA 
HETATM   11  O   UNL     1      -7.074  10.574  65.758  1.00  0.00    -0.131 OA 
HETATM   12  C   UNL     1     -11.182  13.070  67.603  1.00  0.00    -0.280 A  
HETATM   13  C   UNL     1     -10.776  12.907  66.276  1.00  0.00    -0.274 A  
HETATM   14  S   UNL     1      -8.098   9.928  66.551  1.00  0.00    -0.118 S  
HETATM   15  C   UNL     1      -9.300  11.128  66.977  1.00  0.00    -0.170 A  
ENDROOT
BRANCH   3  16
HETATM   16  C   UNL     1      -7.941   8.615  70.350  1.00  0.00    -0.101 C  
BRANCH  16  17
HETATM   17  S   UNL     1      -8.761   7.004  70.720  1.00  0.00    -0.149 SA 
BRANCH  17  18
HETATM   18  C   UNL     1      -8.988   7.166  72.539  1.00  0.00    -0.127 C  
HETATM   19  F   UNL     1      -6.587   7.160  72.710  1.00  0.00    -0.061 F  
HETATM   20  C   UNL     1      -7.736   7.248  73.412  1.00  0.00    -0.093 C  
HETATM   21  F   UNL     1      -7.723   6.260  74.335  1.00  0.00    -0.098 F  
HETATM   22  F   UNL     1      -7.706   8.426  74.079  1.00  0.00    -0.220 F  
ENDBRANCH  17  18
ENDBRANCH  16  17
ENDBRANCH   3  16
BRANCH  13  23
HETATM   23  S   UNL     1     -11.389  13.915  64.966  1.00  0.00    -0.352 S  
HETATM   24  H2  UNL     1     -10.450  12.186  63.515  1.00  0.00     0.000 HD 
HETATM   25  H1  UNL     1     -11.306  13.655  62.825  1.00  0.00     0.000 HD 
HETATM   26  N   UNL     1     -10.952  13.072  63.582  1.00  0.00    -0.289 N  
HETATM   27  O   UNL     1     -12.828  13.938  65.017  1.00  0.00    -0.693 OA 
HETATM   28  O   UNL     1     -10.607  15.130  64.909  1.00  0.00    -0.411 OA 
ENDBRANCH  13  23
TORSDOF 4
ENDMDL
MODEL      122
REMARK 921   NORMALIZED FREE ENERGY PREDICTED BY IDOCK:   -4.14 KCAL/MOL
REMARK 922        TOTAL FREE ENERGY PREDICTED BY IDOCK:   -5.47 KCAL/MOL
REMARK 923 INTER-LIGAND FREE ENERGY PREDICTED BY IDOCK:   -4.99 KCAL/MOL
REMARK 924 INTRA-LIGAND FREE ENERGY PREDICTED BY IDOCK:   -0.48 KCAL/MOL
REMARK 927      BINDING AFFINITY PREDICTED BY RF-SCORE:    0.00 PKD
ROOT
HETATM    1  C   UNL     1      -6.717   9.909  68.999  1.00  0.00    -0.053 C  
HETATM    2  N   UNL     1      -7.488  11.132  68.692  1.00  0.00    -0.110 N  
HETATM    3  C   UNL     1      -8.730  10.944  67.922  1.00  0.00    -0.131 C  
HETATM    4  N   UNL     1      -9.535  12.159  68.076  1.00  0.00    -0.195 NA 
HETATM    5 CL   UNL     1     -10.496  17.012  66.924  1.00  0.00    -0.299 Cl 
HETATM    6  C   UNL     1      -8.992  13.383  67.694  1.00  0.00    -0.202 A  
HETATM    7  C   UNL     1      -7.091  14.879  67.330  1.00  0.00    -0.194 A  
HETATM    8  H   UNL     1     -10.480  12.109  68.458  1.00  0.00     0.000 HD 
HETATM    9  C   UNL     1      -9.838  14.485  67.499  1.00  0.00    -0.222 A  
HETATM   10  O   UNL     1      -6.124  11.772  66.641  1.00  0.00    -0.138 OA 
HETATM   11  O   UNL     1      -5.526  12.744  68.891  1.00  0.00    -0.065 OA 
HETATM   12  C   UNL     1      -9.334  15.762  67.185  1.00  0.00    -0.213 A  
HETATM   13  C   UNL     1      -7.953  15.953  67.095  1.00  0.00    -0.209 A  
HETATM   14  S   UNL     1      -6.514  12.299  67.931  1.00  0.00    -0.102 S  
HETATM   15  C   UNL     1      -7.623  13.623  67.632  1.00  0.00    -0.179 A  
ENDROOT
BRANCH   3  16
HETATM   16  C   UNL     1      -9.575   9.734  68.413  1.00  0.00    -0.148 C  
BRANCH  16  17
HETATM   17  S   UNL     1     -10.281   8.792  66.993  1.00  0.00    -0.285 SA 
BRANCH  17  18
HETATM   18  C   UNL     1      -9.983   9.990  65.628  1.00  0.00    -0.285 C  
HETATM   19  F   UNL     1      -8.318   8.452  64.817  1.00  0.00    -0.147 F  
HETATM   20  C   UNL     1      -8.931   9.631  64.579  1.00  0.00    -0.235 C  
HETATM   21  F   UNL     1      -7.970  10.580  64.512  1.00  0.00    -0.160 F  
HETATM   22  F   UNL     1      -9.501   9.543  63.354  1.00  0.00    -0.263 F  
ENDBRANCH  17  18
ENDBRANCH  16  17
ENDBRANCH   3  16
BRANCH  13  23
HETATM   23  S   UNL     1      -7.235  17.524  66.736  1.00  0.00    -0.239 S  
HETATM   24  H2  UNL     1      -5.135  16.277  66.644  1.00  0.00     0.000 HD 
HETATM   25  H1  UNL     1      -5.187  18.088  66.355  1.00  0.00     0.000 HD 
HETATM   26  N   UNL     1      -5.602  17.180  66.562  1.00  0.00    -0.182 N  
HETATM   27  O   UNL     1      -7.715  17.985  65.459  1.00  0.00    -0.510 OA 
HETATM   28  O   UNL     1      -7.305  18.348  67.922  1.00  0.00    -0.227 OA 
ENDBRANCH  13  23
TORSDOF 4
ENDMDL
MODEL      123
REMARK 921   NORMALIZED FREE ENERGY PREDICTED BY IDOCK:   -4.12 KCAL/MOL
REMARK 922        TOTAL FREE ENERGY PREDICTED BY IDOCK:   -5.45 KCAL/MOL
REMARK 923 INTER-LIGAND FREE ENERGY PREDICTED BY IDOCK:   -5.26 KCAL/MOL
REMARK 924 INTRA-LIGAND FREE ENERGY PREDICTED BY IDOCK:   -0.19 KCAL/MOL
REMARK 927      BINDING AFFINITY PREDICTED BY RF-SCORE:    0.00 PKD
ROOT
HETATM    1  C   UNL     1     -10.998   9.042  71.780  1.00  0.00    -0.372 C  
HETATM    2  N   UNL     1     -10.460   8.471  70.528  1.00  0.00    -0.199 N  
HETATM    3  C   UNL     1     -10.865   9.139  69.279  1.00  0.00    -0.132 C  
HETATM    4  N   UNL     1      -9.937   8.714  68.227  1.00  0.00    -0.174 NA 
HETATM    5 CL   UNL     1      -8.299   5.241  64.903  1.00  0.00    -0.139 Cl 
HETATM    6  C   UNL     1      -9.808   7.356  67.948  1.00  0.00    -0.148 A  
HETATM    7  C   UNL     1      -9.889   5.001  68.607  1.00  0.00    -0.227 A  
HETATM    8  H   UNL     1      -9.393   9.404  67.708  1.00  0.00     0.000 HD 
HETATM    9  C   UNL     1      -9.215   6.951  66.743  1.00  0.00    -0.177 A  
HETATM   10  O   UNL     1     -12.222   6.647  70.314  1.00  0.00    -0.294 OA 
HETATM   11  O   UNL     1     -10.031   6.139  71.457  1.00  0.00    -0.180 OA 
HETATM   12  C   UNL     1      -8.992   5.593  66.445  1.00  0.00    -0.134 A  
HETATM   13  C   UNL     1      -9.339   4.616  67.382  1.00  0.00    -0.143 A  
HETATM   14  S   UNL     1     -10.787   6.806  70.420  1.00  0.00    -0.281 S  
HETATM   15  C   UNL     1     -10.104   6.357  68.870  1.00  0.00    -0.162 A  
ENDROOT
BRANCH   3  16
HETATM   16  C   UNL     1     -10.818  10.690  69.374  1.00  0.00    -0.246 C  
BRANCH  16  17
HETATM   17  S   UNL     1     -10.119  11.433  67.836  1.00  0.00    -0.188 SA 
BRANCH  17  18
HETATM   18  C   UNL     1     -11.578  12.387  67.245  1.00  0.00    -0.365 C  
HETATM   19  F   UNL     1     -10.296  14.375  67.692  1.00  0.00    -0.232 F  
HETATM   20  C   UNL     1     -11.476  13.912  67.227  1.00  0.00    -0.344 C  
HETATM   21  F   UNL     1     -12.453  14.471  67.977  1.00  0.00    -0.260 F  
HETATM   22  F   UNL     1     -11.618  14.377  65.964  1.00  0.00    -0.335 F  
ENDBRANCH  17  18
ENDBRANCH  16  17
ENDBRANCH   3  16
BRANCH  13  23
HETATM   23  S   UNL     1      -9.068   2.896  67.103  1.00  0.00    -0.155 S  
HETATM   24  H2  UNL     1      -6.705   3.472  67.345  1.00  0.00     0.000 HD 
HETATM   25  H1  UNL     1      -7.242   1.749  67.017  1.00  0.00     0.000 HD 
HETATM   26  N   UNL     1      -7.398   2.743  67.178  1.00  0.00    -0.057 N  
HETATM   27  O   UNL     1      -9.617   2.144  68.201  1.00  0.00    -0.212 OA 
HETATM   28  O   UNL     1      -9.396   2.591  65.728  1.00  0.00    -0.100 OA 
ENDBRANCH  13  23
TORSDOF 4
ENDMDL
MODEL      124
REMARK 921   NORMALIZED FREE ENERGY PREDICTED BY IDOCK:   -4.11 KCAL/MOL
REMARK 922        TOTAL FREE ENERGY PREDICTED BY IDOCK:   -5.44 KCAL/MOL
REMARK 923 INTER-LIGAND FREE ENERGY PREDICTED BY IDOCK:   -5.51 KCAL/MOL
REMARK 924 INTRA-LIGAND FREE ENERGY PREDICTED BY IDOCK:    0.07 KCAL/MOL
REMARK 927      BINDING AFFINITY PREDICTED BY RF-SCORE:    0.00 PKD
ROOT
HETATM    1  C   UNL     1      -5.890  11.496  70.041  1.00  0.00    -0.134 C  
HETATM    2  N   UNL     1      -6.997  11.995  69.198  1.00  0.00    -0.093 N  
HETATM    3  C   UNL     1      -7.422  11.117  68.094  1.00  0.00    -0.093 C  
HETATM    4  N   UNL     1      -8.747  11.566  67.656  1.00  0.00    -0.138 NA 
HETATM    5 CL   UNL     1     -11.707  14.838  65.139  1.00  0.00    -0.355 Cl 
HETATM    6  C   UNL     1      -8.906  12.881  67.226  1.00  0.00    -0.206 A  
HETATM    7  C   UNL     1      -8.286  15.247  67.246  1.00  0.00    -0.230 A  
HETATM    8  H   UNL     1      -9.540  10.925  67.667  1.00  0.00     0.000 HD 
HETATM    9  C   UNL     1     -10.045  13.233  66.485  1.00  0.00    -0.275 A  
HETATM   10  O   UNL     1      -5.531  13.438  67.700  1.00  0.00    -0.242 OA 
HETATM   11  O   UNL     1      -6.642  14.463  69.720  1.00  0.00    -0.138 OA 
HETATM   12  C   UNL     1     -10.292  14.562  66.090  1.00  0.00    -0.297 A  
HETATM   13  C   UNL     1      -9.402  15.569  66.468  1.00  0.00    -0.283 A  
HETATM   14  S   UNL     1      -6.661  13.550  68.597  1.00  0.00    -0.102 S  
HETATM   15  C   UNL     1      -8.065  13.918  67.615  1.00  0.00    -0.177 A  
ENDROOT
BRANCH   3  16
HETATM   16  C   UNL     1      -7.527   9.623  68.509  1.00  0.00    -0.079 C  
BRANCH  16  17
HETATM   17  S   UNL     1      -7.145   8.507  67.090  1.00  0.00    -0.076 SA 
BRANCH  17  18
HETATM   18  C   UNL     1      -8.398   7.187  67.369  1.00  0.00    -0.119 C  
HETATM   19  F   UNL     1      -9.879   8.478  65.978  1.00  0.00    -0.312 F  
HETATM   20  C   UNL     1      -9.760   7.340  66.694  1.00  0.00    -0.183 C  
HETATM   21  F   UNL     1     -10.758   7.331  67.608  1.00  0.00    -0.262 F  
HETATM   22  F   UNL     1      -9.980   6.310  65.844  1.00  0.00    -0.073 F  
ENDBRANCH  17  18
ENDBRANCH  16  17
ENDBRANCH   3  16
BRANCH  13  23
HETATM   23  S   UNL     1      -9.650  17.263  66.042  1.00  0.00    -0.071 S  
HETATM   24  H2  UNL     1     -10.530  17.458  68.314  1.00  0.00     0.000 HD 
HETATM   25  H1  UNL     1     -10.462  18.903  67.186  1.00  0.00     0.000 HD 
HETATM   26  N   UNL     1     -10.318  17.924  67.432  1.00  0.00    -0.363 N  
HETATM   27  O   UNL     1      -8.371  17.894  65.839  1.00  0.00    -0.521 OA 
HETATM   28  O   UNL     1     -10.708  17.344  65.060  1.00  0.00    -0.688 OA 
ENDBRANCH  13  23
TORSDOF 4
ENDMDL
MODEL      125
REMARK 921   NORMALIZED FREE ENERGY PREDICTED BY IDOCK:   -4.06 KCAL/MOL
REMARK 922        TOTAL FREE ENERGY PREDICTED BY IDOCK:   -5.38 KCAL/MOL
REMARK 923 INTER-LIGAND FREE ENERGY PREDICTED BY IDOCK:   -4.85 KCAL/MOL
REMARK 924 INTRA-LIGAND FREE ENERGY PREDICTED BY IDOCK:   -0.53 KCAL/MOL
REMARK 927      BINDING AFFINITY PREDICTED BY RF-SCORE:    0.00 PKD
ROOT
HETATM    1  C   UNL     1      -6.871   4.046  66.321  1.00  0.00    -0.058 C  
HETATM    2  N   UNL     1      -8.012   4.576  67.096  1.00  0.00    -0.101 N  
HETATM    3  C   UNL     1      -8.591   5.845  66.620  1.00  0.00    -0.119 C  
HETATM    4  N   UNL     1      -9.916   5.984  67.231  1.00  0.00    -0.136 NA 
HETATM    5 CL   UNL     1     -12.861   7.060  71.227  1.00  0.00    -0.414 Cl 
HETATM    6  C   UNL     1     -10.025   5.974  68.619  1.00  0.00    -0.149 A  
HETATM    7  C   UNL     1      -9.248   5.298  70.839  1.00  0.00    -0.184 A  
HETATM    8  H   UNL     1     -10.746   6.086  66.647  1.00  0.00     0.000 HD 
HETATM    9  C   UNL     1     -11.198   6.449  69.225  1.00  0.00    -0.440 A  
HETATM   10  O   UNL     1      -6.591   5.707  68.879  1.00  0.00    -0.044 OA 
HETATM   11  O   UNL     1      -7.449   3.367  69.267  1.00  0.00    -0.048 OA 
HETATM   12  C   UNL     1     -11.389   6.392  70.619  1.00  0.00    -0.357 A  
HETATM   13  C   UNL     1     -10.404   5.820  71.426  1.00  0.00    -0.224 A  
HETATM   14  S   UNL     1      -7.627   4.706  68.748  1.00  0.00    -0.068 S  
HETATM   15  C   UNL     1      -9.084   5.377  69.453  1.00  0.00    -0.108 A  
ENDROOT
BRANCH   3  16
HETATM   16  C   UNL     1      -8.758   5.897  65.076  1.00  0.00    -0.003 C  
BRANCH  16  17
HETATM   17  S   UNL     1      -7.779   7.278  64.343  1.00  0.00    -0.121 SA 
BRANCH  17  18
HETATM   18  C   UNL     1      -8.312   8.665  65.430  1.00  0.00    -0.157 C  
HETATM   19  F   UNL     1      -9.497   9.532  63.522  1.00  0.00    -0.266 F  
HETATM   20  C   UNL     1      -9.219   9.738  64.828  1.00  0.00    -0.261 C  
HETATM   21  F   UNL     1      -8.657  10.963  64.933  1.00  0.00    -0.178 F  
HETATM   22  F   UNL     1     -10.401   9.775  65.486  1.00  0.00    -0.350 F  
ENDBRANCH  17  18
ENDBRANCH  16  17
ENDBRANCH   3  16
BRANCH  13  23
HETATM   23  S   UNL     1     -10.575   5.681  73.176  1.00  0.00    -0.266 S  
HETATM   24  H2  UNL     1      -8.272   4.864  73.097  1.00  0.00     0.000 HD 
HETATM   25  H1  UNL     1      -9.183   5.009  74.683  1.00  0.00     0.000 HD 
HETATM   26  N   UNL     1      -9.084   5.090  73.671  1.00  0.00    -0.120 N  
HETATM   27  O   UNL     1     -10.725   6.995  73.745  1.00  0.00    -0.360 OA 
HETATM   28  O   UNL     1     -11.502   4.610  73.469  1.00  0.00    -0.314 OA 
ENDBRANCH  13  23
TORSDOF 4
ENDMDL
MODEL      126
REMARK 921   NORMALIZED FREE ENERGY PREDICTED BY IDOCK:   -4.06 KCAL/MOL
REMARK 922        TOTAL FREE ENERGY PREDICTED BY IDOCK:   -5.37 KCAL/MOL
REMARK 923 INTER-LIGAND FREE ENERGY PREDICTED BY IDOCK:   -4.86 KCAL/MOL
REMARK 924 INTRA-LIGAND FREE ENERGY PREDICTED BY IDOCK:   -0.51 KCAL/MOL
REMARK 927      BINDING AFFINITY PREDICTED BY RF-SCORE:    0.00 PKD
ROOT
HETATM    1  C   UNL     1      -5.238  10.224  68.949  1.00  0.00    -0.035 C  
HETATM    2  N   UNL     1      -6.561  10.875  68.857  1.00  0.00    -0.052 N  
HETATM    3  C   UNL     1      -7.536  10.245  67.949  1.00  0.00    -0.089 C  
HETATM    4  N   UNL     1      -8.863  10.759  68.299  1.00  0.00    -0.133 NA 
HETATM    5 CL   UNL     1     -12.352  14.450  68.198  1.00  0.00    -0.136 Cl 
HETATM    6  C   UNL     1      -9.088  12.133  68.259  1.00  0.00    -0.191 A  
HETATM    7  C   UNL     1      -8.320  14.450  68.430  1.00  0.00    -0.155 A  
HETATM    8  H   UNL     1      -9.612  10.120  68.568  1.00  0.00     0.000 HD 
HETATM    9  C   UNL     1     -10.404  12.619  68.241  1.00  0.00    -0.246 A  
HETATM   10  O   UNL     1      -5.855  12.622  67.146  1.00  0.00    -0.300 OA 
HETATM   11  O   UNL     1      -5.780  13.181  69.605  1.00  0.00    -0.090 OA 
HETATM   12  C   UNL     1     -10.687  13.997  68.277  1.00  0.00    -0.254 A  
HETATM   13  C   UNL     1      -9.637  14.914  68.365  1.00  0.00    -0.209 A  
HETATM   14  S   UNL     1      -6.411  12.526  68.479  1.00  0.00    -0.076 S  
HETATM   15  C   UNL     1      -8.072  13.075  68.385  1.00  0.00    -0.131 A  
ENDROOT
BRANCH   3  16
HETATM   16  C   UNL     1      -7.567   8.695  68.068  1.00  0.00    -0.098 C  
BRANCH  16  17
HETATM   17  S   UNL     1      -8.560   8.156  69.526  1.00  0.00    -0.135 SA 
BRANCH  17  18
HETATM   18  C   UNL     1      -9.864   7.168  68.683  1.00  0.00    -0.154 C  
HETATM   19  F   UNL     1     -10.066   5.923  70.733  1.00  0.00    -0.205 F  
HETATM   20  C   UNL     1     -10.547   6.057  69.479  1.00  0.00    -0.296 C  
HETATM   21  F   UNL     1     -10.405   4.862  68.862  1.00  0.00    -0.254 F  
HETATM   22  F   UNL     1     -11.874   6.303  69.586  1.00  0.00    -0.500 F  
ENDBRANCH  17  18
ENDBRANCH  16  17
ENDBRANCH   3  16
BRANCH  13  23
HETATM   23  S   UNL     1      -9.902  16.656  68.444  1.00  0.00    -0.263 S  
HETATM   24  H2  UNL     1      -7.468  16.778  68.634  1.00  0.00     0.000 HD 
HETATM   25  H1  UNL     1      -8.506  18.290  68.642  1.00  0.00     0.000 HD 
HETATM   26  N   UNL     1      -8.353  17.283  68.596  1.00  0.00    -0.262 N  
HETATM   27  O   UNL     1     -10.429  17.114  67.185  1.00  0.00    -0.319 OA 
HETATM   28  O   UNL     1     -10.543  16.971  69.701  1.00  0.00    -0.281 OA 
ENDBRANCH  13  23
TORSDOF 4
ENDMDL
MODEL      127
REMARK 921   NORMALIZED FREE ENERGY PREDICTED BY IDOCK:   -4.05 KCAL/MOL
REMARK 922        TOTAL FREE ENERGY PREDICTED BY IDOCK:   -5.35 KCAL/MOL
REMARK 923 INTER-LIGAND FREE ENERGY PREDICTED BY IDOCK:   -4.97 KCAL/MOL
REMARK 924 INTRA-LIGAND FREE ENERGY PREDICTED BY IDOCK:   -0.39 KCAL/MOL
REMARK 927      BINDING AFFINITY PREDICTED BY RF-SCORE:    0.00 PKD
ROOT
HETATM    1  C   UNL     1      -9.494   9.883  70.025  1.00  0.00    -0.202 C  
HETATM    2  N   UNL     1      -9.451   8.843  68.977  1.00  0.00    -0.155 N  
HETATM    3  C   UNL     1     -10.593   8.807  68.046  1.00  0.00    -0.159 C  
HETATM    4  N   UNL     1     -10.186   8.024  66.876  1.00  0.00    -0.293 NA 
HETATM    5 CL   UNL     1      -9.247   3.561  64.640  1.00  0.00    -0.132 Cl 
HETATM    6  C   UNL     1      -9.758   6.711  67.057  1.00  0.00    -0.157 A  
HETATM    7  C   UNL     1      -8.726   4.944  68.399  1.00  0.00    -0.109 A  
HETATM    8  H   UNL     1     -10.217   8.435  65.943  1.00  0.00     0.000 HD 
HETATM    9  C   UNL     1      -9.703   5.844  65.956  1.00  0.00    -0.019 A  
HETATM   10  O   UNL     1     -10.381   6.981  70.443  1.00  0.00    -0.199 OA 
HETATM   11  O   UNL     1      -7.884   7.268  70.224  1.00  0.00    -0.093 OA 
HETATM   12  C   UNL     1      -9.207   4.531  66.069  1.00  0.00    -0.141 A  
HETATM   13  C   UNL     1      -8.724   4.081  67.300  1.00  0.00    -0.112 A  
HETATM   14  S   UNL     1      -9.212   7.299  69.650  1.00  0.00    -0.141 S  
HETATM   15  C   UNL     1      -9.232   6.239  68.255  1.00  0.00    -0.111 A  
ENDROOT
BRANCH   3  16
HETATM   16  C   UNL     1     -11.028  10.218  67.562  1.00  0.00    -0.280 C  
BRANCH  16  17
HETATM   17  S   UNL     1     -10.142  10.697  66.016  1.00  0.00    -0.250 SA 
BRANCH  17  18
HETATM   18  C   UNL     1     -11.343  11.903  65.314  1.00  0.00    -0.275 C  
HETATM   19  F   UNL     1     -10.825  10.967  63.158  1.00  0.00    -0.333 F  
HETATM   20  C   UNL     1     -11.578  11.882  63.804  1.00  0.00    -0.462 C  
HETATM   21  F   UNL     1     -11.308  13.088  63.255  1.00  0.00    -0.469 F  
HETATM   22  F   UNL     1     -12.873  11.594  63.535  1.00  0.00    -0.612 F  
ENDBRANCH  17  18
ENDBRANCH  16  17
ENDBRANCH   3  16
BRANCH  13  23
HETATM   23  S   UNL     1      -8.058   2.463  67.523  1.00  0.00    -0.066 S  
HETATM   24  H2  UNL     1      -8.168   3.005  69.904  1.00  0.00     0.000 HD 
HETATM   25  H1  UNL     1      -7.538   1.385  69.319  1.00  0.00     0.000 HD 
HETATM   26  N   UNL     1      -7.923   2.320  69.190  1.00  0.00    -0.045 N  
HETATM   27  O   UNL     1      -9.023   1.487  67.086  1.00  0.00    -0.113 OA 
HETATM   28  O   UNL     1      -6.692   2.453  67.049  1.00  0.00    -0.038 OA 
ENDBRANCH  13  23
TORSDOF 4
ENDMDL
MODEL      128
REMARK 921   NORMALIZED FREE ENERGY PREDICTED BY IDOCK:   -4.04 KCAL/MOL
REMARK 922        TOTAL FREE ENERGY PREDICTED BY IDOCK:   -5.35 KCAL/MOL
REMARK 923 INTER-LIGAND FREE ENERGY PREDICTED BY IDOCK:   -5.17 KCAL/MOL
REMARK 924 INTRA-LIGAND FREE ENERGY PREDICTED BY IDOCK:   -0.18 KCAL/MOL
REMARK 927      BINDING AFFINITY PREDICTED BY RF-SCORE:    0.00 PKD
ROOT
HETATM    1  C   UNL     1      -8.275   4.994  70.260  1.00  0.00    -0.088 C  
HETATM    2  N   UNL     1      -8.555   6.259  69.550  1.00  0.00    -0.131 N  
HETATM    3  C   UNL     1      -9.812   6.941  69.902  1.00  0.00    -0.165 C  
HETATM    4  N   UNL     1      -9.713   8.324  69.430  1.00  0.00    -0.175 NA 
HETATM    5 CL   UNL     1      -9.841  11.742  65.674  1.00  0.00    -0.257 Cl 
HETATM    6  C   UNL     1      -9.478   8.561  68.078  1.00  0.00    -0.140 A  
HETATM    7  C   UNL     1      -8.556   7.920  65.904  1.00  0.00    -0.171 A  
HETATM    8  H   UNL     1      -9.815   9.102  70.082  1.00  0.00     0.000 HD 
HETATM    9  C   UNL     1      -9.727   9.835  67.545  1.00  0.00    -0.192 A  
HETATM   10  O   UNL     1      -9.543   5.161  67.478  1.00  0.00    -0.127 OA 
HETATM   11  O   UNL     1      -7.093   5.759  67.524  1.00  0.00    -0.071 OA 
HETATM   12  C   UNL     1      -9.436  10.149  66.203  1.00  0.00    -0.188 A  
HETATM   13  C   UNL     1      -8.854   9.181  65.381  1.00  0.00    -0.196 A  
HETATM   14  S   UNL     1      -8.469   6.050  67.864  1.00  0.00    -0.114 S  
HETATM   15  C   UNL     1      -8.864   7.638  67.237  1.00  0.00    -0.120 A  
ENDROOT
BRANCH   3  16
HETATM   16  C   UNL     1     -10.083   6.967  71.433  1.00  0.00    -0.185 C  
BRANCH  16  17
HETATM   17  S   UNL     1     -11.594   5.998  71.861  1.00  0.00    -0.200 SA 
BRANCH  17  18
HETATM   18  C   UNL     1     -12.897   7.132  71.225  1.00  0.00    -0.349 C  
HETATM   19  F   UNL     1     -12.225   8.666  72.953  1.00  0.00    -0.425 F  
HETATM   20  C   UNL     1     -13.066   8.486  71.913  1.00  0.00    -0.362 C  
HETATM   21  F   UNL     1     -14.326   8.637  72.381  1.00  0.00    -0.466 F  
HETATM   22  F   UNL     1     -12.836   9.490  71.035  1.00  0.00    -0.348 F  
ENDBRANCH  17  18
ENDBRANCH  16  17
ENDBRANCH   3  16
BRANCH  13  23
HETATM   23  S   UNL     1      -8.431   9.498  63.698  1.00  0.00    -0.210 S  
HETATM   24  H2  UNL     1     -10.619  10.582  63.600  1.00  0.00     0.000 HD 
HETATM   25  H1  UNL     1      -9.521  10.507  62.132  1.00  0.00     0.000 HD 
HETATM   26  N   UNL     1      -9.765  10.324  63.105  1.00  0.00    -0.255 N  
HETATM   27  O   UNL     1      -7.311  10.402  63.652  1.00  0.00    -0.114 OA 
HETATM   28  O   UNL     1      -8.432   8.246  62.975  1.00  0.00    -0.119 OA 
ENDBRANCH  13  23
TORSDOF 4
ENDMDL
MODEL      129
REMARK 921   NORMALIZED FREE ENERGY PREDICTED BY IDOCK:   -4.04 KCAL/MOL
REMARK 922        TOTAL FREE ENERGY PREDICTED BY IDOCK:   -5.34 KCAL/MOL
REMARK 923 INTER-LIGAND FREE ENERGY PREDICTED BY IDOCK:   -5.00 KCAL/MOL
REMARK 924 INTRA-LIGAND FREE ENERGY PREDICTED BY IDOCK:   -0.34 KCAL/MOL
REMARK 927      BINDING AFFINITY PREDICTED BY RF-SCORE:    0.00 PKD
ROOT
HETATM    1  C   UNL     1      -6.843   7.991  71.092  1.00  0.00    -0.046 C  
HETATM    2  N   UNL     1      -7.893   8.847  70.502  1.00  0.00    -0.097 N  
HETATM    3  C   UNL     1      -9.019   8.148  69.859  1.00  0.00    -0.143 C  
HETATM    4  N   UNL     1     -10.115   9.111  69.717  1.00  0.00    -0.191 NA 
HETATM    5 CL   UNL     1     -12.257  13.067  67.357  1.00  0.00    -0.272 Cl 
HETATM    6  C   UNL     1      -9.893  10.286  69.002  1.00  0.00    -0.207 A  
HETATM    7  C   UNL     1      -8.432  12.068  68.181  1.00  0.00    -0.171 A  
HETATM    8  H   UNL     1     -11.026   8.924  70.135  1.00  0.00     0.000 HD 
HETATM    9  C   UNL     1     -10.988  11.041  68.555  1.00  0.00    -0.276 A  
HETATM   10  O   UNL     1      -6.675   9.246  68.304  1.00  0.00    -0.059 OA 
HETATM   11  O   UNL     1      -6.421  10.902  70.189  1.00  0.00    -0.143 OA 
HETATM   12  C   UNL     1     -10.821  12.273  67.895  1.00  0.00    -0.218 A  
HETATM   13  C   UNL     1      -9.534  12.782  67.703  1.00  0.00    -0.190 A  
HETATM   14  S   UNL     1      -7.229   9.979  69.421  1.00  0.00    -0.101 S  
HETATM   15  C   UNL     1      -8.631  10.844  68.826  1.00  0.00    -0.159 A  
ENDROOT
BRANCH   3  16
HETATM   16  C   UNL     1      -9.538   6.938  70.686  1.00  0.00    -0.169 C  
BRANCH  16  17
HETATM   17  S   UNL     1     -11.058   6.215  69.931  1.00  0.00    -0.413 SA 
BRANCH  17  18
HETATM   18  C   UNL     1     -10.328   5.390  68.457  1.00  0.00    -0.149 C  
HETATM   19  F   UNL     1     -11.647   6.896  67.120  1.00  0.00    -0.361 F  
HETATM   20  C   UNL     1     -10.744   5.893  67.075  1.00  0.00    -0.318 C  
HETATM   21  F   UNL     1     -11.284   4.897  66.338  1.00  0.00    -0.163 F  
HETATM   22  F   UNL     1      -9.666   6.359  66.401  1.00  0.00    -0.189 F  
ENDBRANCH  17  18
ENDBRANCH  16  17
ENDBRANCH   3  16
BRANCH  13  23
HETATM   23  S   UNL     1      -9.234  14.330  66.913  1.00  0.00    -0.257 S  
HETATM   24  H2  UNL     1     -10.955  15.169  68.434  1.00  0.00     0.000 HD 
HETATM   25  H1  UNL     1     -10.121  16.272  67.228  1.00  0.00     0.000 HD 
HETATM   26  N   UNL     1     -10.294  15.377  67.685  1.00  0.00    -0.258 N  
HETATM   27  O   UNL     1      -7.898  14.770  67.219  1.00  0.00    -0.188 OA 
HETATM   28  O   UNL     1      -9.724  14.260  65.554  1.00  0.00    -0.266 OA 
ENDBRANCH  13  23
TORSDOF 4
ENDMDL
MODEL      130
REMARK 921   NORMALIZED FREE ENERGY PREDICTED BY IDOCK:   -4.03 KCAL/MOL
REMARK 922        TOTAL FREE ENERGY PREDICTED BY IDOCK:   -5.34 KCAL/MOL
REMARK 923 INTER-LIGAND FREE ENERGY PREDICTED BY IDOCK:   -4.55 KCAL/MOL
REMARK 924 INTRA-LIGAND FREE ENERGY PREDICTED BY IDOCK:   -0.78 KCAL/MOL
REMARK 927      BINDING AFFINITY PREDICTED BY RF-SCORE:    0.00 PKD
ROOT
HETATM    1  C   UNL     1     -11.836  11.699  62.873  1.00  0.00     0.427 C  
HETATM    2  N   UNL     1     -10.895  12.094  63.941  1.00  0.00    -0.364 N  
HETATM    3  C   UNL     1     -10.109  11.009  64.553  1.00  0.00    -0.321 C  
HETATM    4  N   UNL     1      -8.981  11.623  65.259  1.00  0.00    -0.410 NA 
HETATM    5 CL   UNL     1      -7.095  14.157  69.238  1.00  0.00    -0.108 Cl 
HETATM    6  C   UNL     1      -9.238  12.562  66.256  1.00  0.00    -0.132 A  
HETATM    7  C   UNL     1     -10.618  14.310  67.268  1.00  0.00    -0.278 A  
HETATM    8  H   UNL     1      -8.022  11.367  65.025  1.00  0.00     0.000 HD 
HETATM    9  C   UNL     1      -8.227  12.894  67.170  1.00  0.00    -0.142 A  
HETATM   10  O   UNL     1     -12.631  12.105  65.802  1.00  0.00    -0.344 OA 
HETATM   11  O   UNL     1     -12.101  14.246  64.579  1.00  0.00    -0.441 OA 
HETATM   12  C   UNL     1      -8.409  13.890  68.149  1.00  0.00    -0.163 A  
HETATM   13  C   UNL     1      -9.614  14.594  68.199  1.00  0.00    -0.213 A  
HETATM   14  S   UNL     1     -11.683  12.987  65.156  1.00  0.00    -0.366 S  
HETATM   15  C   UNL     1     -10.409  13.311  66.314  1.00  0.00    -0.290 A  
ENDROOT
BRANCH   3  16
HETATM   16  C   UNL     1      -9.543  10.004  63.511  1.00  0.00    -0.074 C  
BRANCH  16  17
HETATM   17  S   UNL     1      -7.990   9.216  64.118  1.00  0.00    -0.149 SA 
BRANCH  17  18
HETATM   18  C   UNL     1      -8.685   8.015  65.326  1.00  0.00    -0.029 C  
HETATM   19  F   UNL     1      -7.814   9.447  67.054  1.00  0.00    -0.096 F  
HETATM   20  C   UNL     1      -8.508   8.313  66.815  1.00  0.00    -0.122 C  
HETATM   21  F   UNL     1      -7.860   7.304  67.438  1.00  0.00    -0.102 F  
HETATM   22  F   UNL     1      -9.715   8.451  67.412  1.00  0.00    -0.167 F  
ENDBRANCH  17  18
ENDBRANCH  16  17
ENDBRANCH   3  16
BRANCH  13  23
HETATM   23  S   UNL     1      -9.916  15.876  69.372  1.00  0.00    -0.277 S  
HETATM   24  H2  UNL     1     -12.072  16.080  68.239  1.00  0.00     0.000 HD 
HETATM   25  H1  UNL     1     -11.630  17.155  69.658  1.00  0.00     0.000 HD 
HETATM   26  N   UNL     1     -11.456  16.414  68.980  1.00  0.00    -0.262 N  
HETATM   27  O   UNL     1      -9.984  15.306  70.692  1.00  0.00     0.108 OA 
HETATM   28  O   UNL     1      -9.054  16.996  69.067  1.00  0.00    -0.241 OA 
ENDBRANCH  13  23
TORSDOF 4
ENDMDL
MODEL      131
REMARK 921   NORMALIZED FREE ENERGY PREDICTED BY IDOCK:   -4.01 KCAL/MOL
REMARK 922        TOTAL FREE ENERGY PREDICTED BY IDOCK:   -5.31 KCAL/MOL
REMARK 923 INTER-LIGAND FREE ENERGY PREDICTED BY IDOCK:   -4.89 KCAL/MOL
REMARK 924 INTRA-LIGAND FREE ENERGY PREDICTED BY IDOCK:   -0.42 KCAL/MOL
REMARK 927      BINDING AFFINITY PREDICTED BY RF-SCORE:    0.00 PKD
ROOT
HETATM    1  C   UNL     1     -11.537  12.026  68.539  1.00  0.00    -0.309 C  
HETATM    2  N   UNL     1     -11.149  10.647  68.174  1.00  0.00    -0.265 N  
HETATM    3  C   UNL     1     -10.727   9.774  69.283  1.00  0.00    -0.224 C  
HETATM    4  N   UNL     1     -10.787   8.390  68.804  1.00  0.00    -0.432 NA 
HETATM    5 CL   UNL     1      -8.852   4.552  66.096  1.00  0.00    -0.116 Cl 
HETATM    6  C   UNL     1     -10.040   8.029  67.685  1.00  0.00    -0.209 A  
HETATM    7  C   UNL     1      -8.958   8.553  65.553  1.00  0.00    -0.182 A  
HETATM    8  H   UNL     1     -11.367   7.701  69.283  1.00  0.00     0.000 HD 
HETATM    9  C   UNL     1      -9.801   6.672  67.420  1.00  0.00    -0.165 A  
HETATM   10  O   UNL     1      -8.762  11.233  67.514  1.00  0.00    -0.134 OA 
HETATM   11  O   UNL     1     -10.564  11.164  65.749  1.00  0.00    -0.259 OA 
HETATM   12  C   UNL     1      -9.118   6.250  66.264  1.00  0.00    -0.153 A  
HETATM   13  C   UNL     1      -8.690   7.199  65.332  1.00  0.00     0.037 A  
HETATM   14  S   UNL     1      -9.961  10.644  66.957  1.00  0.00    -0.210 S  
HETATM   15  C   UNL     1      -9.632   8.940  66.715  1.00  0.00    -0.202 A  
ENDROOT
BRANCH   3  16
HETATM   16  C   UNL     1     -11.639   9.896  70.536  1.00  0.00    -0.309 C  
BRANCH  16  17
HETATM   17  S   UNL     1     -10.918   8.998  71.977  1.00  0.00    -0.169 SA 
BRANCH  17  18
HETATM   18  C   UNL     1     -11.732   7.359  71.779  1.00  0.00    -0.286 C  
HETATM   19  F   UNL     1      -9.520   6.411  71.730  1.00  0.00    -0.153 F  
HETATM   20  C   UNL     1     -10.838   6.123  71.683  1.00  0.00    -0.258 C  
HETATM   21  F   UNL     1     -11.064   5.450  70.533  1.00  0.00    -0.309 F  
HETATM   22  F   UNL     1     -11.098   5.276  72.707  1.00  0.00    -0.264 F  
ENDBRANCH  17  18
ENDBRANCH  16  17
ENDBRANCH   3  16
BRANCH  13  23
HETATM   23  S   UNL     1      -7.854   6.756  63.844  1.00  0.00    -0.076 S  
HETATM   24  H2  UNL     1      -8.678   8.906  63.022  1.00  0.00     0.000 HD 
HETATM   25  H1  UNL     1      -7.661   7.803  61.966  1.00  0.00     0.000 HD 
HETATM   26  N   UNL     1      -8.144   8.059  62.827  1.00  0.00    -0.156 N  
HETATM   27  O   UNL     1      -6.436   6.713  64.090  1.00  0.00    -0.036 OA 
HETATM   28  O   UNL     1      -8.557   5.654  63.226  1.00  0.00    -0.045 OA 
ENDBRANCH  13  23
TORSDOF 4
ENDMDL
MODEL      132
REMARK 921   NORMALIZED FREE ENERGY PREDICTED BY IDOCK:   -3.99 KCAL/MOL
REMARK 922        TOTAL FREE ENERGY PREDICTED BY IDOCK:   -5.28 KCAL/MOL
REMARK 923 INTER-LIGAND FREE ENERGY PREDICTED BY IDOCK:   -5.03 KCAL/MOL
REMARK 924 INTRA-LIGAND FREE ENERGY PREDICTED BY IDOCK:   -0.26 KCAL/MOL
REMARK 927      BINDING AFFINITY PREDICTED BY RF-SCORE:    0.00 PKD
ROOT
HETATM    1  C   UNL     1      -6.334   7.941  69.029  1.00  0.00    -0.036 C  
HETATM    2  N   UNL     1      -7.345   8.509  68.113  1.00  0.00    -0.090 N  
HETATM    3  C   UNL     1      -7.306   8.030  66.720  1.00  0.00    -0.089 C  
HETATM    4  N   UNL     1      -8.590   8.368  66.100  1.00  0.00    -0.132 NA 
HETATM    5 CL   UNL     1     -11.742  11.758  64.008  1.00  0.00    -0.443 Cl 
HETATM    6  C   UNL     1      -8.995   9.700  66.069  1.00  0.00    -0.162 A  
HETATM    7  C   UNL     1      -9.021  11.969  66.985  1.00  0.00    -0.198 A  
HETATM    8  H   UNL     1      -9.178   7.639  65.696  1.00  0.00     0.000 HD 
HETATM    9  C   UNL     1     -10.019  10.092  65.192  1.00  0.00    -0.379 A  
HETATM   10  O   UNL     1      -6.037  10.629  67.590  1.00  0.00    -0.048 OA 
HETATM   11  O   UNL     1      -7.746  10.643  69.445  1.00  0.00    -0.139 OA 
HETATM   12  C   UNL     1     -10.517  11.409  65.174  1.00  0.00    -0.295 A  
HETATM   13  C   UNL     1     -10.008  12.350  66.072  1.00  0.00    -0.255 A  
HETATM   14  S   UNL     1      -7.310  10.209  68.136  1.00  0.00    -0.082 S  
HETATM   15  C   UNL     1      -8.541  10.656  66.972  1.00  0.00    -0.128 A  
ENDROOT
BRANCH   3  16
HETATM   16  C   UNL     1      -7.101   6.493  66.610  1.00  0.00    -0.068 C  
BRANCH  16  17
HETATM   17  S   UNL     1      -8.673   5.584  66.938  1.00  0.00    -0.112 SA 
BRANCH  17  18
HETATM   18  C   UNL     1      -8.416   5.115  68.698  1.00  0.00    -0.088 C  
HETATM   19  F   UNL     1     -10.775   5.481  69.006  1.00  0.00    -0.299 F  
HETATM   20  C   UNL     1      -9.633   5.104  69.622  1.00  0.00    -0.167 C  
HETATM   21  F   UNL     1      -9.450   5.931  70.676  1.00  0.00    -0.168 F  
HETATM   22  F   UNL     1      -9.838   3.859  70.113  1.00  0.00    -0.256 F  
ENDBRANCH  17  18
ENDBRANCH  16  17
ENDBRANCH   3  16
BRANCH  13  23
HETATM   23  S   UNL     1     -10.595  14.012  66.138  1.00  0.00    -0.296 S  
HETATM   24  H2  UNL     1     -12.807  12.975  66.234  1.00  0.00     0.000 HD 
HETATM   25  H1  UNL     1     -12.602  14.798  66.261  1.00  0.00     0.000 HD 
HETATM   26  N   UNL     1     -12.262  13.837  66.223  1.00  0.00    -0.444 N  
HETATM   27  O   UNL     1     -10.164  14.620  67.370  1.00  0.00    -0.239 OA 
HETATM   28  O   UNL     1     -10.364  14.637  64.855  1.00  0.00    -0.411 OA 
ENDBRANCH  13  23
TORSDOF 4
ENDMDL
MODEL      133
REMARK 921   NORMALIZED FREE ENERGY PREDICTED BY IDOCK:   -3.98 KCAL/MOL
REMARK 922        TOTAL FREE ENERGY PREDICTED BY IDOCK:   -5.28 KCAL/MOL
REMARK 923 INTER-LIGAND FREE ENERGY PREDICTED BY IDOCK:   -4.84 KCAL/MOL
REMARK 924 INTRA-LIGAND FREE ENERGY PREDICTED BY IDOCK:   -0.44 KCAL/MOL
REMARK 927      BINDING AFFINITY PREDICTED BY RF-SCORE:    0.00 PKD
ROOT
HETATM    1  C   UNL     1     -11.127   9.565  71.369  1.00  0.00    -0.368 C  
HETATM    2  N   UNL     1     -10.572   9.391  70.011  1.00  0.00    -0.220 N  
HETATM    3  C   UNL     1     -11.408   9.871  68.898  1.00  0.00    -0.007 C  
HETATM    4  N   UNL     1     -10.547   9.994  67.718  1.00  0.00    -0.242 NA 
HETATM    5 CL   UNL     1      -8.002   7.899  63.853  1.00  0.00    -0.141 Cl 
HETATM    6  C   UNL     1      -9.858   8.872  67.264  1.00  0.00    -0.199 A  
HETATM    7  C   UNL     1      -8.770   6.713  67.637  1.00  0.00    -0.118 A  
HETATM    8  H   UNL     1     -10.454  10.889  67.236  1.00  0.00     0.000 HD 
HETATM    9  C   UNL     1      -9.322   8.867  65.967  1.00  0.00    -0.306 A  
HETATM   10  O   UNL     1     -11.327   6.975  69.748  1.00  0.00    -0.249 OA 
HETATM   11  O   UNL     1      -9.007   7.470  70.605  1.00  0.00    -0.152 OA 
HETATM   12  C   UNL     1      -8.553   7.790  65.486  1.00  0.00    -0.105 A  
HETATM   13  C   UNL     1      -8.284   6.707  66.326  1.00  0.00    -0.120 A  
HETATM   14  S   UNL     1     -10.121   7.774  69.733  1.00  0.00    -0.198 S  
HETATM   15  C   UNL     1      -9.536   7.794  68.082  1.00  0.00    -0.146 A  
ENDROOT
BRANCH   3  16
HETATM   16  C   UNL     1     -12.055  11.257  69.176  1.00  0.00    -0.279 C  
BRANCH  16  17
HETATM   17  S   UNL     1     -10.963  12.631  68.608  1.00  0.00    -0.263 SA 
BRANCH  17  18
HETATM   18  C   UNL     1     -11.796  14.062  69.410  1.00  0.00    -0.333 C  
HETATM   19  F   UNL     1      -9.846  15.353  68.841  1.00  0.00    -0.184 F  
HETATM   20  C   UNL     1     -11.065  15.404  69.420  1.00  0.00    -0.282 C  
HETATM   21  F   UNL     1     -10.893  15.854  70.684  1.00  0.00    -0.299 F  
HETATM   22  F   UNL     1     -11.784  16.335  68.752  1.00  0.00    -0.354 F  
ENDBRANCH  17  18
ENDBRANCH  16  17
ENDBRANCH   3  16
BRANCH  13  23
HETATM   23  S   UNL     1      -7.306   5.330  65.815  1.00  0.00    -0.081 S  
HETATM   24  H2  UNL     1      -7.587   4.578  68.123  1.00  0.00     0.000 HD 
HETATM   25  H1  UNL     1      -6.623   3.599  66.908  1.00  0.00     0.000 HD 
HETATM   26  N   UNL     1      -7.189   4.395  67.203  1.00  0.00    -0.068 N  
HETATM   27  O   UNL     1      -8.038   4.563  64.841  1.00  0.00    -0.096 OA 
HETATM   28  O   UNL     1      -5.956   5.786  65.572  1.00  0.00    -0.026 OA 
ENDBRANCH  13  23
TORSDOF 4
ENDMDL
MODEL      134
REMARK 921   NORMALIZED FREE ENERGY PREDICTED BY IDOCK:   -3.98 KCAL/MOL
REMARK 922        TOTAL FREE ENERGY PREDICTED BY IDOCK:   -5.27 KCAL/MOL
REMARK 923 INTER-LIGAND FREE ENERGY PREDICTED BY IDOCK:   -4.75 KCAL/MOL
REMARK 924 INTRA-LIGAND FREE ENERGY PREDICTED BY IDOCK:   -0.52 KCAL/MOL
REMARK 927      BINDING AFFINITY PREDICTED BY RF-SCORE:    0.00 PKD
ROOT
HETATM    1  C   UNL     1      -8.447  12.032  68.449  1.00  0.00    -0.147 C  
HETATM    2  N   UNL     1      -8.697  10.646  68.004  1.00  0.00    -0.124 N  
HETATM    3  C   UNL     1      -9.912  10.428  67.199  1.00  0.00    -0.195 C  
HETATM    4  N   UNL     1      -9.771   9.135  66.525  1.00  0.00    -0.219 NA 
HETATM    5 CL   UNL     1      -9.883   4.057  66.615  1.00  0.00    -0.220 Cl 
HETATM    6  C   UNL     1      -9.573   7.990  67.293  1.00  0.00    -0.162 A  
HETATM    7  C   UNL     1      -8.753   6.855  69.299  1.00  0.00    -0.135 A  
HETATM    8  H   UNL     1      -9.818   9.074  65.508  1.00  0.00     0.000 HD 
HETATM    9  C   UNL     1      -9.785   6.727  66.721  1.00  0.00    -0.222 A  
HETATM   10  O   UNL     1      -9.801   9.890  70.169  1.00  0.00    -0.247 OA 
HETATM   11  O   UNL     1      -7.327   9.523  69.835  1.00  0.00    -0.076 OA 
HETATM   12  C   UNL     1      -9.527   5.538  67.429  1.00  0.00    -0.117 A  
HETATM   13  C   UNL     1      -9.015   5.607  68.727  1.00  0.00    -0.115 A  
HETATM   14  S   UNL     1      -8.678   9.564  69.316  1.00  0.00    -0.162 S  
HETATM   15  C   UNL     1      -9.027   8.017  68.573  1.00  0.00    -0.133 A  
ENDROOT
BRANCH   3  16
HETATM   16  C   UNL     1     -10.129  11.522  66.116  1.00  0.00    -0.229 C  
BRANCH  16  17
HETATM   17  S   UNL     1     -11.714  12.427  66.388  1.00  0.00    -0.357 SA 
BRANCH  17  18
HETATM   18  C   UNL     1     -11.066  14.049  66.968  1.00  0.00    -0.304 C  
HETATM   19  F   UNL     1     -12.242  13.636  69.027  1.00  0.00    -0.366 F  
HETATM   20  C   UNL     1     -11.436  14.504  68.379  1.00  0.00    -0.302 C  
HETATM   21  F   UNL     1     -12.067  15.700  68.353  1.00  0.00    -0.344 F  
HETATM   22  F   UNL     1     -10.321  14.650  69.133  1.00  0.00    -0.225 F  
ENDBRANCH  17  18
ENDBRANCH  16  17
ENDBRANCH   3  16
BRANCH  13  23
HETATM   23  S   UNL     1      -8.636   4.168  69.675  1.00  0.00    -0.074 S  
HETATM   24  H2  UNL     1      -7.840   5.768  71.343  1.00  0.00     0.000 HD 
HETATM   25  H1  UNL     1      -7.764   3.959  71.638  1.00  0.00     0.000 HD 
HETATM   26  N   UNL     1      -7.983   4.790  71.090  1.00  0.00    -0.086 N  
HETATM   27  O   UNL     1      -9.859   3.494  70.026  1.00  0.00    -0.138 OA 
HETATM   28  O   UNL     1      -7.534   3.475  69.045  1.00  0.00    -0.052 OA 
ENDBRANCH  13  23
TORSDOF 4
ENDMDL
MODEL      135
REMARK 921   NORMALIZED FREE ENERGY PREDICTED BY IDOCK:   -3.98 KCAL/MOL
REMARK 922        TOTAL FREE ENERGY PREDICTED BY IDOCK:   -5.27 KCAL/MOL
REMARK 923 INTER-LIGAND FREE ENERGY PREDICTED BY IDOCK:   -4.83 KCAL/MOL
REMARK 924 INTRA-LIGAND FREE ENERGY PREDICTED BY IDOCK:   -0.44 KCAL/MOL
REMARK 927      BINDING AFFINITY PREDICTED BY RF-SCORE:    0.00 PKD
ROOT
HETATM    1  C   UNL     1     -11.870  15.558  67.910  1.00  0.00    -0.017 C  
HETATM    2  N   UNL     1     -10.784  14.557  67.872  1.00  0.00    -0.243 N  
HETATM    3  C   UNL     1      -9.427  15.054  68.158  1.00  0.00    -0.196 C  
HETATM    4  N   UNL     1      -8.589  13.896  68.477  1.00  0.00    -0.250 NA 
HETATM    5 CL   UNL     1      -5.926   9.821  67.026  1.00  0.00    -0.054 Cl 
HETATM    6  C   UNL     1      -8.465  12.872  67.541  1.00  0.00    -0.186 A  
HETATM    7  C   UNL     1      -9.324  11.538  65.679  1.00  0.00    -0.221 A  
HETATM    8  H   UNL     1      -8.102  13.840  69.372  1.00  0.00     0.000 HD 
HETATM    9  C   UNL     1      -7.419  11.946  67.662  1.00  0.00    -0.127 A  
HETATM   10  O   UNL     1     -10.459  14.647  65.349  1.00  0.00    -0.327 OA 
HETATM   11  O   UNL     1     -11.990  12.909  66.348  1.00  0.00    -0.398 OA 
HETATM   12  C   UNL     1      -7.292  10.850  66.787  1.00  0.00    -0.134 A  
HETATM   13  C   UNL     1      -8.248  10.653  65.788  1.00  0.00    -0.161 A  
HETATM   14  S   UNL     1     -10.783  13.706  66.399  1.00  0.00    -0.282 S  
HETATM   15  C   UNL     1      -9.417  12.620  66.558  1.00  0.00    -0.247 A  
ENDROOT
BRANCH   3  16
HETATM   16  C   UNL     1      -9.380  16.037  69.362  1.00  0.00    -0.218 C  
BRANCH  16  17
HETATM   17  S   UNL     1      -9.092  17.770  68.800  1.00  0.00    -0.146 SA 
BRANCH  17  18
HETATM   18  C   UNL     1      -7.714  17.500  67.610  1.00  0.00    -0.200 C  
HETATM   19  F   UNL     1      -7.567  19.896  67.436  1.00  0.00    -0.268 F  
HETATM   20  C   UNL     1      -7.030  18.731  67.015  1.00  0.00    -0.203 C  
HETATM   21  F   UNL     1      -7.099  18.718  65.665  1.00  0.00    -0.280 F  
HETATM   22  F   UNL     1      -5.720  18.750  67.355  1.00  0.00    -0.151 F  
ENDBRANCH  17  18
ENDBRANCH  16  17
ENDBRANCH   3  16
BRANCH  13  23
HETATM   23  S   UNL     1      -8.183   9.291  64.669  1.00  0.00    -0.158 S  
HETATM   24  H2  UNL     1     -10.024  10.437  63.541  1.00  0.00     0.000 HD 
HETATM   25  H1  UNL     1      -9.360   8.845  62.915  1.00  0.00     0.000 HD 
HETATM   26  N   UNL     1      -9.397   9.633  63.562  1.00  0.00    -0.113 N  
HETATM   27  O   UNL     1      -6.932   9.320  63.956  1.00  0.00    -0.089 OA 
HETATM   28  O   UNL     1      -8.644   8.104  65.354  1.00  0.00    -0.160 OA 
ENDBRANCH  13  23
TORSDOF 4
ENDMDL
MODEL      136
REMARK 921   NORMALIZED FREE ENERGY PREDICTED BY IDOCK:   -3.97 KCAL/MOL
REMARK 922        TOTAL FREE ENERGY PREDICTED BY IDOCK:   -5.26 KCAL/MOL
REMARK 923 INTER-LIGAND FREE ENERGY PREDICTED BY IDOCK:   -4.85 KCAL/MOL
REMARK 924 INTRA-LIGAND FREE ENERGY PREDICTED BY IDOCK:   -0.42 KCAL/MOL
REMARK 927      BINDING AFFINITY PREDICTED BY RF-SCORE:    0.00 PKD
ROOT
HETATM    1  C   UNL     1      -6.104  10.208  70.269  1.00  0.00    -0.090 C  
HETATM    2  N   UNL     1      -7.295  10.709  69.552  1.00  0.00    -0.141 N  
HETATM    3  C   UNL     1      -7.971   9.749  68.661  1.00  0.00    -0.089 C  
HETATM    4  N   UNL     1      -9.310  10.274  68.381  1.00  0.00    -0.139 NA 
HETATM    5 CL   UNL     1     -12.384  13.493  65.934  1.00  0.00    -0.498 Cl 
HETATM    6  C   UNL     1      -9.435  11.534  67.802  1.00  0.00    -0.168 A  
HETATM    7  C   UNL     1      -8.632  13.809  67.395  1.00  0.00    -0.208 A  
HETATM    8  H   UNL     1     -10.139   9.723  68.606  1.00  0.00     0.000 HD 
HETATM    9  C   UNL     1     -10.651  11.906  67.209  1.00  0.00    -0.261 A  
HETATM   10  O   UNL     1      -5.995  11.799  67.655  1.00  0.00    -0.055 OA 
HETATM   11  O   UNL     1      -6.660  13.173  69.663  1.00  0.00    -0.085 OA 
HETATM   12  C   UNL     1     -10.854  13.194  66.677  1.00  0.00    -0.280 A  
HETATM   13  C   UNL     1      -9.835  14.145  66.767  1.00  0.00    -0.272 A  
HETATM   14  S   UNL     1      -6.943  12.135  68.695  1.00  0.00    -0.101 S  
HETATM   15  C   UNL     1      -8.459  12.520  67.906  1.00  0.00    -0.171 A  
ENDROOT
BRANCH   3  16
HETATM   16  C   UNL     1      -8.123   8.336  69.291  1.00  0.00    -0.116 C  
BRANCH  16  17
HETATM   17  S   UNL     1      -9.748   7.581  68.855  1.00  0.00    -0.154 SA 
BRANCH  17  18
HETATM   18  C   UNL     1      -9.226   5.842  68.548  1.00  0.00    -0.117 C  
HETATM   19  F   UNL     1      -8.728   6.525  66.294  1.00  0.00    -0.123 F  
HETATM   20  C   UNL     1      -8.708   5.486  67.155  1.00  0.00    -0.107 C  
HETATM   21  F   UNL     1      -9.440   4.491  66.606  1.00  0.00    -0.132 F  
HETATM   22  F   UNL     1      -7.427   5.054  67.228  1.00  0.00    -0.077 F  
ENDBRANCH  17  18
ENDBRANCH  16  17
ENDBRANCH   3  16
BRANCH  13  23
HETATM   23  S   UNL     1     -10.015  15.789  66.154  1.00  0.00    -0.338 S  
HETATM   24  H2  UNL     1      -7.589  15.904  66.432  1.00  0.00     0.000 HD 
HETATM   25  H1  UNL     1      -8.549  17.332  65.795  1.00  0.00     0.000 HD 
HETATM   26  N   UNL     1      -8.445  16.381  66.149  1.00  0.00    -0.332 N  
HETATM   27  O   UNL     1     -10.460  15.740  64.785  1.00  0.00    -0.490 OA 
HETATM   28  O   UNL     1     -10.696  16.584  67.152  1.00  0.00    -0.303 OA 
ENDBRANCH  13  23
TORSDOF 4
ENDMDL
MODEL      137
REMARK 921   NORMALIZED FREE ENERGY PREDICTED BY IDOCK:   -3.94 KCAL/MOL
REMARK 922        TOTAL FREE ENERGY PREDICTED BY IDOCK:   -5.22 KCAL/MOL
REMARK 923 INTER-LIGAND FREE ENERGY PREDICTED BY IDOCK:   -4.78 KCAL/MOL
REMARK 924 INTRA-LIGAND FREE ENERGY PREDICTED BY IDOCK:   -0.44 KCAL/MOL
REMARK 927      BINDING AFFINITY PREDICTED BY RF-SCORE:    0.00 PKD
ROOT
HETATM    1  C   UNL     1     -10.908  13.058  68.047  1.00  0.00    -0.242 C  
HETATM    2  N   UNL     1     -10.546  11.687  67.630  1.00  0.00    -0.196 N  
HETATM    3  C   UNL     1     -10.208  10.744  68.711  1.00  0.00    -0.193 C  
HETATM    4  N   UNL     1     -10.288   9.390  68.158  1.00  0.00    -0.201 NA 
HETATM    5 CL   UNL     1      -8.344   5.629  65.350  1.00  0.00    -0.139 Cl 
HETATM    6  C   UNL     1      -9.499   9.061  67.059  1.00  0.00    -0.163 A  
HETATM    7  C   UNL     1      -8.296   9.653  65.012  1.00  0.00    -0.146 A  
HETATM    8  H   UNL     1     -10.912   8.698  68.573  1.00  0.00     0.000 HD 
HETATM    9  C   UNL     1      -9.290   7.711  66.736  1.00  0.00    -0.218 A  
HETATM   10  O   UNL     1      -8.112  12.223  67.116  1.00  0.00    -0.173 OA 
HETATM   11  O   UNL     1      -9.825  12.305  65.266  1.00  0.00    -0.250 OA 
HETATM   12  C   UNL     1      -8.564   7.325  65.593  1.00  0.00    -0.109 A  
HETATM   13  C   UNL     1      -8.060   8.304  64.734  1.00  0.00    -0.151 A  
HETATM   14  S   UNL     1      -9.300  11.704  66.473  1.00  0.00    -0.210 S  
HETATM   15  C   UNL     1      -9.014  10.004  66.158  1.00  0.00    -0.149 A  
ENDROOT
BRANCH   3  16
HETATM   16  C   UNL     1     -11.176  10.834  69.923  1.00  0.00    -0.300 C  
BRANCH  16  17
HETATM   17  S   UNL     1     -10.743   9.593  71.218  1.00  0.00    -0.129 SA 
BRANCH  17  18
HETATM   18  C   UNL     1     -12.059   8.341  70.920  1.00  0.00    -0.137 C  
HETATM   19  F   UNL     1     -13.315   9.436  72.657  1.00  0.00    -0.473 F  
HETATM   20  C   UNL     1     -13.334   8.430  71.757  1.00  0.00    -0.357 C  
HETATM   21  F   UNL     1     -13.548   7.281  72.439  1.00  0.00    -0.103 F  
HETATM   22  F   UNL     1     -14.407   8.632  70.957  1.00  0.00    -0.379 F  
ENDBRANCH  17  18
ENDBRANCH  16  17
ENDBRANCH   3  16
BRANCH  13  23
HETATM   23  S   UNL     1      -7.165   7.909  63.266  1.00  0.00    -0.097 S  
HETATM   24  H2  UNL     1      -7.115  10.329  62.930  1.00  0.00     0.000 HD 
HETATM   25  H1  UNL     1      -6.334   9.180  61.732  1.00  0.00     0.000 HD 
HETATM   26  N   UNL     1      -6.851   9.408  62.581  1.00  0.00    -0.096 N  
HETATM   27  O   UNL     1      -5.898   7.327  63.624  1.00  0.00    -0.039 OA 
HETATM   28  O   UNL     1      -8.065   7.268  62.333  1.00  0.00    -0.131 OA 
ENDBRANCH  13  23
TORSDOF 4
ENDMDL
MODEL      138
REMARK 921   NORMALIZED FREE ENERGY PREDICTED BY IDOCK:   -3.92 KCAL/MOL
REMARK 922        TOTAL FREE ENERGY PREDICTED BY IDOCK:   -5.20 KCAL/MOL
REMARK 923 INTER-LIGAND FREE ENERGY PREDICTED BY IDOCK:   -4.81 KCAL/MOL
REMARK 924 INTRA-LIGAND FREE ENERGY PREDICTED BY IDOCK:   -0.40 KCAL/MOL
REMARK 927      BINDING AFFINITY PREDICTED BY RF-SCORE:    0.00 PKD
ROOT
HETATM    1  C   UNL     1      -5.983   9.851  69.343  1.00  0.00    -0.037 C  
HETATM    2  N   UNL     1      -7.109  10.798  69.220  1.00  0.00    -0.103 N  
HETATM    3  C   UNL     1      -8.314  10.296  68.537  1.00  0.00    -0.116 C  
HETATM    4  N   UNL     1      -9.421  11.194  68.873  1.00  0.00    -0.338 NA 
HETATM    5 CL   UNL     1     -11.894  15.592  68.283  1.00  0.00    -0.256 Cl 
HETATM    6  C   UNL     1      -9.309  12.549  68.571  1.00  0.00    -0.082 A  
HETATM    7  C   UNL     1      -7.986  14.575  68.206  1.00  0.00    -0.137 A  
HETATM    8  H   UNL     1     -10.263  10.832  69.322  1.00  0.00     0.000 HD 
HETATM    9  C   UNL     1     -10.459  13.352  68.553  1.00  0.00    -0.260 A  
HETATM   10  O   UNL     1      -6.220  11.965  67.140  1.00  0.00    -0.128 OA 
HETATM   11  O   UNL     1      -5.704  12.914  69.420  1.00  0.00    -0.079 OA 
HETATM   12  C   UNL     1     -10.392  14.740  68.327  1.00  0.00    -0.238 A  
HETATM   13  C   UNL     1      -9.148  15.349  68.147  1.00  0.00    -0.184 A  
HETATM   14  S   UNL     1      -6.611  12.258  68.503  1.00  0.00    -0.078 S  
HETATM   15  C   UNL     1      -8.087  13.198  68.424  1.00  0.00    -0.130 A  
ENDROOT
BRANCH   3  16
HETATM   16  C   UNL     1      -8.704   8.855  68.972  1.00  0.00    -0.136 C  
BRANCH  16  17
HETATM   17  S   UNL     1     -10.515   8.723  69.297  1.00  0.00    -0.199 SA 
BRANCH  17  18
HETATM   18  C   UNL     1     -10.504   7.575  70.735  1.00  0.00    -0.213 C  
HETATM   19  F   UNL     1      -9.737   9.437  72.053  1.00  0.00    -0.288 F  
HETATM   20  C   UNL     1     -10.084   8.133  72.094  1.00  0.00    -0.253 C  
HETATM   21  F   UNL     1      -9.029   7.450  72.594  1.00  0.00    -0.141 F  
HETATM   22  F   UNL     1     -11.099   8.019  72.982  1.00  0.00    -0.416 F  
ENDBRANCH  17  18
ENDBRANCH  16  17
ENDBRANCH   3  16
BRANCH  13  23
HETATM   23  S   UNL     1      -8.970  17.085  67.888  1.00  0.00    -0.232 S  
HETATM   24  H2  UNL     1     -10.070  16.638  65.751  1.00  0.00     0.000 HD 
HETATM   25  H1  UNL     1      -9.549  18.332  66.224  1.00  0.00     0.000 HD 
HETATM   26  N   UNL     1      -9.652  17.329  66.374  1.00  0.00    -0.272 N  
HETATM   27  O   UNL     1      -9.783  17.793  68.843  1.00  0.00    -0.308 OA 
HETATM   28  O   UNL     1      -7.568  17.386  67.704  1.00  0.00    -0.183 OA 
ENDBRANCH  13  23
TORSDOF 4
ENDMDL
MODEL      139
REMARK 921   NORMALIZED FREE ENERGY PREDICTED BY IDOCK:   -3.89 KCAL/MOL
REMARK 922        TOTAL FREE ENERGY PREDICTED BY IDOCK:   -5.17 KCAL/MOL
REMARK 923 INTER-LIGAND FREE ENERGY PREDICTED BY IDOCK:   -4.84 KCAL/MOL
REMARK 924 INTRA-LIGAND FREE ENERGY PREDICTED BY IDOCK:   -0.33 KCAL/MOL
REMARK 927      BINDING AFFINITY PREDICTED BY RF-SCORE:    0.00 PKD
ROOT
HETATM    1  C   UNL     1      -9.852   7.568  68.755  1.00  0.00    -0.166 C  
HETATM    2  N   UNL     1     -10.149   9.015  68.774  1.00  0.00    -0.193 N  
HETATM    3  C   UNL     1      -9.013   9.917  68.519  1.00  0.00    -0.122 C  
HETATM    4  N   UNL     1      -9.560  11.232  68.173  1.00  0.00    -0.180 NA 
HETATM    5 CL   UNL     1     -11.718  15.627  69.526  1.00  0.00    -0.359 Cl 
HETATM    6  C   UNL     1     -10.402  11.873  69.079  1.00  0.00    -0.030 A  
HETATM    7  C   UNL     1     -12.049  11.839  70.888  1.00  0.00    -0.271 A  
HETATM    8  H   UNL     1      -9.327  11.672  67.283  1.00  0.00     0.000 HD 
HETATM    9  C   UNL     1     -10.650  13.247  68.940  1.00  0.00    -0.167 A  
HETATM   10  O   UNL     1      -9.986   9.263  71.302  1.00  0.00    -0.296 OA 
HETATM   11  O   UNL     1     -12.231   8.844  70.232  1.00  0.00     0.163 OA 
HETATM   12  C   UNL     1     -11.552  13.927  69.782  1.00  0.00    -0.270 A  
HETATM   13  C   UNL     1     -12.247  13.217  70.763  1.00  0.00    -0.290 A  
HETATM   14  S   UNL     1     -10.924   9.465  70.219  1.00  0.00    -0.276 S  
HETATM   15  C   UNL     1     -11.142  11.195  70.042  1.00  0.00    -0.098 A  
ENDROOT
BRANCH   3  16
HETATM   16  C   UNL     1      -8.108   9.442  67.347  1.00  0.00    -0.110 C  
BRANCH  16  17
HETATM   17  S   UNL     1      -7.574  10.862  66.297  1.00  0.00    -0.109 SA 
BRANCH  17  18
HETATM   18  C   UNL     1      -6.430  11.713  67.461  1.00  0.00    -0.087 C  
HETATM   19  F   UNL     1      -7.951  13.578  67.387  1.00  0.00    -0.140 F  
HETATM   20  C   UNL     1      -6.803  13.119  67.930  1.00  0.00    -0.135 C  
HETATM   21  F   UNL     1      -5.829  14.006  67.626  1.00  0.00    -0.133 F  
HETATM   22  F   UNL     1      -6.963  13.138  69.274  1.00  0.00    -0.108 F  
ENDBRANCH  17  18
ENDBRANCH  16  17
ENDBRANCH   3  16
BRANCH  13  23
HETATM   23  S   UNL     1     -13.415  13.984  71.840  1.00  0.00    -0.457 S  
HETATM   24  H2  UNL     1     -11.501  15.312  72.581  1.00  0.00     0.000 HD 
HETATM   25  H1  UNL     1     -13.173  15.558  73.296  1.00  0.00     0.000 HD 
HETATM   26  N   UNL     1     -12.498  15.115  72.674  1.00  0.00    -0.351 N  
HETATM   27  O   UNL     1     -14.380  14.709  71.055  1.00  0.00    -0.213 OA 
HETATM   28  O   UNL     1     -13.813  13.028  72.849  1.00  0.00    -0.439 OA 
ENDBRANCH  13  23
TORSDOF 4
ENDMDL
MODEL      140
REMARK 921   NORMALIZED FREE ENERGY PREDICTED BY IDOCK:   -3.86 KCAL/MOL
REMARK 922        TOTAL FREE ENERGY PREDICTED BY IDOCK:   -5.13 KCAL/MOL
REMARK 923 INTER-LIGAND FREE ENERGY PREDICTED BY IDOCK:   -4.46 KCAL/MOL
REMARK 924 INTRA-LIGAND FREE ENERGY PREDICTED BY IDOCK:   -0.67 KCAL/MOL
REMARK 927      BINDING AFFINITY PREDICTED BY RF-SCORE:    0.00 PKD
ROOT
HETATM    1  C   UNL     1      -8.430  13.450  66.259  1.00  0.00     0.704 C  
HETATM    2  N   UNL     1      -9.485  13.462  67.293  1.00  0.00    -0.225 N  
HETATM    3  C   UNL     1      -9.439  14.572  68.260  1.00  0.00    -0.207 C  
HETATM    4  N   UNL     1     -10.749  14.646  68.913  1.00  0.00    -0.241 NA 
HETATM    5 CL   UNL     1     -14.123  12.902  72.286  1.00  0.00    -0.364 Cl 
HETATM    6  C   UNL     1     -11.232  13.528  69.589  1.00  0.00    -0.063 A  
HETATM    7  C   UNL     1     -11.375  11.110  69.930  1.00  0.00    -0.348 A  
HETATM    8  H   UNL     1     -11.300  15.505  68.873  1.00  0.00     0.000 HD 
HETATM    9  C   UNL     1     -12.288  13.674  70.500  1.00  0.00    -0.425 A  
HETATM   10  O   UNL     1      -8.311  11.836  68.860  1.00  0.00    -0.062 OA 
HETATM   11  O   UNL     1      -9.991  10.967  67.191  1.00  0.00    -0.181 OA 
HETATM   12  C   UNL     1     -12.863  12.566  71.153  1.00  0.00    -0.211 A  
HETATM   13  C   UNL     1     -12.396  11.281  70.869  1.00  0.00    -0.388 A  
HETATM   14  S   UNL     1      -9.549  11.980  68.125  1.00  0.00    -0.201 S  
HETATM   15  C   UNL     1     -10.821  12.230  69.304  1.00  0.00    -0.027 A  
ENDROOT
BRANCH   3  16
HETATM   16  C   UNL     1      -9.147  15.947  67.596  1.00  0.00    -0.198 C  
BRANCH  16  17
HETATM   17  S   UNL     1     -10.706  16.776  67.061  1.00  0.00    -0.084 SA 
BRANCH  17  18
HETATM   18  C   UNL     1     -10.733  16.302  65.283  1.00  0.00    -0.332 C  
HETATM   19  F   UNL     1     -12.306  14.586  65.897  1.00  0.00    -0.377 F  
HETATM   20  C   UNL     1     -11.640  15.146  64.864  1.00  0.00    -0.336 C  
HETATM   21  F   UNL     1     -10.929  14.165  64.263  1.00  0.00    -0.360 F  
HETATM   22  F   UNL     1     -12.569  15.576  63.978  1.00  0.00    -0.424 F  
ENDBRANCH  17  18
ENDBRANCH  16  17
ENDBRANCH   3  16
BRANCH  13  23
HETATM   23  S   UNL     1     -13.078   9.837  71.618  1.00  0.00    -0.446 S  
HETATM   24  H2  UNL     1     -10.901   8.842  71.124  1.00  0.00     0.000 HD 
HETATM   25  H1  UNL     1     -12.226   7.883  71.955  1.00  0.00     0.000 HD 
HETATM   26  N   UNL     1     -11.832   8.718  71.522  1.00  0.00    -0.291 N  
HETATM   27  O   UNL     1     -13.316  10.094  73.015  1.00  0.00     0.609 OA 
HETATM   28  O   UNL     1     -14.107   9.306  70.752  1.00  0.00     0.020 OA 
ENDBRANCH  13  23
TORSDOF 4
ENDMDL
MODEL      141
REMARK 921   NORMALIZED FREE ENERGY PREDICTED BY IDOCK:   -3.82 KCAL/MOL
REMARK 922        TOTAL FREE ENERGY PREDICTED BY IDOCK:   -5.08 KCAL/MOL
REMARK 923 INTER-LIGAND FREE ENERGY PREDICTED BY IDOCK:   -5.15 KCAL/MOL
REMARK 924 INTRA-LIGAND FREE ENERGY PREDICTED BY IDOCK:    0.07 KCAL/MOL
REMARK 927      BINDING AFFINITY PREDICTED BY RF-SCORE:    0.00 PKD
ROOT
HETATM    1  C   UNL     1      -9.583  13.261  65.652  1.00  0.00     0.007 C  
HETATM    2  N   UNL     1      -9.866  12.402  66.820  1.00  0.00    -0.217 N  
HETATM    3  C   UNL     1      -9.656  13.011  68.145  1.00  0.00    -0.227 C  
HETATM    4  N   UNL     1     -10.362  12.186  69.129  1.00  0.00    -0.422 NA 
HETATM    5 CL   UNL     1     -10.678   7.999  71.987  1.00  0.00    -0.298 Cl 
HETATM    6  C   UNL     1     -10.036  10.836  69.238  1.00  0.00    -0.159 A  
HETATM    7  C   UNL     1      -9.220   8.732  68.293  1.00  0.00    -0.143 A  
HETATM    8  H   UNL     1     -11.082  12.594  69.726  1.00  0.00     0.000 HD 
HETATM    9  C   UNL     1     -10.426  10.120  70.379  1.00  0.00    -0.237 A  
HETATM   10  O   UNL     1      -7.603  11.237  66.819  1.00  0.00    -0.141 OA 
HETATM   11  O   UNL     1      -9.548  10.185  65.606  1.00  0.00    -0.205 OA 
HETATM   12  C   UNL     1     -10.187   8.738  70.506  1.00  0.00    -0.202 A  
HETATM   13  C   UNL     1      -9.575   8.046  69.458  1.00  0.00    -0.164 A  
HETATM   14  S   UNL     1      -9.014  10.933  66.724  1.00  0.00    -0.153 S  
HETATM   15  C   UNL     1      -9.463  10.105  68.202  1.00  0.00    -0.142 A  
ENDROOT
BRANCH   3  16
HETATM   16  C   UNL     1     -10.206  14.462  68.242  1.00  0.00    -0.241 C  
BRANCH  16  17
HETATM   17  S   UNL     1      -8.883  15.702  67.898  1.00  0.00    -0.172 SA 
BRANCH  17  18
HETATM   18  C   UNL     1      -9.909  17.211  67.656  1.00  0.00    -0.270 C  
HETATM   19  F   UNL     1      -7.895  18.304  66.918  1.00  0.00    -0.211 F  
HETATM   20  C   UNL     1      -9.219  18.466  67.122  1.00  0.00    -0.264 C  
HETATM   21  F   UNL     1      -9.372  19.504  67.976  1.00  0.00    -0.345 F  
HETATM   22  F   UNL     1      -9.763  18.833  65.938  1.00  0.00    -0.318 F  
ENDBRANCH  17  18
ENDBRANCH  16  17
ENDBRANCH   3  16
BRANCH  13  23
HETATM   23  S   UNL     1      -9.266   6.310  69.520  1.00  0.00    -0.139 S  
HETATM   24  H2  UNL     1      -8.138   6.829  71.627  1.00  0.00     0.000 HD 
HETATM   25  H1  UNL     1      -8.234   5.111  70.989  1.00  0.00     0.000 HD 
HETATM   26  N   UNL     1      -8.413   6.114  70.952  1.00  0.00    -0.126 N  
HETATM   27  O   UNL     1     -10.515   5.610  69.666  1.00  0.00    -0.249 OA 
HETATM   28  O   UNL     1      -8.315   5.971  68.486  1.00  0.00    -0.112 OA 
ENDBRANCH  13  23
TORSDOF 4
ENDMDL
MODEL      142
REMARK 921   NORMALIZED FREE ENERGY PREDICTED BY IDOCK:   -3.82 KCAL/MOL
REMARK 922        TOTAL FREE ENERGY PREDICTED BY IDOCK:   -5.08 KCAL/MOL
REMARK 923 INTER-LIGAND FREE ENERGY PREDICTED BY IDOCK:   -5.29 KCAL/MOL
REMARK 924 INTRA-LIGAND FREE ENERGY PREDICTED BY IDOCK:    0.21 KCAL/MOL
REMARK 927      BINDING AFFINITY PREDICTED BY RF-SCORE:    0.00 PKD
ROOT
HETATM    1  C   UNL     1      -9.739   9.755  64.874  1.00  0.00    -0.192 C  
HETATM    2  N   UNL     1      -9.941   9.353  66.282  1.00  0.00    -0.280 N  
HETATM    3  C   UNL     1      -9.994  10.444  67.270  1.00  0.00    -0.188 C  
HETATM    4  N   UNL     1     -10.597   9.907  68.492  1.00  0.00    -0.208 NA 
HETATM    5 CL   UNL     1     -10.284   7.142  72.742  1.00  0.00    -0.220 Cl 
HETATM    6  C   UNL     1     -10.003   8.812  69.115  1.00  0.00    -0.191 A  
HETATM    7  C   UNL     1      -8.671   6.760  69.060  1.00  0.00    -0.130 A  
HETATM    8  H   UNL     1     -11.441  10.328  68.882  1.00  0.00     0.000 HD 
HETATM    9  C   UNL     1     -10.338   8.504  70.442  1.00  0.00    -0.222 A  
HETATM   10  O   UNL     1      -7.493   8.836  66.743  1.00  0.00    -0.085 OA 
HETATM   11  O   UNL     1      -9.044   6.984  66.019  1.00  0.00    -0.148 OA 
HETATM   12  C   UNL     1      -9.823   7.366  71.093  1.00  0.00    -0.174 A  
HETATM   13  C   UNL     1      -8.980   6.497  70.397  1.00  0.00    -0.152 A  
HETATM   14  S   UNL     1      -8.791   8.198  66.764  1.00  0.00    -0.145 S  
HETATM   15  C   UNL     1      -9.192   7.902  68.444  1.00  0.00    -0.134 A  
ENDROOT
BRANCH   3  16
HETATM   16  C   UNL     1     -10.847  11.655  66.797  1.00  0.00    -0.277 C  
BRANCH  16  17
HETATM   17  S   UNL     1      -9.789  12.961  66.036  1.00  0.00    -0.223 SA 
BRANCH  17  18
HETATM   18  C   UNL     1     -11.086  14.125  65.444  1.00  0.00    -0.321 C  
HETATM   19  F   UNL     1     -12.075  12.243  64.314  1.00  0.00    -0.413 F  
HETATM   20  C   UNL     1     -12.206  13.563  64.569  1.00  0.00    -0.398 C  
HETATM   21  F   UNL     1     -12.257  14.201  63.378  1.00  0.00    -0.423 F  
HETATM   22  F   UNL     1     -13.405  13.735  65.173  1.00  0.00    -0.337 F  
ENDBRANCH  17  18
ENDBRANCH  16  17
ENDBRANCH   3  16
BRANCH  13  23
HETATM   23  S   UNL     1      -8.316   5.035  71.125  1.00  0.00    -0.117 S  
HETATM   24  H2  UNL     1     -10.655   4.470  71.553  1.00  0.00     0.000 HD 
HETATM   25  H1  UNL     1      -9.292   3.353  72.061  1.00  0.00     0.000 HD 
HETATM   26  N   UNL     1      -9.676   4.198  71.640  1.00  0.00    -0.167 N  
HETATM   27  O   UNL     1      -7.684   4.240  70.104  1.00  0.00    -0.052 OA 
HETATM   28  O   UNL     1      -7.631   5.395  72.347  1.00  0.00    -0.094 OA 
ENDBRANCH  13  23
TORSDOF 4
ENDMDL
MODEL      143
REMARK 921   NORMALIZED FREE ENERGY PREDICTED BY IDOCK:   -3.79 KCAL/MOL
REMARK 922        TOTAL FREE ENERGY PREDICTED BY IDOCK:   -5.03 KCAL/MOL
REMARK 923 INTER-LIGAND FREE ENERGY PREDICTED BY IDOCK:   -5.31 KCAL/MOL
REMARK 924 INTRA-LIGAND FREE ENERGY PREDICTED BY IDOCK:    0.27 KCAL/MOL
REMARK 927      BINDING AFFINITY PREDICTED BY RF-SCORE:    0.00 PKD
ROOT
HETATM    1  C   UNL     1     -11.718  14.291  65.571  1.00  0.00    -0.353 C  
HETATM    2  N   UNL     1     -10.495  14.795  66.229  1.00  0.00    -0.287 N  
HETATM    3  C   UNL     1     -10.166  14.202  67.537  1.00  0.00    -0.241 C  
HETATM    4  N   UNL     1      -8.760  14.505  67.820  1.00  0.00    -0.166 NA 
HETATM    5 CL   UNL     1      -5.137  17.754  69.276  1.00  0.00    -0.170 Cl 
HETATM    6  C   UNL     1      -8.350  15.836  67.854  1.00  0.00    -0.149 A  
HETATM    7  C   UNL     1      -8.550  18.173  67.158  1.00  0.00    -0.250 A  
HETATM    8  H   UNL     1      -8.092  13.753  67.990  1.00  0.00     0.000 HD 
HETATM    9  C   UNL     1      -7.127  16.168  68.457  1.00  0.00    -0.139 A  
HETATM   10  O   UNL     1     -11.598  16.845  67.257  1.00  0.00     0.445 OA 
HETATM   11  O   UNL     1     -10.444  17.038  65.022  1.00  0.00    -0.660 OA 
HETATM   12  C   UNL     1      -6.631  17.485  68.452  1.00  0.00    -0.190 A  
HETATM   13  C   UNL     1      -7.352  18.491  67.805  1.00  0.00    -0.229 A  
HETATM   14  S   UNL     1     -10.520  16.491  66.360  1.00  0.00    -0.234 S  
HETATM   15  C   UNL     1      -9.020  16.857  67.188  1.00  0.00    -0.206 A  
ENDROOT
BRANCH   3  16
HETATM   16  C   UNL     1     -10.347  12.658  67.568  1.00  0.00    -0.218 C  
BRANCH  16  17
HETATM   17  S   UNL     1      -8.746  11.804  67.900  1.00  0.00    -0.172 SA 
BRANCH  17  18
HETATM   18  C   UNL     1      -8.373  11.149  66.221  1.00  0.00    -0.163 C  
HETATM   19  F   UNL     1     -10.669  10.430  66.133  1.00  0.00    -0.274 F  
HETATM   20  C   UNL     1      -9.507  10.479  65.446  1.00  0.00    -0.223 C  
HETATM   21  F   UNL     1      -9.183   9.210  65.110  1.00  0.00    -0.250 F  
HETATM   22  F   UNL     1      -9.752  11.152  64.297  1.00  0.00    -0.234 F  
ENDBRANCH  17  18
ENDBRANCH  16  17
ENDBRANCH   3  16
BRANCH  13  23
HETATM   23  S   UNL     1      -6.790  20.161  67.725  1.00  0.00    -0.286 S  
HETATM   24  H2  UNL     1      -6.201  19.823  70.073  1.00  0.00     0.000 HD 
HETATM   25  H1  UNL     1      -5.893  21.423  69.229  1.00  0.00     0.000 HD 
HETATM   26  N   UNL     1      -6.218  20.458  69.275  1.00  0.00    -0.323 N  
HETATM   27  O   UNL     1      -5.664  20.241  66.831  1.00  0.00    -0.169 OA 
HETATM   28  O   UNL     1      -7.936  21.031  67.591  1.00  0.00    -0.167 OA 
ENDBRANCH  13  23
TORSDOF 4
ENDMDL
MODEL      144
REMARK 921   NORMALIZED FREE ENERGY PREDICTED BY IDOCK:   -3.74 KCAL/MOL
REMARK 922        TOTAL FREE ENERGY PREDICTED BY IDOCK:   -4.98 KCAL/MOL
REMARK 923 INTER-LIGAND FREE ENERGY PREDICTED BY IDOCK:   -4.60 KCAL/MOL
REMARK 924 INTRA-LIGAND FREE ENERGY PREDICTED BY IDOCK:   -0.39 KCAL/MOL
REMARK 927      BINDING AFFINITY PREDICTED BY RF-SCORE:    0.00 PKD
ROOT
HETATM    1  C   UNL     1     -10.910   9.771  70.656  1.00  0.00    -0.329 C  
HETATM    2  N   UNL     1     -10.272   9.344  69.394  1.00  0.00    -0.198 N  
HETATM    3  C   UNL     1     -11.026   9.614  68.158  1.00  0.00    -0.132 C  
HETATM    4  N   UNL     1     -10.089   9.511  67.035  1.00  0.00    -0.217 NA 
HETATM    5 CL   UNL     1      -7.340   6.720  63.802  1.00  0.00    -0.072 Cl 
HETATM    6  C   UNL     1      -9.393   8.320  66.844  1.00  0.00    -0.176 A  
HETATM    7  C   UNL     1      -8.370   6.261  67.680  1.00  0.00    -0.117 A  
HETATM    8  H   UNL     1      -9.949  10.300  66.404  1.00  0.00     0.000 HD 
HETATM    9  C   UNL     1      -8.776   8.071  65.609  1.00  0.00    -0.156 A  
HETATM   10  O   UNL     1     -11.052   6.925  69.532  1.00  0.00    -0.252 OA 
HETATM   11  O   UNL     1      -8.783   7.558  70.435  1.00  0.00    -0.141 OA 
HETATM   12  C   UNL     1      -7.997   6.918  65.387  1.00  0.00    -0.125 A  
HETATM   13  C   UNL     1      -7.802   6.009  66.429  1.00  0.00    -0.104 A  
HETATM   14  S   UNL     1      -9.834   7.701  69.450  1.00  0.00    -0.175 S  
HETATM   15  C   UNL     1      -9.143   7.410  67.866  1.00  0.00    -0.129 A  
ENDROOT
BRANCH   3  16
HETATM   16  C   UNL     1     -11.665  11.031  68.131  1.00  0.00    -0.202 C  
BRANCH  16  17
HETATM   17  S   UNL     1     -10.457  12.298  67.547  1.00  0.00    -0.216 SA 
BRANCH  17  18
HETATM   18  C   UNL     1     -11.576  13.389  66.575  1.00  0.00    -0.357 C  
HETATM   19  F   UNL     1      -9.601  14.223  65.481  1.00  0.00    -0.302 F  
HETATM   20  C   UNL     1     -10.947  14.313  65.533  1.00  0.00    -0.319 C  
HETATM   21  F   UNL     1     -11.256  15.606  65.781  1.00  0.00    -0.308 F  
HETATM   22  F   UNL     1     -11.414  14.014  64.298  1.00  0.00    -0.377 F  
ENDBRANCH  17  18
ENDBRANCH  16  17
ENDBRANCH   3  16
BRANCH  13  23
HETATM   23  S   UNL     1      -6.818   4.556  66.247  1.00  0.00    -0.059 S  
HETATM   24  H2  UNL     1      -7.853   3.879  68.355  1.00  0.00     0.000 HD 
HETATM   25  H1  UNL     1      -6.635   2.807  67.499  1.00  0.00     0.000 HD 
HETATM   26  N   UNL     1      -7.204   3.647  67.604  1.00  0.00    -0.058 N  
HETATM   27  O   UNL     1      -7.267   3.819  65.095  1.00  0.00    -0.065 OA 
HETATM   28  O   UNL     1      -5.429   4.910  66.434  1.00  0.00    -0.012 OA 
ENDBRANCH  13  23
TORSDOF 4
ENDMDL
MODEL      145
REMARK 921   NORMALIZED FREE ENERGY PREDICTED BY IDOCK:   -3.74 KCAL/MOL
REMARK 922        TOTAL FREE ENERGY PREDICTED BY IDOCK:   -4.98 KCAL/MOL
REMARK 923 INTER-LIGAND FREE ENERGY PREDICTED BY IDOCK:   -4.71 KCAL/MOL
REMARK 924 INTRA-LIGAND FREE ENERGY PREDICTED BY IDOCK:   -0.27 KCAL/MOL
REMARK 927      BINDING AFFINITY PREDICTED BY RF-SCORE:    0.00 PKD
ROOT
HETATM    1  C   UNL     1      -6.442   8.354  70.013  1.00  0.00    -0.038 C  
HETATM    2  N   UNL     1      -7.523   9.312  69.701  1.00  0.00    -0.072 N  
HETATM    3  C   UNL     1      -8.790   8.733  69.222  1.00  0.00    -0.140 C  
HETATM    4  N   UNL     1      -9.828   9.758  69.365  1.00  0.00    -0.192 NA 
HETATM    5 CL   UNL     1     -12.096  14.016  67.778  1.00  0.00    -0.383 Cl 
HETATM    6  C   UNL     1      -9.662  10.982  68.721  1.00  0.00    -0.191 A  
HETATM    7  C   UNL     1      -8.259  12.758  67.794  1.00  0.00    -0.176 A  
HETATM    8  H   UNL     1     -10.659   9.577  69.927  1.00  0.00     0.000 HD 
HETATM    9  C   UNL     1     -10.768  11.828  68.548  1.00  0.00    -0.251 A  
HETATM   10  O   UNL     1      -6.697   9.854  67.355  1.00  0.00    -0.072 OA 
HETATM   11  O   UNL     1      -6.000  11.313  69.292  1.00  0.00    -0.046 OA 
HETATM   12  C   UNL     1     -10.642  13.106  67.973  1.00  0.00    -0.236 A  
HETATM   13  C   UNL     1      -9.380  13.567  67.589  1.00  0.00    -0.216 A  
HETATM   14  S   UNL     1      -6.991  10.507  68.613  1.00  0.00    -0.071 S  
HETATM   15  C   UNL     1      -8.419  11.491  68.361  1.00  0.00    -0.159 A  
ENDROOT
BRANCH   3  16
HETATM   16  C   UNL     1      -9.229   7.478  70.027  1.00  0.00    -0.151 C  
BRANCH  16  17
HETATM   17  S   UNL     1     -10.997   7.599  70.542  1.00  0.00    -0.249 SA 
BRANCH  17  18
HETATM   18  C   UNL     1     -11.265   5.896  71.184  1.00  0.00    -0.211 C  
HETATM   19  F   UNL     1      -9.954   6.548  73.094  1.00  0.00    -0.160 F  
HETATM   20  C   UNL     1     -10.657   5.538  72.540  1.00  0.00    -0.226 C  
HETATM   21  F   UNL     1      -9.825   4.477  72.433  1.00  0.00    -0.175 F  
HETATM   22  F   UNL     1     -11.632   5.203  73.417  1.00  0.00    -0.360 F  
ENDBRANCH  17  18
ENDBRANCH  16  17
ENDBRANCH   3  16
BRANCH  13  23
HETATM   23  S   UNL     1      -9.127  15.166  66.887  1.00  0.00    -0.264 S  
HETATM   24  H2  UNL     1     -10.246  14.222  64.930  1.00  0.00     0.000 HD 
HETATM   25  H1  UNL     1      -9.652  15.957  64.949  1.00  0.00     0.000 HD 
HETATM   26  N   UNL     1      -9.798  15.034  65.355  1.00  0.00    -0.324 N  
HETATM   27  O   UNL     1      -9.907  16.133  67.615  1.00  0.00    -0.232 OA 
HETATM   28  O   UNL     1      -7.713  15.349  66.647  1.00  0.00    -0.116 OA 
ENDBRANCH  13  23
TORSDOF 4
ENDMDL
MODEL      146
REMARK 921   NORMALIZED FREE ENERGY PREDICTED BY IDOCK:   -3.74 KCAL/MOL
REMARK 922        TOTAL FREE ENERGY PREDICTED BY IDOCK:   -4.98 KCAL/MOL
REMARK 923 INTER-LIGAND FREE ENERGY PREDICTED BY IDOCK:   -4.29 KCAL/MOL
REMARK 924 INTRA-LIGAND FREE ENERGY PREDICTED BY IDOCK:   -0.69 KCAL/MOL
REMARK 927      BINDING AFFINITY PREDICTED BY RF-SCORE:    0.00 PKD
ROOT
HETATM    1  C   UNL     1     -10.949  10.255  69.111  1.00  0.00    -0.238 C  
HETATM    2  N   UNL     1     -10.315   8.921  69.074  1.00  0.00    -0.210 N  
HETATM    3  C   UNL     1      -9.358   8.623  70.154  1.00  0.00    -0.164 C  
HETATM    4  N   UNL     1      -9.165   7.171  70.188  1.00  0.00    -0.155 NA 
HETATM    5 CL   UNL     1      -7.118   2.929  68.287  1.00  0.00    -0.049 Cl 
HETATM    6  C   UNL     1      -8.711   6.523  69.042  1.00  0.00    -0.128 A  
HETATM    7  C   UNL     1      -8.497   6.335  66.612  1.00  0.00    -0.114 A  
HETATM    8  H   UNL     1      -9.360   6.642  71.038  1.00  0.00     0.000 HD 
HETATM    9  C   UNL     1      -8.190   5.224  69.142  1.00  0.00    -0.092 A  
HETATM   10  O   UNL     1      -8.493   9.562  67.417  1.00  0.00    -0.124 OA 
HETATM   11  O   UNL     1     -10.639   8.537  66.577  1.00  0.00    -0.200 OA 
HETATM   12  C   UNL     1      -7.787   4.496  68.006  1.00  0.00    -0.081 A  
HETATM   13  C   UNL     1      -7.937   5.061  66.737  1.00  0.00    -0.104 A  
HETATM   14  S   UNL     1      -9.587   8.626  67.566  1.00  0.00    -0.165 S  
HETATM   15  C   UNL     1      -8.879   7.035  67.759  1.00  0.00    -0.123 A  
ENDROOT
BRANCH   3  16
HETATM   16  C   UNL     1      -9.856   9.082  71.553  1.00  0.00    -0.310 C  
BRANCH  16  17
HETATM   17  S   UNL     1      -9.213   7.979  72.886  1.00  0.00    -0.281 SA 
BRANCH  17  18
HETATM   18  C   UNL     1     -10.782   7.191  73.440  1.00  0.00    -0.368 C  
HETATM   19  F   UNL     1      -9.959   5.158  72.449  1.00  0.00    -0.184 F  
HETATM   20  C   UNL     1     -10.984   5.708  73.135  1.00  0.00    -0.285 C  
HETATM   21  F   UNL     1     -12.107   5.510  72.409  1.00  0.00    -0.311 F  
HETATM   22  F   UNL     1     -11.116   5.006  74.285  1.00  0.00    -0.311 F  
ENDBRANCH  17  18
ENDBRANCH  16  17
ENDBRANCH   3  16
BRANCH  13  23
HETATM   23  S   UNL     1      -7.487   4.208  65.260  1.00  0.00    -0.078 S  
HETATM   24  H2  UNL     1      -8.400   6.174  64.131  1.00  0.00     0.000 HD 
HETATM   25  H1  UNL     1      -7.698   4.766  63.186  1.00  0.00     0.000 HD 
HETATM   26  N   UNL     1      -7.958   5.259  64.040  1.00  0.00    -0.105 N  
HETATM   27  O   UNL     1      -6.053   4.092  65.197  1.00  0.00    -0.022 OA 
HETATM   28  O   UNL     1      -8.354   3.062  65.104  1.00  0.00    -0.093 OA 
ENDBRANCH  13  23
TORSDOF 4
ENDMDL
MODEL      147
REMARK 921   NORMALIZED FREE ENERGY PREDICTED BY IDOCK:   -3.73 KCAL/MOL
REMARK 922        TOTAL FREE ENERGY PREDICTED BY IDOCK:   -4.96 KCAL/MOL
REMARK 923 INTER-LIGAND FREE ENERGY PREDICTED BY IDOCK:   -4.41 KCAL/MOL
REMARK 924 INTRA-LIGAND FREE ENERGY PREDICTED BY IDOCK:   -0.55 KCAL/MOL
REMARK 927      BINDING AFFINITY PREDICTED BY RF-SCORE:    0.00 PKD
ROOT
HETATM    1  C   UNL     1      -7.014   4.612  71.593  1.00  0.00    -0.047 C  
HETATM    2  N   UNL     1      -7.501   5.866  70.983  1.00  0.00    -0.092 N  
HETATM    3  C   UNL     1      -8.671   6.491  71.623  1.00  0.00    -0.132 C  
HETATM    4  N   UNL     1      -8.741   7.880  71.159  1.00  0.00    -0.133 NA 
HETATM    5 CL   UNL     1      -9.868  11.303  67.579  1.00  0.00    -0.191 Cl 
HETATM    6  C   UNL     1      -8.832   8.132  69.792  1.00  0.00    -0.143 A  
HETATM    7  C   UNL     1      -8.408   7.539  67.457  1.00  0.00    -0.117 A  
HETATM    8  H   UNL     1      -8.723   8.650  71.827  1.00  0.00     0.000 HD 
HETATM    9  C   UNL     1      -9.249   9.396  69.348  1.00  0.00    -0.167 A  
HETATM   10  O   UNL     1      -8.893   4.734  69.177  1.00  0.00    -0.089 OA 
HETATM   11  O   UNL     1      -6.524   5.438  68.670  1.00  0.00    -0.036 OA 
HETATM   12  C   UNL     1      -9.287   9.727  67.980  1.00  0.00    -0.128 A  
HETATM   13  C   UNL     1      -8.870   8.788  67.033  1.00  0.00    -0.127 A  
HETATM   14  S   UNL     1      -7.796   5.667  69.320  1.00  0.00    -0.089 S  
HETATM   15  C   UNL     1      -8.390   7.239  68.822  1.00  0.00    -0.129 A  
ENDROOT
BRANCH   3  16
HETATM   16  C   UNL     1      -8.585   6.500  73.175  1.00  0.00    -0.121 C  
BRANCH  16  17
HETATM   17  S   UNL     1     -10.217   6.904  73.934  1.00  0.00    -0.345 SA 
BRANCH  17  18
HETATM   18  C   UNL     1     -11.348   6.170  72.680  1.00  0.00    -0.259 C  
HETATM   19  F   UNL     1     -11.854   8.425  72.007  1.00  0.00    -0.314 F  
HETATM   20  C   UNL     1     -12.104   7.123  71.754  1.00  0.00    -0.328 C  
HETATM   21  F   UNL     1     -13.440   6.940  71.857  1.00  0.00    -0.388 F  
HETATM   22  F   UNL     1     -11.761   6.894  70.465  1.00  0.00    -0.334 F  
ENDBRANCH  17  18
ENDBRANCH  16  17
ENDBRANCH   3  16
BRANCH  13  23
HETATM   23  S   UNL     1      -8.857   9.129  65.302  1.00  0.00    -0.193 S  
HETATM   24  H2  UNL     1      -7.006  10.628  65.854  1.00  0.00     0.000 HD 
HETATM   25  H1  UNL     1      -7.604  10.438  64.130  1.00  0.00     0.000 HD 
HETATM   26  N   UNL     1      -7.612  10.241  65.130  1.00  0.00    -0.142 N  
HETATM   27  O   UNL     1      -8.473   7.940  64.587  1.00  0.00    -0.085 OA 
HETATM   28  O   UNL     1     -10.051   9.871  64.967  1.00  0.00    -0.286 OA 
ENDBRANCH  13  23
TORSDOF 4
ENDMDL
MODEL      148
REMARK 921   NORMALIZED FREE ENERGY PREDICTED BY IDOCK:   -3.72 KCAL/MOL
REMARK 922        TOTAL FREE ENERGY PREDICTED BY IDOCK:   -4.96 KCAL/MOL
REMARK 923 INTER-LIGAND FREE ENERGY PREDICTED BY IDOCK:   -4.71 KCAL/MOL
REMARK 924 INTRA-LIGAND FREE ENERGY PREDICTED BY IDOCK:   -0.25 KCAL/MOL
REMARK 927      BINDING AFFINITY PREDICTED BY RF-SCORE:    0.00 PKD
ROOT
HETATM    1  C   UNL     1     -12.502  13.908  69.916  1.00  0.00    -0.229 C  
HETATM    2  N   UNL     1     -11.301  13.095  69.631  1.00  0.00    -0.169 N  
HETATM    3  C   UNL     1     -10.581  13.409  68.384  1.00  0.00    -0.248 C  
HETATM    4  N   UNL     1      -9.245  12.815  68.483  1.00  0.00    -0.377 NA 
HETATM    5 CL   UNL     1      -6.169   8.777  68.306  1.00  0.00    -0.054 Cl 
HETATM    6  C   UNL     1      -9.129  11.443  68.694  1.00  0.00    -0.135 A  
HETATM    7  C   UNL     1      -9.966   9.317  69.571  1.00  0.00    -0.194 A  
HETATM    8  H   UNL     1      -8.412  13.397  68.398  1.00  0.00     0.000 HD 
HETATM    9  C   UNL     1      -7.905  10.805  68.443  1.00  0.00    -0.120 A  
HETATM   10  O   UNL     1     -12.569  11.145  68.596  1.00  0.00    -0.318 OA 
HETATM   11  O   UNL     1     -11.988  11.094  71.051  1.00  0.00    -0.293 OA 
HETATM   12  C   UNL     1      -7.712   9.436  68.711  1.00  0.00    -0.080 A  
HETATM   13  C   UNL     1      -8.753   8.691  69.271  1.00  0.00    -0.133 A  
HETATM   14  S   UNL     1     -11.658  11.432  69.683  1.00  0.00    -0.349 S  
HETATM   15  C   UNL     1     -10.128  10.676  69.286  1.00  0.00    -0.206 A  
ENDROOT
BRANCH   3  16
HETATM   16  C   UNL     1     -10.419  14.936  68.142  1.00  0.00    -0.242 C  
BRANCH  16  17
HETATM   17  S   UNL     1      -9.541  15.746  69.548  1.00  0.00    -0.220 SA 
BRANCH  17  18
HETATM   18  C   UNL     1      -8.177  16.583  68.639  1.00  0.00    -0.234 C  
HETATM   19  F   UNL     1      -6.658  15.307  70.003  1.00  0.00    -0.156 F  
HETATM   20  C   UNL     1      -6.740  16.213  69.005  1.00  0.00    -0.170 C  
HETATM   21  F   UNL     1      -6.042  17.304  69.391  1.00  0.00    -0.183 F  
HETATM   22  F   UNL     1      -6.105  15.684  67.933  1.00  0.00    -0.106 F  
ENDBRANCH  17  18
ENDBRANCH  16  17
ENDBRANCH   3  16
BRANCH  13  23
HETATM   23  S   UNL     1      -8.588   6.980  69.665  1.00  0.00    -0.134 S  
HETATM   24  H2  UNL     1      -8.330   6.693  67.251  1.00  0.00     0.000 HD 
HETATM   25  H1  UNL     1      -8.268   5.262  68.398  1.00  0.00     0.000 HD 
HETATM   26  N   UNL     1      -8.364   6.252  68.170  1.00  0.00    -0.115 N  
HETATM   27  O   UNL     1      -7.381   6.781  70.424  1.00  0.00    -0.077 OA 
HETATM   28  O   UNL     1      -9.867   6.483  70.119  1.00  0.00    -0.166 OA 
ENDBRANCH  13  23
TORSDOF 4
ENDMDL
MODEL      149
REMARK 921   NORMALIZED FREE ENERGY PREDICTED BY IDOCK:   -3.70 KCAL/MOL
REMARK 922        TOTAL FREE ENERGY PREDICTED BY IDOCK:   -4.93 KCAL/MOL
REMARK 923 INTER-LIGAND FREE ENERGY PREDICTED BY IDOCK:   -4.30 KCAL/MOL
REMARK 924 INTRA-LIGAND FREE ENERGY PREDICTED BY IDOCK:   -0.63 KCAL/MOL
REMARK 927      BINDING AFFINITY PREDICTED BY RF-SCORE:    0.00 PKD
ROOT
HETATM    1  C   UNL     1      -8.651   2.672  65.922  1.00  0.00    -0.114 C  
HETATM    2  N   UNL     1      -9.170   3.996  66.325  1.00  0.00    -0.147 N  
HETATM    3  C   UNL     1      -8.670   5.152  65.561  1.00  0.00    -0.147 C  
HETATM    4  N   UNL     1      -9.577   6.275  65.813  1.00  0.00    -0.375 NA 
HETATM    5 CL   UNL     1     -11.283  10.003  68.813  1.00  0.00    -0.215 Cl 
HETATM    6  C   UNL     1      -9.778   6.700  67.125  1.00  0.00    -0.142 A  
HETATM    7  C   UNL     1      -9.871   6.289  69.535  1.00  0.00    -0.183 A  
HETATM    8  H   UNL     1     -10.054   6.739  65.040  1.00  0.00     0.000 HD 
HETATM    9  C   UNL     1     -10.343   7.962  67.364  1.00  0.00    -0.349 A  
HETATM   10  O   UNL     1      -7.516   4.335  68.229  1.00  0.00    -0.063 OA 
HETATM   11  O   UNL     1      -9.781   3.332  68.707  1.00  0.00    -0.104 OA 
HETATM   12  C   UNL     1     -10.636   8.409  68.667  1.00  0.00    -0.113 A  
HETATM   13  C   UNL     1     -10.391   7.568  69.755  1.00  0.00    -0.221 A  
HETATM   14  S   UNL     1      -8.941   4.266  67.988  1.00  0.00    -0.130 S  
HETATM   15  C   UNL     1      -9.584   5.878  68.230  1.00  0.00    -0.121 A  
ENDROOT
BRANCH   3  16
HETATM   16  C   UNL     1      -8.626   4.897  64.028  1.00  0.00    -0.133 C  
BRANCH  16  17
HETATM   17  S   UNL     1      -7.152   5.697  63.259  1.00  0.00    -0.048 SA 
BRANCH  17  18
HETATM   18  C   UNL     1      -7.872   7.326  62.796  1.00  0.00    -0.131 C  
HETATM   19  F   UNL     1      -7.067   8.140  64.913  1.00  0.00    -0.071 F  
HETATM   20  C   UNL     1      -7.714   8.485  63.779  1.00  0.00    -0.142 C  
HETATM   21  F   UNL     1      -8.918   8.985  64.138  1.00  0.00    -0.212 F  
HETATM   22  F   UNL     1      -7.011   9.491  63.210  1.00  0.00    -0.097 F  
ENDBRANCH  17  18
ENDBRANCH  16  17
ENDBRANCH   3  16
BRANCH  13  23
HETATM   23  S   UNL     1     -10.755   8.035  71.416  1.00  0.00    -0.235 S  
HETATM   24  H2  UNL     1     -13.082   7.969  70.672  1.00  0.00     0.000 HD 
HETATM   25  H1  UNL     1     -12.641   8.408  72.398  1.00  0.00     0.000 HD 
HETATM   26  N   UNL     1     -12.430   8.137  71.438  1.00  0.00    -0.306 N  
HETATM   27  O   UNL     1     -10.379   6.966  72.304  1.00  0.00    -0.193 OA 
HETATM   28  O   UNL     1     -10.309   9.395  71.624  1.00  0.00    -0.309 OA 
ENDBRANCH  13  23
TORSDOF 4
ENDMDL
MODEL      150
REMARK 921   NORMALIZED FREE ENERGY PREDICTED BY IDOCK:   -3.62 KCAL/MOL
REMARK 922        TOTAL FREE ENERGY PREDICTED BY IDOCK:   -4.82 KCAL/MOL
REMARK 923 INTER-LIGAND FREE ENERGY PREDICTED BY IDOCK:   -4.56 KCAL/MOL
REMARK 924 INTRA-LIGAND FREE ENERGY PREDICTED BY IDOCK:   -0.26 KCAL/MOL
REMARK 927      BINDING AFFINITY PREDICTED BY RF-SCORE:    0.00 PKD
ROOT
HETATM    1  C   UNL     1     -10.373  11.411  63.668  1.00  0.00    -0.410 C  
HETATM    2  N   UNL     1     -10.302  11.086  65.108  1.00  0.00    -0.281 N  
HETATM    3  C   UNL     1     -10.632  12.178  66.040  1.00  0.00    -0.257 C  
HETATM    4  N   UNL     1     -10.907  11.577  67.347  1.00  0.00    -0.232 NA 
HETATM    5 CL   UNL     1      -9.300   9.445  71.669  1.00  0.00     0.058 Cl 
HETATM    6  C   UNL     1      -9.924  10.798  67.953  1.00  0.00    -0.174 A  
HETATM    7  C   UNL     1      -7.988   9.306  67.852  1.00  0.00    -0.100 A  
HETATM    8  H   UNL     1     -11.805  11.727  67.807  1.00  0.00     0.000 HD 
HETATM    9  C   UNL     1     -10.016  10.511  69.323  1.00  0.00    -0.233 A  
HETATM   10  O   UNL     1      -7.792  11.450  65.316  1.00  0.00     0.386 OA 
HETATM   11  O   UNL     1      -8.684   9.134  64.864  1.00  0.00    -0.175 OA 
HETATM   12  C   UNL     1      -9.091   9.668  69.969  1.00  0.00    -0.237 A  
HETATM   13  C   UNL     1      -8.070   9.070  69.227  1.00  0.00    -0.105 A  
HETATM   14  S   UNL     1      -8.791  10.422  65.515  1.00  0.00    -0.184 S  
HETATM   15  C   UNL     1      -8.916  10.155  67.242  1.00  0.00    -0.135 A  
ENDROOT
BRANCH   3  16
HETATM   16  C   UNL     1     -11.882  12.994  65.605  1.00  0.00    -0.399 C  
BRANCH  16  17
HETATM   17  S   UNL     1     -11.407  14.657  64.964  1.00  0.00    -0.408 SA 
BRANCH  17  18
HETATM   18  C   UNL     1     -10.150  15.141  66.219  1.00  0.00    -0.283 C  
HETATM   19  F   UNL     1     -10.666  17.426  65.665  1.00  0.00    -0.377 F  
HETATM   20  C   UNL     1      -9.913  16.632  66.457  1.00  0.00    -0.285 C  
HETATM   21  F   UNL     1      -8.618  16.957  66.242  1.00  0.00    -0.260 F  
HETATM   22  F   UNL     1     -10.205  16.954  67.738  1.00  0.00    -0.266 F  
ENDBRANCH  17  18
ENDBRANCH  16  17
ENDBRANCH   3  16
BRANCH  13  23
HETATM   23  S   UNL     1      -6.887   7.978  69.948  1.00  0.00    -0.041 S  
HETATM   24  H2  UNL     1      -8.849   6.694  70.638  1.00  0.00     0.000 HD 
HETATM   25  H1  UNL     1      -7.149   6.143  71.054  1.00  0.00     0.000 HD 
HETATM   26  N   UNL     1      -7.833   6.775  70.637  1.00  0.00    -0.103 N  
HETATM   27  O   UNL     1      -6.107   7.366  68.905  1.00  0.00    -0.029 OA 
HETATM   28  O   UNL     1      -6.271   8.641  71.076  1.00  0.00    -0.035 OA 
ENDBRANCH  13  23
TORSDOF 4
ENDMDL
MODEL      151
REMARK 921   NORMALIZED FREE ENERGY PREDICTED BY IDOCK:   -3.60 KCAL/MOL
REMARK 922        TOTAL FREE ENERGY PREDICTED BY IDOCK:   -4.81 KCAL/MOL
REMARK 923 INTER-LIGAND FREE ENERGY PREDICTED BY IDOCK:   -4.67 KCAL/MOL
REMARK 924 INTRA-LIGAND FREE ENERGY PREDICTED BY IDOCK:   -0.14 KCAL/MOL
REMARK 927      BINDING AFFINITY PREDICTED BY RF-SCORE:    0.00 PKD
ROOT
HETATM    1  C   UNL     1      -5.584  10.516  69.230  1.00  0.00    -0.037 C  
HETATM    2  N   UNL     1      -6.811  10.716  68.431  1.00  0.00    -0.063 N  
HETATM    3  C   UNL     1      -7.024   9.776  67.317  1.00  0.00    -0.084 C  
HETATM    4  N   UNL     1      -8.435   9.863  66.928  1.00  0.00    -0.124 NA 
HETATM    5 CL   UNL     1     -12.241  12.271  64.578  1.00  0.00    -0.480 Cl 
HETATM    6  C   UNL     1      -8.953  11.095  66.536  1.00  0.00    -0.178 A  
HETATM    7  C   UNL     1      -8.984  13.541  66.600  1.00  0.00    -0.133 A  
HETATM    8  H   UNL     1      -9.028   9.034  66.943  1.00  0.00     0.000 HD 
HETATM    9  C   UNL     1     -10.168  11.144  65.836  1.00  0.00    -0.303 A  
HETATM   10  O   UNL     1      -5.834  12.525  66.931  1.00  0.00    -0.304 OA 
HETATM   11  O   UNL     1      -7.109  13.180  69.007  1.00  0.00    -0.095 OA 
HETATM   12  C   UNL     1     -10.773  12.365  65.482  1.00  0.00    -0.280 A  
HETATM   13  C   UNL     1     -10.171  13.567  65.862  1.00  0.00    -0.301 A  
HETATM   14  S   UNL     1      -6.922  12.315  67.862  1.00  0.00    -0.118 S  
HETATM   15  C   UNL     1      -8.405  12.312  66.929  1.00  0.00    -0.137 A  
ENDROOT
BRANCH   3  16
HETATM   16  C   UNL     1      -6.713   8.301  67.696  1.00  0.00    -0.062 C  
BRANCH  16  17
HETATM   17  S   UNL     1      -8.124   7.532  68.602  1.00  0.00    -0.125 SA 
BRANCH  17  18
HETATM   18  C   UNL     1      -7.440   7.512  70.310  1.00  0.00    -0.085 C  
HETATM   19  F   UNL     1      -8.840   9.419  70.754  1.00  0.00    -0.230 F  
HETATM   20  C   UNL     1      -7.946   8.565  71.296  1.00  0.00    -0.132 C  
HETATM   21  F   UNL     1      -6.924   9.304  71.782  1.00  0.00    -0.060 F  
HETATM   22  F   UNL     1      -8.552   7.969  72.349  1.00  0.00    -0.142 F  
ENDBRANCH  17  18
ENDBRANCH  16  17
ENDBRANCH   3  16
BRANCH  13  23
HETATM   23  S   UNL     1     -10.874  15.141  65.487  1.00  0.00    -0.386 S  
HETATM   24  H2  UNL     1     -11.736  15.034  67.772  1.00  0.00     0.000 HD 
HETATM   25  H1  UNL     1     -12.080  16.471  66.685  1.00  0.00     0.000 HD 
HETATM   26  N   UNL     1     -11.673  15.562  66.902  1.00  0.00     0.093 N  
HETATM   27  O   UNL     1      -9.818  16.099  65.289  1.00  0.00    -0.452 OA 
HETATM   28  O   UNL     1     -11.932  14.957  64.518  1.00  0.00    -0.447 OA 
ENDBRANCH  13  23
TORSDOF 4
ENDMDL
MODEL      152
REMARK 921   NORMALIZED FREE ENERGY PREDICTED BY IDOCK:   -3.54 KCAL/MOL
REMARK 922        TOTAL FREE ENERGY PREDICTED BY IDOCK:   -4.73 KCAL/MOL
REMARK 923 INTER-LIGAND FREE ENERGY PREDICTED BY IDOCK:   -5.08 KCAL/MOL
REMARK 924 INTRA-LIGAND FREE ENERGY PREDICTED BY IDOCK:    0.35 KCAL/MOL
REMARK 927      BINDING AFFINITY PREDICTED BY RF-SCORE:    0.00 PKD
ROOT
HETATM    1  C   UNL     1      -8.253  12.357  68.436  1.00  0.00    -0.144 C  
HETATM    2  N   UNL     1      -8.580  13.732  68.004  1.00  0.00    -0.167 N  
HETATM    3  C   UNL     1      -9.348  13.858  66.753  1.00  0.00    -0.275 C  
HETATM    4  N   UNL     1      -9.915  15.208  66.716  1.00  0.00    -0.235 NA 
HETATM    5 CL   UNL     1      -9.409  20.208  65.975  1.00  0.00    -0.382 Cl 
HETATM    6  C   UNL     1      -9.059  16.304  66.789  1.00  0.00    -0.232 A  
HETATM    7  C   UNL     1      -6.978  17.371  67.509  1.00  0.00    -0.177 A  
HETATM    8  H   UNL     1     -10.924  15.344  66.637  1.00  0.00     0.000 HD 
HETATM    9  C   UNL     1      -9.523  17.572  66.407  1.00  0.00    -0.276 A  
HETATM   10  O   UNL     1      -6.346  14.168  66.867  1.00  0.00     0.245 OA 
HETATM   11  O   UNL     1      -6.682  14.869  69.267  1.00  0.00    -0.119 OA 
HETATM   12  C   UNL     1      -8.723  18.724  66.532  1.00  0.00    -0.312 A  
HETATM   13  C   UNL     1      -7.443  18.617  67.079  1.00  0.00    -0.220 A  
HETATM   14  S   UNL     1      -7.184  14.699  67.921  1.00  0.00    -0.177 S  
HETATM   15  C   UNL     1      -7.794  16.245  67.364  1.00  0.00    -0.159 A  
ENDROOT
BRANCH   3  16
HETATM   16  C   UNL     1     -10.514  12.835  66.648  1.00  0.00    -0.257 C  
BRANCH  16  17
HETATM   17  S   UNL     1     -11.317  12.567  68.286  1.00  0.00    -0.312 SA 
BRANCH  17  18
HETATM   18  C   UNL     1     -12.259  14.140  68.448  1.00  0.00    -0.164 C  
HETATM   19  F   UNL     1     -11.255  14.366  70.624  1.00  0.00    -0.251 F  
HETATM   20  C   UNL     1     -12.086  14.949  69.733  1.00  0.00    -0.314 C  
HETATM   21  F   UNL     1     -13.273  15.138  70.351  1.00  0.00    -0.364 F  
HETATM   22  F   UNL     1     -11.575  16.171  69.453  1.00  0.00    -0.314 F  
ENDBRANCH  17  18
ENDBRANCH  16  17
ENDBRANCH   3  16
BRANCH  13  23
HETATM   23  S   UNL     1      -6.386  20.012  67.300  1.00  0.00    -0.201 S  
HETATM   24  H2  UNL     1      -8.292  20.967  68.495  1.00  0.00     0.000 HD 
HETATM   25  H1  UNL     1      -6.723  21.896  68.297  1.00  0.00     0.000 HD 
HETATM   26  N   UNL     1      -7.333  21.089  68.170  1.00  0.00     0.105 N  
HETATM   27  O   UNL     1      -5.277  19.640  68.139  1.00  0.00    -0.177 OA 
HETATM   28  O   UNL     1      -6.194  20.655  66.019  1.00  0.00    -0.205 OA 
ENDBRANCH  13  23
TORSDOF 4
ENDMDL
MODEL      153
REMARK 921   NORMALIZED FREE ENERGY PREDICTED BY IDOCK:   -3.50 KCAL/MOL
REMARK 922        TOTAL FREE ENERGY PREDICTED BY IDOCK:   -4.68 KCAL/MOL
REMARK 923 INTER-LIGAND FREE ENERGY PREDICTED BY IDOCK:   -4.34 KCAL/MOL
REMARK 924 INTRA-LIGAND FREE ENERGY PREDICTED BY IDOCK:   -0.33 KCAL/MOL
REMARK 927      BINDING AFFINITY PREDICTED BY RF-SCORE:    0.00 PKD
ROOT
HETATM    1  C   UNL     1      -5.743   7.008  69.558  1.00  0.00    -0.015 C  
HETATM    2  N   UNL     1      -7.047   7.593  69.935  1.00  0.00    -0.062 N  
HETATM    3  C   UNL     1      -8.171   6.651  70.067  1.00  0.00    -0.130 C  
HETATM    4  N   UNL     1      -9.228   7.326  70.825  1.00  0.00    -0.156 NA 
HETATM    5 CL   UNL     1     -13.040  10.673  71.092  1.00  0.00    -0.451 Cl 
HETATM    6  C   UNL     1      -9.747   8.525  70.341  1.00  0.00    -0.175 A  
HETATM    7  C   UNL     1      -9.541  10.609  69.076  1.00  0.00    -0.207 A  
HETATM    8  H   UNL     1      -9.579   6.924  71.694  1.00  0.00     0.000 HD 
HETATM    9  C   UNL     1     -10.970   9.000  70.837  1.00  0.00    -0.332 A  
HETATM   10  O   UNL     1      -7.695   8.286  67.573  1.00  0.00    -0.096 OA 
HETATM   11  O   UNL     1      -6.542   9.942  69.088  1.00  0.00    -0.051 OA 
HETATM   12  C   UNL     1     -11.502  10.241  70.437  1.00  0.00    -0.335 A  
HETATM   13  C   UNL     1     -10.784  11.043  69.547  1.00  0.00    -0.183 A  
HETATM   14  S   UNL     1      -7.480   8.859  68.885  1.00  0.00    -0.083 S  
HETATM   15  C   UNL     1      -9.045   9.369  69.486  1.00  0.00    -0.165 A  
ENDROOT
BRANCH   3  16
HETATM   16  C   UNL     1      -7.788   5.347  70.821  1.00  0.00    -0.095 C  
BRANCH  16  17
HETATM   17  S   UNL     1      -9.193   4.152  70.848  1.00  0.00    -0.146 SA 
BRANCH  17  18
HETATM   18  C   UNL     1      -9.234   3.659  69.075  1.00  0.00    -0.159 C  
HETATM   19  F   UNL     1      -7.205   2.436  69.502  1.00  0.00    -0.042 F  
HETATM   20  C   UNL     1      -8.121   2.748  68.560  1.00  0.00    -0.060 C  
HETATM   21  F   UNL     1      -7.460   3.324  67.530  1.00  0.00    -0.059 F  
HETATM   22  F   UNL     1      -8.640   1.582  68.108  1.00  0.00    -0.066 F  
ENDBRANCH  17  18
ENDBRANCH  16  17
ENDBRANCH   3  16
BRANCH  13  23
HETATM   23  S   UNL     1     -11.361  12.623  69.017  1.00  0.00    -0.294 S  
HETATM   24  H2  UNL     1      -8.995  13.086  68.611  1.00  0.00     0.000 HD 
HETATM   25  H1  UNL     1     -10.289  14.342  68.273  1.00  0.00     0.000 HD 
HETATM   26  N   UNL     1      -9.955  13.429  68.579  1.00  0.00    -0.223 N  
HETATM   27  O   UNL     1     -12.154  12.465  67.825  1.00  0.00    -0.447 OA 
HETATM   28  O   UNL     1     -11.848  13.349  70.168  1.00  0.00    -0.311 OA 
ENDBRANCH  13  23
TORSDOF 4
ENDMDL
MODEL      154
REMARK 921   NORMALIZED FREE ENERGY PREDICTED BY IDOCK:   -3.41 KCAL/MOL
REMARK 922        TOTAL FREE ENERGY PREDICTED BY IDOCK:   -4.58 KCAL/MOL
REMARK 923 INTER-LIGAND FREE ENERGY PREDICTED BY IDOCK:   -4.77 KCAL/MOL
REMARK 924 INTRA-LIGAND FREE ENERGY PREDICTED BY IDOCK:    0.19 KCAL/MOL
REMARK 927      BINDING AFFINITY PREDICTED BY RF-SCORE:    0.00 PKD
ROOT
HETATM    1  C   UNL     1     -12.097   9.507  72.409  1.00  0.00     0.179 C  
HETATM    2  N   UNL     1     -11.206   8.942  71.374  1.00  0.00    -0.286 N  
HETATM    3  C   UNL     1     -11.252   9.586  70.050  1.00  0.00    -0.209 C  
HETATM    4  N   UNL     1     -10.049   9.181  69.318  1.00  0.00    -0.187 NA 
HETATM    5 CL   UNL     1      -7.429   5.731  66.666  1.00  0.00    -0.083 Cl 
HETATM    6  C   UNL     1      -9.808   7.825  69.111  1.00  0.00    -0.173 A  
HETATM    7  C   UNL     1     -10.013   5.475  69.759  1.00  0.00    -0.279 A  
HETATM    8  H   UNL     1      -9.397   9.882  68.966  1.00  0.00     0.000 HD 
HETATM    9  C   UNL     1      -8.882   7.428  68.135  1.00  0.00    -0.127 A  
HETATM   10  O   UNL     1     -12.782   7.063  70.694  1.00  0.00    -0.221 OA 
HETATM   11  O   UNL     1     -11.001   6.631  72.428  1.00  0.00    -0.226 OA 
HETATM   12  C   UNL     1      -8.546   6.075  67.937  1.00  0.00    -0.113 A  
HETATM   13  C   UNL     1      -9.122   5.096  68.750  1.00  0.00    -0.114 A  
HETATM   14  S   UNL     1     -11.443   7.266  71.205  1.00  0.00    -0.295 S  
HETATM   15  C   UNL     1     -10.331   6.825  69.925  1.00  0.00    -0.203 A  
ENDROOT
BRANCH   3  16
HETATM   16  C   UNL     1     -11.275  11.139  70.129  1.00  0.00    -0.128 C  
BRANCH  16  17
HETATM   17  S   UNL     1     -12.994  11.771  70.347  1.00  0.00     0.453 SA 
BRANCH  17  18
HETATM   18  C   UNL     1     -12.640  13.464  70.976  1.00  0.00    -0.343 C  
HETATM   19  F   UNL     1     -14.411  13.103  72.567  1.00  0.00    -0.567 F  
HETATM   20  C   UNL     1     -13.472  13.979  72.150  1.00  0.00    -0.475 C  
HETATM   21  F   UNL     1     -14.108  15.128  71.826  1.00  0.00    -0.430 F  
HETATM   22  F   UNL     1     -12.674  14.243  73.211  1.00  0.00    -0.512 F  
ENDBRANCH  17  18
ENDBRANCH  16  17
ENDBRANCH   3  16
BRANCH  13  23
HETATM   23  S   UNL     1      -8.737   3.382  68.590  1.00  0.00    -0.112 S  
HETATM   24  H2  UNL     1      -9.792   3.594  66.396  1.00  0.00     0.000 HD 
HETATM   25  H1  UNL     1      -9.101   1.997  66.976  1.00  0.00     0.000 HD 
HETATM   26  N   UNL     1      -9.323   2.988  67.069  1.00  0.00    -0.164 N  
HETATM   27  O   UNL     1      -7.306   3.219  68.554  1.00  0.00    -0.050 OA 
HETATM   28  O   UNL     1      -9.569   2.632  69.503  1.00  0.00    -0.104 OA 
ENDBRANCH  13  23
TORSDOF 4
ENDMDL
MODEL      155
REMARK 921   NORMALIZED FREE ENERGY PREDICTED BY IDOCK:   -3.38 KCAL/MOL
REMARK 922        TOTAL FREE ENERGY PREDICTED BY IDOCK:   -4.54 KCAL/MOL
REMARK 923 INTER-LIGAND FREE ENERGY PREDICTED BY IDOCK:   -4.08 KCAL/MOL
REMARK 924 INTRA-LIGAND FREE ENERGY PREDICTED BY IDOCK:   -0.46 KCAL/MOL
REMARK 927      BINDING AFFINITY PREDICTED BY RF-SCORE:    0.00 PKD
ROOT
HETATM    1  C   UNL     1      -7.096   4.752  71.566  1.00  0.00    -0.056 C  
HETATM    2  N   UNL     1      -7.786   6.020  71.251  1.00  0.00    -0.107 N  
HETATM    3  C   UNL     1      -8.927   6.374  72.113  1.00  0.00    -0.136 C  
HETATM    4  N   UNL     1      -9.200   7.801  71.923  1.00  0.00    -0.136 NA 
HETATM    5 CL   UNL     1     -11.119  11.616  69.173  1.00  0.00    -0.288 Cl 
HETATM    6  C   UNL     1      -9.487   8.270  70.643  1.00  0.00    -0.164 A  
HETATM    7  C   UNL     1      -9.294   8.145  68.208  1.00  0.00    -0.137 A  
HETATM    8  H   UNL     1      -9.181   8.441  72.717  1.00  0.00     0.000 HD 
HETATM    9  C   UNL     1     -10.087   9.528  70.486  1.00  0.00    -0.347 A  
HETATM   10  O   UNL     1      -9.262   5.048  69.420  1.00  0.00    -0.099 OA 
HETATM   11  O   UNL     1      -7.062   6.122  68.811  1.00  0.00    -0.076 OA 
HETATM   12  C   UNL     1     -10.328  10.082  69.214  1.00  0.00    -0.219 A  
HETATM   13  C   UNL     1      -9.935   9.380  68.072  1.00  0.00    -0.176 A  
HETATM   14  S   UNL     1      -8.261   6.074  69.619  1.00  0.00    -0.116 S  
HETATM   15  C   UNL     1      -9.075   7.620  69.484  1.00  0.00    -0.146 A  
ENDROOT
BRANCH   3  16
HETATM   16  C   UNL     1      -8.650   6.127  73.623  1.00  0.00    -0.124 C  
BRANCH  16  17
HETATM   17  S   UNL     1     -10.165   5.531  74.491  1.00  0.00    -0.246 SA 
BRANCH  17  18
HETATM   18  C   UNL     1     -10.927   4.517  73.157  1.00  0.00    -0.264 C  
HETATM   19  F   UNL     1      -9.786   2.628  74.119  1.00  0.00    -0.103 F  
HETATM   20  C   UNL     1     -10.625   3.019  73.136  1.00  0.00    -0.167 C  
HETATM   21  F   UNL     1     -10.067   2.654  71.959  1.00  0.00    -0.219 F  
HETATM   22  F   UNL     1     -11.767   2.308  73.282  1.00  0.00    -0.275 F  
ENDBRANCH  17  18
ENDBRANCH  16  17
ENDBRANCH   3  16
BRANCH  13  23
HETATM   23  S   UNL     1     -10.172  10.011  66.442  1.00  0.00    -0.194 S  
HETATM   24  H2  UNL     1      -8.591  11.740  67.139  1.00  0.00     0.000 HD 
HETATM   25  H1  UNL     1      -9.323  11.734  65.457  1.00  0.00     0.000 HD 
HETATM   26  N   UNL     1      -9.186  11.369  66.399  1.00  0.00    -0.192 N  
HETATM   27  O   UNL     1      -9.649   9.070  65.486  1.00  0.00    -0.224 OA 
HETATM   28  O   UNL     1     -11.515  10.538  66.339  1.00  0.00     0.131 OA 
ENDBRANCH  13  23
TORSDOF 4
ENDMDL
MODEL      156
REMARK 921   NORMALIZED FREE ENERGY PREDICTED BY IDOCK:   -3.32 KCAL/MOL
REMARK 922        TOTAL FREE ENERGY PREDICTED BY IDOCK:   -4.46 KCAL/MOL
REMARK 923 INTER-LIGAND FREE ENERGY PREDICTED BY IDOCK:   -4.28 KCAL/MOL
REMARK 924 INTRA-LIGAND FREE ENERGY PREDICTED BY IDOCK:   -0.18 KCAL/MOL
REMARK 927      BINDING AFFINITY PREDICTED BY RF-SCORE:    0.00 PKD
ROOT
HETATM    1  C   UNL     1      -7.915   5.751  70.171  1.00  0.00    -0.100 C  
HETATM    2  N   UNL     1      -8.303   6.891  69.315  1.00  0.00    -0.128 N  
HETATM    3  C   UNL     1      -9.632   7.474  69.568  1.00  0.00    -0.156 C  
HETATM    4  N   UNL     1      -9.662   8.798  68.941  1.00  0.00    -0.169 NA 
HETATM    5 CL   UNL     1     -10.036  11.738  64.816  1.00  0.00    -0.288 Cl 
HETATM    6  C   UNL     1      -9.416   8.904  67.574  1.00  0.00    -0.141 A  
HETATM    7  C   UNL     1      -8.375   8.122  65.503  1.00  0.00    -0.160 A  
HETATM    8  H   UNL     1      -9.860   9.630  69.497  1.00  0.00     0.000 HD 
HETATM    9  C   UNL     1      -9.779  10.077  66.895  1.00  0.00    -0.237 A  
HETATM   10  O   UNL     1      -9.118   5.470  67.368  1.00  0.00    -0.112 OA 
HETATM   11  O   UNL     1      -6.744   6.322  67.383  1.00  0.00    -0.056 OA 
HETATM   12  C   UNL     1      -9.485  10.266  65.531  1.00  0.00    -0.223 A  
HETATM   13  C   UNL     1      -8.786   9.278  64.834  1.00  0.00    -0.193 A  
HETATM   14  S   UNL     1      -8.151   6.504  67.666  1.00  0.00    -0.119 S  
HETATM   15  C   UNL     1      -8.689   7.961  66.855  1.00  0.00    -0.131 A  
ENDROOT
BRANCH   3  16
HETATM   16  C   UNL     1      -9.945   7.644  71.081  1.00  0.00    -0.177 C  
BRANCH  16  17
HETATM   17  S   UNL     1     -11.609   6.966  71.500  1.00  0.00    -0.309 SA 
BRANCH  17  18
HETATM   18  C   UNL     1     -11.164   5.854  72.897  1.00  0.00    -0.253 C  
HETATM   19  F   UNL     1     -10.491   4.247  71.236  1.00  0.00    -0.206 F  
HETATM   20  C   UNL     1     -10.580   4.482  72.562  1.00  0.00    -0.158 C  
HETATM   21  F   UNL     1     -11.330   3.492  73.098  1.00  0.00    -0.254 F  
HETATM   22  F   UNL     1      -9.331   4.366  73.072  1.00  0.00    -0.122 F  
ENDBRANCH  17  18
ENDBRANCH  16  17
ENDBRANCH   3  16
BRANCH  13  23
HETATM   23  S   UNL     1      -8.352   9.445  63.132  1.00  0.00    -0.203 S  
HETATM   24  H2  UNL     1     -10.632  10.289  62.879  1.00  0.00     0.000 HD 
HETATM   25  H1  UNL     1      -9.494  10.160  61.446  1.00  0.00     0.000 HD 
HETATM   26  N   UNL     1      -9.744  10.063  62.429  1.00  0.00    -0.073 N  
HETATM   27  O   UNL     1      -7.324  10.446  63.000  1.00  0.00    -0.139 OA 
HETATM   28  O   UNL     1      -8.213   8.126  62.557  1.00  0.00    -0.172 OA 
ENDBRANCH  13  23
TORSDOF 4
ENDMDL
MODEL      157
REMARK 921   NORMALIZED FREE ENERGY PREDICTED BY IDOCK:   -3.31 KCAL/MOL
REMARK 922        TOTAL FREE ENERGY PREDICTED BY IDOCK:   -4.44 KCAL/MOL
REMARK 923 INTER-LIGAND FREE ENERGY PREDICTED BY IDOCK:   -4.36 KCAL/MOL
REMARK 924 INTRA-LIGAND FREE ENERGY PREDICTED BY IDOCK:   -0.08 KCAL/MOL
REMARK 927      BINDING AFFINITY PREDICTED BY RF-SCORE:    0.00 PKD
ROOT
HETATM    1  C   UNL     1      -6.074   6.271  66.418  1.00  0.00    -0.033 C  
HETATM    2  N   UNL     1      -7.030   6.806  67.410  1.00  0.00    -0.079 N  
HETATM    3  C   UNL     1      -7.894   5.819  68.082  1.00  0.00    -0.104 C  
HETATM    4  N   UNL     1      -8.448   6.458  69.279  1.00  0.00    -0.125 NA 
HETATM    5 CL   UNL     1     -11.731   9.649  71.480  1.00  0.00    -0.464 Cl 
HETATM    6  C   UNL     1      -9.188   7.630  69.139  1.00  0.00    -0.141 A  
HETATM    7  C   UNL     1      -9.735   9.708  67.970  1.00  0.00    -0.167 A  
HETATM    8  H   UNL     1      -8.294   6.051  70.202  1.00  0.00     0.000 HD 
HETATM    9  C   UNL     1     -10.010   8.059  70.192  1.00  0.00    -0.191 A  
HETATM   10  O   UNL     1      -8.811   7.448  65.710  1.00  0.00    -0.149 OA 
HETATM   11  O   UNL     1      -7.119   9.165  66.453  1.00  0.00    -0.082 OA 
HETATM   12  C   UNL     1     -10.720   9.274  70.131  1.00  0.00    -0.235 A  
HETATM   13  C   UNL     1     -10.584  10.096  69.010  1.00  0.00    -0.223 A  
HETATM   14  S   UNL     1      -7.986   8.042  66.740  1.00  0.00    -0.104 S  
HETATM   15  C   UNL     1      -9.050   8.493  68.057  1.00  0.00    -0.140 A  
ENDROOT
BRANCH   3  16
HETATM   16  C   UNL     1      -7.129   4.539  68.522  1.00  0.00    -0.053 C  
BRANCH  16  17
HETATM   17  S   UNL     1      -7.566   3.100  67.454  1.00  0.00    -0.070 SA 
BRANCH  17  18
HETATM   18  C   UNL     1      -8.893   3.850  66.424  1.00  0.00    -0.125 C  
HETATM   19  F   UNL     1      -7.755   2.927  64.515  1.00  0.00    -0.071 F  
HETATM   20  C   UNL     1      -8.831   3.640  64.912  1.00  0.00    -0.121 C  
HETATM   21  F   UNL     1      -8.795   4.823  64.258  1.00  0.00    -0.138 F  
HETATM   22  F   UNL     1      -9.929   2.973  64.485  1.00  0.00    -0.158 F  
ENDBRANCH  17  18
ENDBRANCH  16  17
ENDBRANCH   3  16
BRANCH  13  23
HETATM   23  S   UNL     1     -11.413  11.646  68.865  1.00  0.00    -0.317 S  
HETATM   24  H2  UNL     1      -9.159  12.557  68.612  1.00  0.00     0.000 HD 
HETATM   25  H1  UNL     1     -10.641  13.639  68.566  1.00  0.00     0.000 HD 
HETATM   26  N   UNL     1     -10.162  12.742  68.650  1.00  0.00    -0.196 N  
HETATM   27  O   UNL     1     -12.201  11.652  67.659  1.00  0.00    -0.544 OA 
HETATM   28  O   UNL     1     -11.979  11.992  70.149  1.00  0.00    -0.333 OA 
ENDBRANCH  13  23
TORSDOF 4
ENDMDL
MODEL      158
REMARK 921   NORMALIZED FREE ENERGY PREDICTED BY IDOCK:   -3.30 KCAL/MOL
REMARK 922        TOTAL FREE ENERGY PREDICTED BY IDOCK:   -4.43 KCAL/MOL
REMARK 923 INTER-LIGAND FREE ENERGY PREDICTED BY IDOCK:   -3.91 KCAL/MOL
REMARK 924 INTRA-LIGAND FREE ENERGY PREDICTED BY IDOCK:   -0.53 KCAL/MOL
REMARK 927      BINDING AFFINITY PREDICTED BY RF-SCORE:    0.00 PKD
ROOT
HETATM    1  C   UNL     1      -9.163   2.560  67.668  1.00  0.00    -0.184 C  
HETATM    2  N   UNL     1      -8.599   3.913  67.485  1.00  0.00    -0.099 N  
HETATM    3  C   UNL     1      -8.771   4.849  68.610  1.00  0.00    -0.093 C  
HETATM    4  N   UNL     1      -7.821   5.949  68.420  1.00  0.00    -0.104 NA 
HETATM    5 CL   UNL     1      -6.424  10.245  66.097  1.00  0.00    -0.095 Cl 
HETATM    6  C   UNL     1      -7.878   6.697  67.246  1.00  0.00    -0.112 A  
HETATM    7  C   UNL     1      -8.389   6.938  64.866  1.00  0.00    -0.022 A  
HETATM    8  H   UNL     1      -7.128   6.164  69.138  1.00  0.00     0.000 HD 
HETATM    9  C   UNL     1      -7.239   7.945  67.189  1.00  0.00    -0.090 A  
HETATM   10  O   UNL     1     -10.594   4.836  66.202  1.00  0.00    -0.309 OA 
HETATM   11  O   UNL     1      -8.633   3.877  64.938  1.00  0.00    -0.110 OA 
HETATM   12  C   UNL     1      -7.203   8.706  66.005  1.00  0.00    -0.084 A  
HETATM   13  C   UNL     1      -7.788   8.200  64.842  1.00  0.00    -0.128 A  
HETATM   14  S   UNL     1      -9.170   4.629  66.052  1.00  0.00    -0.155 S  
HETATM   15  C   UNL     1      -8.416   6.211  66.059  1.00  0.00    -0.141 A  
ENDROOT
BRANCH   3  16
HETATM   16  C   UNL     1      -8.492   4.197  69.993  1.00  0.00    -0.064 C  
BRANCH  16  17
HETATM   17  S   UNL     1      -9.903   4.461  71.153  1.00  0.00    -0.173 SA 
BRANCH  17  18
HETATM   18  C   UNL     1     -10.910   5.649  70.174  1.00  0.00    -0.286 C  
HETATM   19  F   UNL     1     -10.643   7.187  72.006  1.00  0.00    -0.207 F  
HETATM   20  C   UNL     1     -11.178   7.028  70.777  1.00  0.00    -0.285 C  
HETATM   21  F   UNL     1     -12.506   7.262  70.881  1.00  0.00    -0.357 F  
HETATM   22  F   UNL     1     -10.656   7.995  69.987  1.00  0.00    -0.221 F  
ENDBRANCH  17  18
ENDBRANCH  16  17
ENDBRANCH   3  16
BRANCH  13  23
HETATM   23  S   UNL     1      -7.762   9.073  63.310  1.00  0.00    -0.126 S  
HETATM   24  H2  UNL     1      -9.106  10.729  64.505  1.00  0.00     0.000 HD 
HETATM   25  H1  UNL     1      -8.641  10.962  62.746  1.00  0.00     0.000 HD 
HETATM   26  N   UNL     1      -8.655  10.457  63.631  1.00  0.00    -0.181 N  
HETATM   27  O   UNL     1      -6.414   9.490  63.023  1.00  0.00    -0.098 OA 
HETATM   28  O   UNL     1      -8.558   8.345  62.348  1.00  0.00    -0.186 OA 
ENDBRANCH  13  23
TORSDOF 4
ENDMDL
MODEL      159
REMARK 921   NORMALIZED FREE ENERGY PREDICTED BY IDOCK:   -3.22 KCAL/MOL
REMARK 922        TOTAL FREE ENERGY PREDICTED BY IDOCK:   -4.33 KCAL/MOL
REMARK 923 INTER-LIGAND FREE ENERGY PREDICTED BY IDOCK:   -4.23 KCAL/MOL
REMARK 924 INTRA-LIGAND FREE ENERGY PREDICTED BY IDOCK:   -0.10 KCAL/MOL
REMARK 927      BINDING AFFINITY PREDICTED BY RF-SCORE:    0.00 PKD
ROOT
HETATM    1  C   UNL     1      -9.088   3.510  68.567  1.00  0.00    -0.147 C  
HETATM    2  N   UNL     1      -8.950   4.979  68.651  1.00  0.00    -0.104 N  
HETATM    3  C   UNL     1      -9.511   5.620  69.853  1.00  0.00    -0.156 C  
HETATM    4  N   UNL     1      -8.928   6.961  69.952  1.00  0.00    -0.142 NA 
HETATM    5 CL   UNL     1      -8.684  11.808  68.452  1.00  0.00    -0.165 Cl 
HETATM    6  C   UNL     1      -9.093   7.850  68.893  1.00  0.00    -0.141 A  
HETATM    7  C   UNL     1      -9.413   8.339  66.517  1.00  0.00    -0.284 A  
HETATM    8  H   UNL     1      -8.409   7.239  70.785  1.00  0.00     0.000 HD 
HETATM    9  C   UNL     1      -8.863   9.219  69.097  1.00  0.00    -0.141 A  
HETATM   10  O   UNL     1     -10.992   5.498  67.224  1.00  0.00    -0.153 OA 
HETATM   11  O   UNL     1      -8.716   5.370  66.144  1.00  0.00    -0.121 OA 
HETATM   12  C   UNL     1      -8.943  10.150  68.043  1.00  0.00    -0.125 A  
HETATM   13  C   UNL     1      -9.226   9.704  66.750  1.00  0.00    -0.149 A  
HETATM   14  S   UNL     1      -9.565   5.735  67.257  1.00  0.00    -0.124 S  
HETATM   15  C   UNL     1      -9.335   7.441  67.586  1.00  0.00    -0.133 A  
ENDROOT
BRANCH   3  16
HETATM   16  C   UNL     1      -9.186   4.849  71.163  1.00  0.00    -0.145 C  
BRANCH  16  17
HETATM   17  S   UNL     1     -10.719   4.485  72.122  1.00  0.00     0.090 SA 
BRANCH  17  18
HETATM   18  C   UNL     1     -11.168   6.183  72.672  1.00  0.00    -0.274 C  
HETATM   19  F   UNL     1     -12.428   6.373  70.630  1.00  0.00    -0.343 F  
HETATM   20  C   UNL     1     -12.081   7.011  71.769  1.00  0.00    -0.336 C  
HETATM   21  F   UNL     1     -11.489   8.174  71.416  1.00  0.00    -0.255 F  
HETATM   22  F   UNL     1     -13.228   7.320  72.417  1.00  0.00    -0.116 F  
ENDBRANCH  17  18
ENDBRANCH  16  17
ENDBRANCH   3  16
BRANCH  13  23
HETATM   23  S   UNL     1      -9.315  10.797  65.368  1.00  0.00    -0.219 S  
HETATM   24  H2  UNL     1      -7.134   9.857  64.788  1.00  0.00     0.000 HD 
HETATM   25  H1  UNL     1      -7.932  11.141  63.748  1.00  0.00     0.000 HD 
HETATM   26  N   UNL     1      -7.881  10.509  64.546  1.00  0.00    -0.058 N  
HETATM   27  O   UNL     1     -10.393  10.386  64.506  1.00  0.00    -0.311 OA 
HETATM   28  O   UNL     1      -9.192  12.157  65.843  1.00  0.00    -0.182 OA 
ENDBRANCH  13  23
TORSDOF 4
ENDMDL
MODEL      160
REMARK 921   NORMALIZED FREE ENERGY PREDICTED BY IDOCK:   -3.21 KCAL/MOL
REMARK 922        TOTAL FREE ENERGY PREDICTED BY IDOCK:   -4.32 KCAL/MOL
REMARK 923 INTER-LIGAND FREE ENERGY PREDICTED BY IDOCK:   -4.10 KCAL/MOL
REMARK 924 INTRA-LIGAND FREE ENERGY PREDICTED BY IDOCK:   -0.22 KCAL/MOL
REMARK 927      BINDING AFFINITY PREDICTED BY RF-SCORE:    0.00 PKD
ROOT
HETATM    1  C   UNL     1      -9.285   8.782  71.356  1.00  0.00    -0.255 C  
HETATM    2  N   UNL     1      -9.439   9.173  69.940  1.00  0.00    -0.174 N  
HETATM    3  C   UNL     1     -10.817   9.406  69.473  1.00  0.00    -0.213 C  
HETATM    4  N   UNL     1     -10.739  10.162  68.220  1.00  0.00    -0.222 NA 
HETATM    5 CL   UNL     1      -9.858  10.376  63.222  1.00  0.00    -0.308 Cl 
HETATM    6  C   UNL     1     -10.024   9.627  67.151  1.00  0.00    -0.194 A  
HETATM    7  C   UNL     1      -8.234   8.233  66.236  1.00  0.00    -0.112 A  
HETATM    8  H   UNL     1     -11.201  11.067  68.133  1.00  0.00     0.000 HD 
HETATM    9  C   UNL     1     -10.222  10.141  65.861  1.00  0.00    -0.281 A  
HETATM   10  O   UNL     1      -9.356   6.801  69.021  1.00  0.00    -0.136 OA 
HETATM   11  O   UNL     1      -7.239   8.167  69.141  1.00  0.00    -0.069 OA 
HETATM   12  C   UNL     1      -9.471   9.689  64.759  1.00  0.00    -0.188 A  
HETATM   13  C   UNL     1      -8.479   8.724  64.950  1.00  0.00    -0.171 A  
HETATM   14  S   UNL     1      -8.663   8.067  68.907  1.00  0.00    -0.130 S  
HETATM   15  C   UNL     1      -9.002   8.697  67.308  1.00  0.00    -0.133 A  
ENDROOT
BRANCH   3  16
HETATM   16  C   UNL     1     -11.673  10.221  70.482  1.00  0.00    -0.331 C  
BRANCH  16  17
HETATM   17  S   UNL     1     -12.804  11.389  69.610  1.00  0.00     0.708 SA 
BRANCH  17  18
HETATM   18  C   UNL     1     -11.723  12.876  69.513  1.00  0.00    -0.323 C  
HETATM   19  F   UNL     1     -12.642  13.240  67.318  1.00  0.00    -0.256 F  
HETATM   20  C   UNL     1     -11.789  13.726  68.245  1.00  0.00    -0.378 C  
HETATM   21  F   UNL     1     -10.572  13.823  67.663  1.00  0.00    -0.235 F  
HETATM   22  F   UNL     1     -12.197  14.982  68.543  1.00  0.00    -0.302 F  
ENDBRANCH  17  18
ENDBRANCH  16  17
ENDBRANCH   3  16
BRANCH  13  23
HETATM   23  S   UNL     1      -7.473   8.123  63.632  1.00  0.00    -0.128 S  
HETATM   24  H2  UNL     1      -6.838  10.469  63.365  1.00  0.00     0.000 HD 
HETATM   25  H1  UNL     1      -6.151   9.160  62.277  1.00  0.00     0.000 HD 
HETATM   26  N   UNL     1      -6.732   9.508  63.040  1.00  0.00    -0.100 N  
HETATM   27  O   UNL     1      -6.438   7.280  64.170  1.00  0.00    -0.043 OA 
HETATM   28  O   UNL     1      -8.333   7.686  62.555  1.00  0.00    -0.123 OA 
ENDBRANCH  13  23
TORSDOF 4
ENDMDL
MODEL      161
REMARK 921   NORMALIZED FREE ENERGY PREDICTED BY IDOCK:   -3.16 KCAL/MOL
REMARK 922        TOTAL FREE ENERGY PREDICTED BY IDOCK:   -4.26 KCAL/MOL
REMARK 923 INTER-LIGAND FREE ENERGY PREDICTED BY IDOCK:   -4.32 KCAL/MOL
REMARK 924 INTRA-LIGAND FREE ENERGY PREDICTED BY IDOCK:    0.06 KCAL/MOL
REMARK 927      BINDING AFFINITY PREDICTED BY RF-SCORE:    0.00 PKD
ROOT
HETATM    1  C   UNL     1      -8.510  11.841  66.701  1.00  0.00    -0.153 C  
HETATM    2  N   UNL     1      -8.432  10.388  66.441  1.00  0.00    -0.134 N  
HETATM    3  C   UNL     1      -9.473   9.825  65.564  1.00  0.00    -0.262 C  
HETATM    4  N   UNL     1      -9.003   8.516  65.103  1.00  0.00    -0.411 NA 
HETATM    5 CL   UNL     1      -8.144   3.577  65.923  1.00  0.00    -0.093 Cl 
HETATM    6  C   UNL     1      -8.684   7.542  66.046  1.00  0.00    -0.158 A  
HETATM    7  C   UNL     1      -7.915   6.859  68.266  1.00  0.00    -0.119 A  
HETATM    8  H   UNL     1      -8.911   8.321  64.106  1.00  0.00     0.000 HD 
HETATM    9  C   UNL     1      -8.577   6.201  65.646  1.00  0.00    -0.148 A  
HETATM   10  O   UNL     1      -9.628   9.693  68.577  1.00  0.00    -0.143 OA 
HETATM   11  O   UNL     1      -7.108   9.810  68.540  1.00  0.00    -0.067 OA 
HETATM   12  C   UNL     1      -8.184   5.188  66.543  1.00  0.00    -0.108 A  
HETATM   13  C   UNL     1      -7.859   5.523  67.860  1.00  0.00    -0.096 A  
HETATM   14  S   UNL     1      -8.367   9.506  67.893  1.00  0.00    -0.114 S  
HETATM   15  C   UNL     1      -8.316   7.839  67.354  1.00  0.00    -0.123 A  
ENDROOT
BRANCH   3  16
HETATM   16  C   UNL     1      -9.761  10.707  64.316  1.00  0.00    -0.314 C  
BRANCH  16  17
HETATM   17  S   UNL     1     -11.492  11.344  64.334  1.00  0.00     0.062 SA 
BRANCH  17  18
HETATM   18  C   UNL     1     -11.199  13.093  63.843  1.00  0.00    -0.336 C  
HETATM   19  F   UNL     1     -11.183  13.615  66.193  1.00  0.00    -0.295 F  
HETATM   20  C   UNL     1     -11.048  14.133  64.953  1.00  0.00    -0.385 C  
HETATM   21  F   UNL     1     -11.967  15.117  64.824  1.00  0.00    -0.375 F  
HETATM   22  F   UNL     1      -9.825  14.709  64.894  1.00  0.00    -0.367 F  
ENDBRANCH  17  18
ENDBRANCH  16  17
ENDBRANCH   3  16
BRANCH  13  23
HETATM   23  S   UNL     1      -7.330   4.323  69.039  1.00  0.00    -0.055 S  
HETATM   24  H2  UNL     1      -5.105   5.245  68.623  1.00  0.00     0.000 HD 
HETATM   25  H1  UNL     1      -5.366   3.872  69.812  1.00  0.00     0.000 HD 
HETATM   26  N   UNL     1      -5.672   4.566  69.130  1.00  0.00    -0.016 N  
HETATM   27  O   UNL     1      -7.882   4.648  70.329  1.00  0.00    -0.056 OA 
HETATM   28  O   UNL     1      -7.470   3.007  68.458  1.00  0.00    -0.049 OA 
ENDBRANCH  13  23
TORSDOF 4
ENDMDL
MODEL      162
REMARK 921   NORMALIZED FREE ENERGY PREDICTED BY IDOCK:   -3.14 KCAL/MOL
REMARK 922        TOTAL FREE ENERGY PREDICTED BY IDOCK:   -4.24 KCAL/MOL
REMARK 923 INTER-LIGAND FREE ENERGY PREDICTED BY IDOCK:   -3.79 KCAL/MOL
REMARK 924 INTRA-LIGAND FREE ENERGY PREDICTED BY IDOCK:   -0.45 KCAL/MOL
REMARK 927      BINDING AFFINITY PREDICTED BY RF-SCORE:    0.00 PKD
ROOT
HETATM    1  C   UNL     1      -8.517   5.958  69.483  1.00  0.00    -0.114 C  
HETATM    2  N   UNL     1      -9.066   6.968  68.554  1.00  0.00    -0.132 N  
HETATM    3  C   UNL     1      -8.920   6.679  67.116  1.00  0.00    -0.118 C  
HETATM    4  N   UNL     1      -9.857   7.544  66.394  1.00  0.00    -0.426 NA 
HETATM    5 CL   UNL     1     -11.157  12.090  64.537  1.00  0.00    -0.366 Cl 
HETATM    6  C   UNL     1      -9.761   8.925  66.551  1.00  0.00    -0.254 A  
HETATM    7  C   UNL     1      -9.179  10.912  67.855  1.00  0.00    -0.152 A  
HETATM    8  H   UNL     1     -10.569   7.141  65.784  1.00  0.00     0.000 HD 
HETATM    9  C   UNL     1     -10.389   9.772  65.626  1.00  0.00    -0.036 A  
HETATM   10  O   UNL     1      -7.028   8.491  68.618  1.00  0.00    -0.062 OA 
HETATM   11  O   UNL     1      -8.958   8.922  70.185  1.00  0.00    -0.150 OA 
HETATM   12  C   UNL     1     -10.386  11.172  65.780  1.00  0.00    -0.260 A  
HETATM   13  C   UNL     1      -9.771  11.740  66.897  1.00  0.00    -0.198 A  
HETATM   14  S   UNL     1      -8.449   8.516  68.892  1.00  0.00    -0.123 S  
HETATM   15  C   UNL     1      -9.192   9.526  67.669  1.00  0.00    -0.124 A  
ENDROOT
BRANCH   3  16
HETATM   16  C   UNL     1      -9.243   5.202  66.755  1.00  0.00    -0.123 C  
BRANCH  16  17
HETATM   17  S   UNL     1      -7.835   4.407  65.868  1.00  0.00    -0.095 SA 
BRANCH  17  18
HETATM   18  C   UNL     1      -8.754   3.433  64.606  1.00  0.00    -0.102 C  
HETATM   19  F   UNL     1      -7.352   4.487  62.958  1.00  0.00    -0.047 F  
HETATM   20  C   UNL     1      -8.349   3.596  63.142  1.00  0.00    -0.089 C  
HETATM   21  F   UNL     1      -9.398   4.002  62.391  1.00  0.00    -0.094 F  
HETATM   22  F   UNL     1      -7.924   2.413  62.638  1.00  0.00    -0.060 F  
ENDBRANCH  17  18
ENDBRANCH  16  17
ENDBRANCH   3  16
BRANCH  13  23
HETATM   23  S   UNL     1      -9.747  13.480  67.184  1.00  0.00    -0.252 S  
HETATM   24  H2  UNL     1      -8.558  12.885  69.235  1.00  0.00     0.000 HD 
HETATM   25  H1  UNL     1      -8.928  14.632  68.815  1.00  0.00     0.000 HD 
HETATM   26  N   UNL     1      -8.942  13.627  68.649  1.00  0.00    -0.089 N  
HETATM   27  O   UNL     1      -8.931  14.116  66.181  1.00  0.00    -0.052 OA 
HETATM   28  O   UNL     1     -11.093  13.923  67.467  1.00  0.00    -0.274 OA 
ENDBRANCH  13  23
TORSDOF 4
ENDMDL
MODEL      163
REMARK 921   NORMALIZED FREE ENERGY PREDICTED BY IDOCK:   -3.14 KCAL/MOL
REMARK 922        TOTAL FREE ENERGY PREDICTED BY IDOCK:   -4.23 KCAL/MOL
REMARK 923 INTER-LIGAND FREE ENERGY PREDICTED BY IDOCK:   -3.91 KCAL/MOL
REMARK 924 INTRA-LIGAND FREE ENERGY PREDICTED BY IDOCK:   -0.32 KCAL/MOL
REMARK 927      BINDING AFFINITY PREDICTED BY RF-SCORE:    0.00 PKD
ROOT
HETATM    1  C   UNL     1      -8.177   7.478  64.942  1.00  0.00    -0.083 C  
HETATM    2  N   UNL     1      -8.176   7.492  66.419  1.00  0.00    -0.116 N  
HETATM    3  C   UNL     1      -7.426   6.411  67.082  1.00  0.00    -0.084 C  
HETATM    4  N   UNL     1      -7.197   6.818  68.471  1.00  0.00    -0.082 NA 
HETATM    5 CL   UNL     1      -8.864   7.492  73.222  1.00  0.00    -0.198 Cl 
HETATM    6  C   UNL     1      -8.292   7.116  69.277  1.00  0.00    -0.133 A  
HETATM    7  C   UNL     1     -10.588   7.902  69.593  1.00  0.00    -0.234 A  
HETATM    8  H   UNL     1      -6.249   6.881  68.842  1.00  0.00     0.000 HD 
HETATM    9  C   UNL     1      -8.135   7.161  70.671  1.00  0.00    -0.113 A  
HETATM   10  O   UNL     1     -10.417   6.313  66.676  1.00  0.00    -0.217 OA 
HETATM   11  O   UNL     1     -10.326   8.834  66.677  1.00  0.00    -0.279 OA 
HETATM   12  C   UNL     1      -9.190   7.531  71.526  1.00  0.00    -0.135 A  
HETATM   13  C   UNL     1     -10.423   7.896  70.980  1.00  0.00    -0.203 A  
HETATM   14  S   UNL     1      -9.760   7.551  67.035  1.00  0.00    -0.216 S  
HETATM   15  C   UNL     1      -9.523   7.523  68.771  1.00  0.00    -0.148 A  
ENDROOT
BRANCH   3  16
HETATM   16  C   UNL     1      -6.046   6.133  66.422  1.00  0.00    -0.032 C  
BRANCH  16  17
HETATM   17  S   UNL     1      -5.467   4.419  66.779  1.00  0.00    -0.014 SA 
BRANCH  17  18
HETATM   18  C   UNL     1      -7.071   3.517  66.726  1.00  0.00    -0.059 C  
HETATM   19  F   UNL     1      -7.034   3.574  69.133  1.00  0.00    -0.042 F  
HETATM   20  C   UNL     1      -7.745   3.177  68.055  1.00  0.00    -0.059 C  
HETATM   21  F   UNL     1      -7.944   1.845  68.171  1.00  0.00    -0.056 F  
HETATM   22  F   UNL     1      -8.956   3.777  68.134  1.00  0.00    -0.110 F  
ENDBRANCH  17  18
ENDBRANCH  16  17
ENDBRANCH   3  16
BRANCH  13  23
HETATM   23  S   UNL     1     -11.789   8.400  71.976  1.00  0.00    -0.380 S  
HETATM   24  H2  UNL     1     -13.098   6.975  70.482  1.00  0.00     0.000 HD 
HETATM   25  H1  UNL     1     -13.884   7.894  71.862  1.00  0.00     0.000 HD 
HETATM   26  N   UNL     1     -13.094   7.603  71.286  1.00  0.00    -0.277 N  
HETATM   27  O   UNL     1     -11.624   7.880  73.309  1.00  0.00    -0.252 OA 
HETATM   28  O   UNL     1     -12.051   9.801  71.729  1.00  0.00    -0.390 OA 
ENDBRANCH  13  23
TORSDOF 4
ENDMDL
MODEL      164
REMARK 921   NORMALIZED FREE ENERGY PREDICTED BY IDOCK:   -3.11 KCAL/MOL
REMARK 922        TOTAL FREE ENERGY PREDICTED BY IDOCK:   -4.20 KCAL/MOL
REMARK 923 INTER-LIGAND FREE ENERGY PREDICTED BY IDOCK:   -4.13 KCAL/MOL
REMARK 924 INTRA-LIGAND FREE ENERGY PREDICTED BY IDOCK:   -0.07 KCAL/MOL
REMARK 927      BINDING AFFINITY PREDICTED BY RF-SCORE:    0.00 PKD
ROOT
HETATM    1  C   UNL     1      -9.380  12.654  66.084  1.00  0.00    -0.112 C  
HETATM    2  N   UNL     1      -9.748  13.587  67.169  1.00  0.00    -0.238 N  
HETATM    3  C   UNL     1      -8.637  14.308  67.815  1.00  0.00    -0.177 C  
HETATM    4  N   UNL     1      -9.210  15.446  68.540  1.00  0.00    -0.191 NA 
HETATM    5 CL   UNL     1     -11.714  17.352  72.527  1.00  0.00     0.861 Cl 
HETATM    6  C   UNL     1     -10.174  15.209  69.516  1.00  0.00    -0.233 A  
HETATM    7  C   UNL     1     -11.998  13.888  70.471  1.00  0.00    -0.384 A  
HETATM    8  H   UNL     1      -8.906  16.397  68.332  1.00  0.00     0.000 HD 
HETATM    9  C   UNL     1     -10.473  16.213  70.450  1.00  0.00     0.067 A  
HETATM   10  O   UNL     1      -9.865  11.810  68.988  1.00  0.00    -0.065 OA 
HETATM   11  O   UNL     1     -11.962  12.467  67.748  1.00  0.00    -0.429 OA 
HETATM   12  C   UNL     1     -11.491  16.054  71.410  1.00  0.00    -0.398 A  
HETATM   13  C   UNL     1     -12.250  14.881  71.421  1.00  0.00    -0.333 A  
HETATM   14  S   UNL     1     -10.693  12.813  68.352  1.00  0.00    -0.256 S  
HETATM   15  C   UNL     1     -10.976  14.073  69.536  1.00  0.00    -0.095 A  
ENDROOT
BRANCH   3  16
HETATM   16  C   UNL     1      -7.592  14.851  66.801  1.00  0.00     0.396 C  
BRANCH  16  17
HETATM   17  S   UNL     1      -6.059  15.416  67.658  1.00  0.00    -0.082 SA 
BRANCH  17  18
HETATM   18  C   UNL     1      -6.554  17.130  68.113  1.00  0.00    -0.158 C  
HETATM   19  F   UNL     1      -6.872  17.524  65.759  1.00  0.00    -0.286 F  
HETATM   20  C   UNL     1      -6.960  18.080  66.987  1.00  0.00    -0.190 C  
HETATM   21  F   UNL     1      -6.186  19.188  66.985  1.00  0.00    -0.177 F  
HETATM   22  F   UNL     1      -8.243  18.481  67.151  1.00  0.00    -0.238 F  
ENDBRANCH  17  18
ENDBRANCH  16  17
ENDBRANCH   3  16
BRANCH  13  23
HETATM   23  S   UNL     1     -13.562  14.611  72.569  1.00  0.00    -0.479 S  
HETATM   24  H2  UNL     1     -11.774  14.557  74.235  1.00  0.00     0.000 HD 
HETATM   25  H1  UNL     1     -13.532  14.334  74.709  1.00  0.00     0.000 HD 
HETATM   26  N   UNL     1     -12.774  14.490  74.046  1.00  0.00     0.192 N  
HETATM   27  O   UNL     1     -14.395  15.784  72.623  1.00  0.00    -0.507 OA 
HETATM   28  O   UNL     1     -14.111  13.293  72.345  1.00  0.00    -0.618 OA 
ENDBRANCH  13  23
TORSDOF 4
ENDMDL
MODEL      165
REMARK 921   NORMALIZED FREE ENERGY PREDICTED BY IDOCK:   -3.08 KCAL/MOL
REMARK 922        TOTAL FREE ENERGY PREDICTED BY IDOCK:   -4.16 KCAL/MOL
REMARK 923 INTER-LIGAND FREE ENERGY PREDICTED BY IDOCK:   -5.04 KCAL/MOL
REMARK 924 INTRA-LIGAND FREE ENERGY PREDICTED BY IDOCK:    0.88 KCAL/MOL
REMARK 927      BINDING AFFINITY PREDICTED BY RF-SCORE:    0.00 PKD
ROOT
HETATM    1  C   UNL     1      -9.583  12.270  66.068  1.00  0.00    -0.222 C  
HETATM    2  N   UNL     1      -9.906  13.251  67.124  1.00  0.00    -0.232 N  
HETATM    3  C   UNL     1      -8.789  14.084  67.605  1.00  0.00    -0.190 C  
HETATM    4  N   UNL     1      -9.365  15.231  68.312  1.00  0.00    -0.190 NA 
HETATM    5 CL   UNL     1     -11.588  17.250  72.408  1.00  0.00     0.598 Cl 
HETATM    6  C   UNL     1     -10.208  15.003  69.396  1.00  0.00    -0.223 A  
HETATM    7  C   UNL     1     -11.833  13.640  70.616  1.00  0.00    -0.232 A  
HETATM    8  H   UNL     1      -9.150  16.183  68.014  1.00  0.00     0.000 HD 
HETATM    9  C   UNL     1     -10.483  16.049  70.291  1.00  0.00    -0.115 A  
HETATM   10  O   UNL     1      -9.718  11.602  69.054  1.00  0.00    -0.074 OA 
HETATM   11  O   UNL     1     -11.968  12.037  67.998  1.00  0.00    -0.495 OA 
HETATM   12  C   UNL     1     -11.387  15.894  71.359  1.00  0.00    -0.339 A  
HETATM   13  C   UNL     1     -12.058  14.679  71.523  1.00  0.00    -0.348 A  
HETATM   14  S   UNL     1     -10.673  12.503  68.445  1.00  0.00    -0.247 S  
HETATM   15  C   UNL     1     -10.924  13.823  69.570  1.00  0.00    -0.031 A  
ENDROOT
BRANCH   3  16
HETATM   16  C   UNL     1      -7.890  14.619  66.456  1.00  0.00     0.811 C  
BRANCH  16  17
HETATM   17  S   UNL     1      -7.968  16.459  66.349  1.00  0.00    -0.230 SA 
BRANCH  17  18
HETATM   18  C   UNL     1      -9.785  16.699  66.185  1.00  0.00    -0.303 C  
HETATM   19  F   UNL     1      -9.691  15.161  64.335  1.00  0.00     0.169 F  
HETATM   20  C   UNL     1     -10.513  15.925  65.086  1.00  0.00    -0.335 C  
HETATM   21  F   UNL     1     -11.160  16.765  64.248  1.00  0.00    -0.363 F  
HETATM   22  F   UNL     1     -11.439  15.099  65.628  1.00  0.00    -0.344 F  
ENDBRANCH  17  18
ENDBRANCH  16  17
ENDBRANCH   3  16
BRANCH  13  23
HETATM   23  S   UNL     1     -13.227  14.409  72.815  1.00  0.00    -0.503 S  
HETATM   24  H2  UNL     1     -14.248  16.475  72.000  1.00  0.00     0.000 HD 
HETATM   25  H1  UNL     1     -14.954  15.553  73.420  1.00  0.00     0.000 HD 
HETATM   26  N   UNL     1     -14.278  15.709  72.673  1.00  0.00    -0.474 N  
HETATM   27  O   UNL     1     -13.981  13.215  72.531  1.00  0.00    -0.676 OA 
HETATM   28  O   UNL     1     -12.570  14.614  74.086  1.00  0.00    -0.456 OA 
ENDBRANCH  13  23
TORSDOF 4
ENDMDL
MODEL      166
REMARK 921   NORMALIZED FREE ENERGY PREDICTED BY IDOCK:   -3.05 KCAL/MOL
REMARK 922        TOTAL FREE ENERGY PREDICTED BY IDOCK:   -4.13 KCAL/MOL
REMARK 923 INTER-LIGAND FREE ENERGY PREDICTED BY IDOCK:   -3.96 KCAL/MOL
REMARK 924 INTRA-LIGAND FREE ENERGY PREDICTED BY IDOCK:   -0.17 KCAL/MOL
REMARK 927      BINDING AFFINITY PREDICTED BY RF-SCORE:    0.00 PKD
ROOT
HETATM    1  C   UNL     1      -8.356  10.468  68.309  1.00  0.00    -0.122 C  
HETATM    2  N   UNL     1      -8.353   9.224  67.511  1.00  0.00    -0.118 N  
HETATM    3  C   UNL     1      -9.388   9.115  66.468  1.00  0.00    -0.190 C  
HETATM    4  N   UNL     1      -8.979   8.052  65.547  1.00  0.00    -0.377 NA 
HETATM    5 CL   UNL     1      -8.454   3.127  64.419  1.00  0.00    -0.093 Cl 
HETATM    6  C   UNL     1      -8.759   6.771  66.048  1.00  0.00    -0.146 A  
HETATM    7  C   UNL     1      -8.128   5.238  67.847  1.00  0.00    -0.099 A  
HETATM    8  H   UNL     1      -8.856   8.247  64.553  1.00  0.00     0.000 HD 
HETATM    9  C   UNL     1      -8.716   5.681  65.166  1.00  0.00    -0.096 A  
HETATM   10  O   UNL     1      -9.679   7.853  69.196  1.00  0.00    -0.159 OA 
HETATM   11  O   UNL     1      -7.158   7.794  69.248  1.00  0.00    -0.071 OA 
HETATM   12  C   UNL     1      -8.423   4.378  65.610  1.00  0.00    -0.115 A  
HETATM   13  C   UNL     1      -8.135   4.158  66.959  1.00  0.00    -0.100 A  
HETATM   14  S   UNL     1      -8.403   7.851  68.513  1.00  0.00    -0.128 S  
HETATM   15  C   UNL     1      -8.430   6.518  67.376  1.00  0.00    -0.119 A  
ENDROOT
BRANCH   3  16
HETATM   16  C   UNL     1      -9.570  10.426  65.651  1.00  0.00    -0.226 C  
BRANCH  16  17
HETATM   17  S   UNL     1     -11.044  11.374  66.227  1.00  0.00    -0.154 SA 
BRANCH  17  18
HETATM   18  C   UNL     1     -10.302  13.048  66.410  1.00  0.00    -0.281 C  
HETATM   19  F   UNL     1     -11.759  13.345  68.303  1.00  0.00    -0.308 F  
HETATM   20  C   UNL     1     -10.791  13.926  67.561  1.00  0.00    -0.266 C  
HETATM   21  F   UNL     1     -11.282  15.099  67.102  1.00  0.00    -0.319 F  
HETATM   22  F   UNL     1      -9.767  14.215  68.399  1.00  0.00    -0.202 F  
ENDBRANCH  17  18
ENDBRANCH  16  17
ENDBRANCH   3  16
BRANCH  13  23
HETATM   23  S   UNL     1      -7.730   2.564  67.595  1.00  0.00    -0.060 S  
HETATM   24  H2  UNL     1      -9.971   1.953  66.834  1.00  0.00     0.000 HD 
HETATM   25  H1  UNL     1      -8.871   0.733  67.652  1.00  0.00     0.000 HD 
HETATM   26  N   UNL     1      -9.105   1.655  67.284  1.00  0.00    -0.124 N  
HETATM   27  O   UNL     1      -6.658   2.000  66.817  1.00  0.00    -0.036 OA 
HETATM   28  O   UNL     1      -7.668   2.642  69.038  1.00  0.00    -0.047 OA 
ENDBRANCH  13  23
TORSDOF 4
ENDMDL
MODEL      167
REMARK 921   NORMALIZED FREE ENERGY PREDICTED BY IDOCK:   -3.04 KCAL/MOL
REMARK 922        TOTAL FREE ENERGY PREDICTED BY IDOCK:   -4.12 KCAL/MOL
REMARK 923 INTER-LIGAND FREE ENERGY PREDICTED BY IDOCK:   -3.79 KCAL/MOL
REMARK 924 INTRA-LIGAND FREE ENERGY PREDICTED BY IDOCK:   -0.32 KCAL/MOL
REMARK 927      BINDING AFFINITY PREDICTED BY RF-SCORE:    0.00 PKD
ROOT
HETATM    1  C   UNL     1     -10.287   9.771  70.330  1.00  0.00    -0.291 C  
HETATM    2  N   UNL     1      -9.930   8.782  69.292  1.00  0.00    -0.188 N  
HETATM    3  C   UNL     1     -10.715   8.831  68.047  1.00  0.00    -0.090 C  
HETATM    4  N   UNL     1      -9.970   8.092  67.024  1.00  0.00    -0.231 NA 
HETATM    5 CL   UNL     1      -8.443   3.713  64.952  1.00  0.00    -0.103 Cl 
HETATM    6  C   UNL     1      -9.644   6.758  67.256  1.00  0.00    -0.137 A  
HETATM    7  C   UNL     1      -9.124   4.894  68.753  1.00  0.00    -0.147 A  
HETATM    8  H   UNL     1      -9.695   8.549  66.154  1.00  0.00     0.000 HD 
HETATM    9  C   UNL     1      -9.256   5.943  66.182  1.00  0.00    -0.164 A  
HETATM   10  O   UNL     1     -11.309   6.885  70.279  1.00  0.00    -0.293 OA 
HETATM   11  O   UNL     1      -8.869   7.096  70.880  1.00  0.00    -0.148 OA 
HETATM   12  C   UNL     1      -8.844   4.611  66.372  1.00  0.00    -0.112 A  
HETATM   13  C   UNL     1      -8.786   4.085  67.665  1.00  0.00    -0.115 A  
HETATM   14  S   UNL     1      -9.944   7.201  69.918  1.00  0.00    -0.183 S  
HETATM   15  C   UNL     1      -9.536   6.211  68.530  1.00  0.00    -0.119 A  
ENDROOT
BRANCH   3  16
HETATM   16  C   UNL     1     -10.950  10.278  67.530  1.00  0.00    -0.280 C  
BRANCH  16  17
HETATM   17  S   UNL     1      -9.407  10.989  66.810  1.00  0.00    -0.185 SA 
BRANCH  17  18
HETATM   18  C   UNL     1      -9.321  12.579  67.733  1.00  0.00    -0.198 C  
HETATM   19  F   UNL     1      -7.006  12.683  67.080  1.00  0.00    -0.143 F  
HETATM   20  C   UNL     1      -7.988  13.326  67.747  1.00  0.00    -0.166 C  
HETATM   21  F   UNL     1      -7.555  13.521  69.013  1.00  0.00    -0.112 F  
HETATM   22  F   UNL     1      -8.127  14.545  67.175  1.00  0.00    -0.192 F  
ENDBRANCH  17  18
ENDBRANCH  16  17
ENDBRANCH   3  16
BRANCH  13  23
HETATM   23  S   UNL     1      -8.254   2.437  67.996  1.00  0.00    -0.064 S  
HETATM   24  H2  UNL     1     -10.103   1.800  66.529  1.00  0.00     0.000 HD 
HETATM   25  H1  UNL     1      -9.020   0.540  67.307  1.00  0.00     0.000 HD 
HETATM   26  N   UNL     1      -9.327   1.493  67.116  1.00  0.00    -0.038 N  
HETATM   27  O   UNL     1      -6.945   2.237  67.430  1.00  0.00    -0.043 OA 
HETATM   28  O   UNL     1      -8.547   2.123  69.376  1.00  0.00    -0.049 OA 
ENDBRANCH  13  23
TORSDOF 4
ENDMDL
MODEL      168
REMARK 921   NORMALIZED FREE ENERGY PREDICTED BY IDOCK:   -3.03 KCAL/MOL
REMARK 922        TOTAL FREE ENERGY PREDICTED BY IDOCK:   -4.10 KCAL/MOL
REMARK 923 INTER-LIGAND FREE ENERGY PREDICTED BY IDOCK:   -3.82 KCAL/MOL
REMARK 924 INTRA-LIGAND FREE ENERGY PREDICTED BY IDOCK:   -0.28 KCAL/MOL
REMARK 927      BINDING AFFINITY PREDICTED BY RF-SCORE:    0.00 PKD
ROOT
HETATM    1  C   UNL     1      -5.509  10.121  68.613  1.00  0.00    -0.038 C  
HETATM    2  N   UNL     1      -6.715  10.975  68.613  1.00  0.00    -0.057 N  
HETATM    3  C   UNL     1      -7.857  10.490  67.819  1.00  0.00    -0.104 C  
HETATM    4  N   UNL     1      -9.048  11.220  68.263  1.00  0.00    -0.166 NA 
HETATM    5 CL   UNL     1     -11.899  15.423  68.328  1.00  0.00    -0.305 Cl 
HETATM    6  C   UNL     1      -9.054  12.611  68.191  1.00  0.00    -0.204 A  
HETATM    7  C   UNL     1      -7.915  14.776  68.207  1.00  0.00    -0.130 A  
HETATM    8  H   UNL     1      -9.860  10.717  68.620  1.00  0.00     0.000 HD 
HETATM    9  C   UNL     1     -10.272  13.303  68.270  1.00  0.00    -0.250 A  
HETATM   10  O   UNL     1      -5.901  12.544  66.782  1.00  0.00    -0.245 OA 
HETATM   11  O   UNL     1      -5.512  13.141  69.202  1.00  0.00    -0.069 OA 
HETATM   12  C   UNL     1     -10.327  14.710  68.278  1.00  0.00    -0.230 A  
HETATM   13  C   UNL     1      -9.141  15.446  68.239  1.00  0.00    -0.187 A  
HETATM   14  S   UNL     1      -6.339  12.571  68.161  1.00  0.00    -0.088 S  
HETATM   15  C   UNL     1      -7.894  13.379  68.192  1.00  0.00    -0.145 A  
ENDROOT
BRANCH   3  16
HETATM   16  C   UNL     1      -8.123   8.969  67.998  1.00  0.00    -0.105 C  
BRANCH  16  17
HETATM   17  S   UNL     1      -8.067   8.085  66.380  1.00  0.00    -0.111 SA 
BRANCH  17  18
HETATM   18  C   UNL     1      -6.774   6.826  66.742  1.00  0.00    -0.056 C  
HETATM   19  F   UNL     1      -8.453   5.653  68.006  1.00  0.00    -0.103 F  
HETATM   20  C   UNL     1      -7.168   5.620  67.594  1.00  0.00    -0.076 C  
HETATM   21  F   UNL     1      -6.392   5.531  68.697  1.00  0.00    -0.033 F  
HETATM   22  F   UNL     1      -7.005   4.475  66.890  1.00  0.00    -0.057 F  
ENDBRANCH  17  18
ENDBRANCH  16  17
ENDBRANCH   3  16
BRANCH  13  23
HETATM   23  S   UNL     1      -9.117  17.209  68.276  1.00  0.00    -0.266 S  
HETATM   24  H2  UNL     1      -9.960  17.030  65.988  1.00  0.00     0.000 HD 
HETATM   25  H1  UNL     1      -9.661  18.661  66.774  1.00  0.00     0.000 HD 
HETATM   26  N   UNL     1      -9.675  17.641  66.753  1.00  0.00    -0.287 N  
HETATM   27  O   UNL     1     -10.084  17.678  69.235  1.00  0.00    -0.274 OA 
HETATM   28  O   UNL     1      -7.742  17.655  68.295  1.00  0.00    -0.233 OA 
ENDBRANCH  13  23
TORSDOF 4
ENDMDL
MODEL      169
REMARK 921   NORMALIZED FREE ENERGY PREDICTED BY IDOCK:   -2.86 KCAL/MOL
REMARK 922        TOTAL FREE ENERGY PREDICTED BY IDOCK:   -3.89 KCAL/MOL
REMARK 923 INTER-LIGAND FREE ENERGY PREDICTED BY IDOCK:   -3.77 KCAL/MOL
REMARK 924 INTRA-LIGAND FREE ENERGY PREDICTED BY IDOCK:   -0.12 KCAL/MOL
REMARK 927      BINDING AFFINITY PREDICTED BY RF-SCORE:    0.00 PKD
ROOT
HETATM    1  C   UNL     1      -5.807   7.917  69.751  1.00  0.00    -0.023 C  
HETATM    2  N   UNL     1      -7.076   8.655  69.921  1.00  0.00    -0.049 N  
HETATM    3  C   UNL     1      -8.245   7.859  70.333  1.00  0.00    -0.119 C  
HETATM    4  N   UNL     1      -9.258   8.788  70.839  1.00  0.00    -0.191 NA 
HETATM    5 CL   UNL     1     -12.895  12.243  70.037  1.00  0.00     0.308 Cl 
HETATM    6  C   UNL     1      -9.721   9.803  70.005  1.00  0.00    -0.250 A  
HETATM    7  C   UNL     1      -9.426  11.380  68.158  1.00  0.00    -0.181 A  
HETATM    8  H   UNL     1      -9.619   8.694  71.789  1.00  0.00     0.000 HD 
HETATM    9  C   UNL     1     -10.914  10.470  70.323  1.00  0.00    -0.306 A  
HETATM   10  O   UNL     1      -7.714   8.614  67.458  1.00  0.00    -0.096 OA 
HETATM   11  O   UNL     1      -6.464  10.597  68.390  1.00  0.00    -0.054 OA 
HETATM   12  C   UNL     1     -11.387  11.551  69.556  1.00  0.00    -0.274 A  
HETATM   13  C   UNL     1     -10.640  12.001  68.465  1.00  0.00    -0.231 A  
HETATM   14  S   UNL     1      -7.457   9.554  68.528  1.00  0.00    -0.080 S  
HETATM   15  C   UNL     1      -8.988  10.304  68.935  1.00  0.00    -0.164 A  
ENDROOT
BRANCH   3  16
HETATM   16  C   UNL     1      -7.918   6.834  71.456  1.00  0.00    -0.102 C  
BRANCH  16  17
HETATM   17  S   UNL     1      -9.445   5.988  72.053  1.00  0.00    -0.148 SA 
BRANCH  17  18
HETATM   18  C   UNL     1      -8.698   4.575  72.965  1.00  0.00    -0.112 C  
HETATM   19  F   UNL     1     -10.222   3.157  71.756  1.00  0.00    -0.238 F  
HETATM   20  C   UNL     1      -9.223   3.171  72.664  1.00  0.00    -0.092 C  
HETATM   21  F   UNL     1      -9.688   2.577  73.786  1.00  0.00    -0.099 F  
HETATM   22  F   UNL     1      -8.229   2.394  72.175  1.00  0.00    -0.051 F  
ENDBRANCH  17  18
ENDBRANCH  16  17
ENDBRANCH   3  16
BRANCH  13  23
HETATM   23  S   UNL     1     -11.143  13.366  67.468  1.00  0.00    -0.283 S  
HETATM   24  H2  UNL     1      -8.744  13.761  67.218  1.00  0.00     0.000 HD 
HETATM   25  H1  UNL     1      -9.983  14.848  66.413  1.00  0.00     0.000 HD 
HETATM   26  N   UNL     1      -9.692  14.059  66.988  1.00  0.00    -0.248 N  
HETATM   27  O   UNL     1     -11.797  12.874  66.283  1.00  0.00    -0.378 OA 
HETATM   28  O   UNL     1     -11.754  14.362  68.320  1.00  0.00    -0.310 OA 
ENDBRANCH  13  23
TORSDOF 4
ENDMDL
MODEL      170
REMARK 921   NORMALIZED FREE ENERGY PREDICTED BY IDOCK:   -2.50 KCAL/MOL
REMARK 922        TOTAL FREE ENERGY PREDICTED BY IDOCK:   -3.45 KCAL/MOL
REMARK 923 INTER-LIGAND FREE ENERGY PREDICTED BY IDOCK:   -3.88 KCAL/MOL
REMARK 924 INTRA-LIGAND FREE ENERGY PREDICTED BY IDOCK:    0.44 KCAL/MOL
REMARK 927      BINDING AFFINITY PREDICTED BY RF-SCORE:    0.00 PKD
ROOT
HETATM    1  C   UNL     1      -7.939   7.529  68.568  1.00  0.00    -0.123 C  
HETATM    2  N   UNL     1      -8.594   8.717  67.984  1.00  0.00    -0.136 N  
HETATM    3  C   UNL     1      -7.963   9.285  66.780  1.00  0.00    -0.108 C  
HETATM    4  N   UNL     1      -8.948  10.154  66.131  1.00  0.00    -0.147 NA 
HETATM    5 CL   UNL     1     -11.508  14.535  65.884  1.00  0.00    -0.342 Cl 
HETATM    6  C   UNL     1      -9.493  11.214  66.852  1.00  0.00    -0.185 A  
HETATM    7  C   UNL     1     -10.180  12.267  68.951  1.00  0.00    -0.041 A  
HETATM    8  H   UNL     1      -9.230   9.986  65.165  1.00  0.00     0.000 HD 
HETATM    9  C   UNL     1     -10.149  12.250  66.171  1.00  0.00    -0.265 A  
HETATM   10  O   UNL     1      -7.495  10.396  69.548  1.00  0.00    -0.119 OA 
HETATM   11  O   UNL     1      -9.766   9.457  70.121  1.00  0.00    -0.202 OA 
HETATM   12  C   UNL     1     -10.782  13.305  66.855  1.00  0.00    -0.271 A  
HETATM   13  C   UNL     1     -10.789  13.313  68.252  1.00  0.00    -0.256 A  
HETATM   14  S   UNL     1      -8.808   9.937  69.148  1.00  0.00    -0.176 S  
HETATM   15  C   UNL     1      -9.554  11.238  68.242  1.00  0.00    -0.193 A  
ENDROOT
BRANCH   3  16
HETATM   16  C   UNL     1      -7.519   8.202  65.756  1.00  0.00    -0.080 C  
BRANCH  16  17
HETATM   17  S   UNL     1      -8.860   6.970  65.463  1.00  0.00     0.139 SA 
BRANCH  17  18
HETATM   18  C   UNL     1      -7.853   5.455  65.181  1.00  0.00    -0.095 C  
HETATM   19  F   UNL     1      -9.913   4.217  65.315  1.00  0.00    -0.167 F  
HETATM   20  C   UNL     1      -8.581   4.113  65.120  1.00  0.00    -0.116 C  
HETATM   21  F   UNL     1      -8.102   3.258  66.051  1.00  0.00    -0.088 F  
HETATM   22  F   UNL     1      -8.401   3.536  63.909  1.00  0.00    -0.087 F  
ENDBRANCH  17  18
ENDBRANCH  16  17
ENDBRANCH   3  16
BRANCH  13  23
HETATM   23  S   UNL     1     -11.583  14.579  69.189  1.00  0.00    -0.318 S  
HETATM   24  H2  UNL     1      -9.316  15.438  69.502  1.00  0.00     0.000 HD 
HETATM   25  H1  UNL     1     -10.770  16.284  70.234  1.00  0.00     0.000 HD 
HETATM   26  N   UNL     1     -10.311  15.552  69.692  1.00  0.00    -0.266 N  
HETATM   27  O   UNL     1     -12.408  15.371  68.314  1.00  0.00     0.073 OA 
HETATM   28  O   UNL     1     -12.098  14.000  70.409  1.00  0.00    -0.313 OA 
ENDBRANCH  13  23
TORSDOF 4
ENDMDL
MODEL      171
REMARK 921   NORMALIZED FREE ENERGY PREDICTED BY IDOCK:   -2.43 KCAL/MOL
REMARK 922        TOTAL FREE ENERGY PREDICTED BY IDOCK:   -3.36 KCAL/MOL
REMARK 923 INTER-LIGAND FREE ENERGY PREDICTED BY IDOCK:   -3.19 KCAL/MOL
REMARK 924 INTRA-LIGAND FREE ENERGY PREDICTED BY IDOCK:   -0.17 KCAL/MOL
REMARK 927      BINDING AFFINITY PREDICTED BY RF-SCORE:    0.00 PKD
ROOT
HETATM    1  C   UNL     1      -6.849   6.003  70.919  1.00  0.00    -0.062 C  
HETATM    2  N   UNL     1      -6.775   6.857  69.716  1.00  0.00    -0.048 N  
HETATM    3  C   UNL     1      -7.606   8.073  69.726  1.00  0.00    -0.092 C  
HETATM    4  N   UNL     1      -7.099   8.965  68.680  1.00  0.00    -0.070 NA 
HETATM    5 CL   UNL     1      -6.669  10.260  63.787  1.00  0.00    -0.107 Cl 
HETATM    6  C   UNL     1      -7.051   8.507  67.365  1.00  0.00    -0.080 A  
HETATM    7  C   UNL     1      -6.850   6.715  65.712  1.00  0.00    -0.049 A  
HETATM    8  H   UNL     1      -6.786   9.908  68.911  1.00  0.00     0.000 HD 
HETATM    9  C   UNL     1      -6.911   9.428  66.316  1.00  0.00    -0.087 A  
HETATM   10  O   UNL     1      -8.464   5.518  68.363  1.00  0.00    -0.101 OA 
HETATM   11  O   UNL     1      -6.002   5.019  68.129  1.00  0.00    -0.024 OA 
HETATM   12  C   UNL     1      -6.782   9.014  64.977  1.00  0.00    -0.069 A  
HETATM   13  C   UNL     1      -6.759   7.650  64.677  1.00  0.00    -0.050 A  
HETATM   14  S   UNL     1      -7.087   5.960  68.305  1.00  0.00    -0.079 S  
HETATM   15  C   UNL     1      -6.985   7.159  67.030  1.00  0.00    -0.077 A  
ENDROOT
BRANCH   3  16
HETATM   16  C   UNL     1      -7.558   8.833  71.081  1.00  0.00    -0.115 C  
BRANCH  16  17
HETATM   17  S   UNL     1      -8.887   8.252  72.221  1.00  0.00    -0.223 SA 
BRANCH  17  18
HETATM   18  C   UNL     1     -10.340   8.333  71.094  1.00  0.00    -0.202 C  
HETATM   19  F   UNL     1     -11.713   8.250  73.069  1.00  0.00    -0.451 F  
HETATM   20  C   UNL     1     -11.733   8.337  71.722  1.00  0.00    -0.302 C  
HETATM   21  F   UNL     1     -12.476   7.306  71.261  1.00  0.00    -0.338 F  
HETATM   22  F   UNL     1     -12.386   9.480  71.407  1.00  0.00    -0.337 F  
ENDBRANCH  17  18
ENDBRANCH  16  17
ENDBRANCH   3  16
BRANCH  13  23
HETATM   23  S   UNL     1      -6.570   7.043  63.031  1.00  0.00    -0.049 S  
HETATM   24  H2  UNL     1      -6.235   4.881  64.121  1.00  0.00     0.000 HD 
HETATM   25  H1  UNL     1      -6.177   5.053  62.295  1.00  0.00     0.000 HD 
HETATM   26  N   UNL     1      -6.286   5.404  63.247  1.00  0.00    -0.021 N  
HETATM   27  O   UNL     1      -7.822   7.174  62.331  1.00  0.00    -0.112 OA 
HETATM   28  O   UNL     1      -5.333   7.555  62.487  1.00  0.00    -0.044 OA 
ENDBRANCH  13  23
TORSDOF 4
ENDMDL
MODEL      172
REMARK 921   NORMALIZED FREE ENERGY PREDICTED BY IDOCK:   -2.18 KCAL/MOL
REMARK 922        TOTAL FREE ENERGY PREDICTED BY IDOCK:   -3.05 KCAL/MOL
REMARK 923 INTER-LIGAND FREE ENERGY PREDICTED BY IDOCK:   -3.31 KCAL/MOL
REMARK 924 INTRA-LIGAND FREE ENERGY PREDICTED BY IDOCK:    0.26 KCAL/MOL
REMARK 927      BINDING AFFINITY PREDICTED BY RF-SCORE:    0.00 PKD
ROOT
HETATM    1  C   UNL     1      -5.609   7.171  70.896  1.00  0.00    -0.027 C  
HETATM    2  N   UNL     1      -6.443   7.636  69.769  1.00  0.00    -0.031 N  
HETATM    3  C   UNL     1      -5.875   7.462  68.421  1.00  0.00    -0.023 C  
HETATM    4  N   UNL     1      -6.973   7.585  67.458  1.00  0.00    -0.077 NA 
HETATM    5 CL   UNL     1     -10.266  10.426  64.834  1.00  0.00    -0.389 Cl 
HETATM    6  C   UNL     1      -7.729   8.754  67.440  1.00  0.00    -0.097 A  
HETATM    7  C   UNL     1      -8.681  10.723  68.537  1.00  0.00    -0.149 A  
HETATM    8  H   UNL     1      -7.180   6.825  66.809  1.00  0.00     0.000 HD 
HETATM    9  C   UNL     1      -8.532   9.042  66.327  1.00  0.00    -0.132 A  
HETATM   10  O   UNL     1      -5.730  10.074  69.929  1.00  0.00    -0.040 OA 
HETATM   11  O   UNL     1      -7.816   9.303  71.120  1.00  0.00    -0.289 OA 
HETATM   12  C   UNL     1      -9.373  10.172  66.290  1.00  0.00    -0.172 A  
HETATM   13  C   UNL     1      -9.439  11.017  67.400  1.00  0.00    -0.160 A  
HETATM   14  S   UNL     1      -6.922   9.254  69.984  1.00  0.00    -0.070 S  
HETATM   15  C   UNL     1      -7.851   9.599  68.539  1.00  0.00    -0.085 A  
ENDROOT
BRANCH   3  16
HETATM   16  C   UNL     1      -5.202   6.075  68.218  1.00  0.00    -0.004 C  
BRANCH  16  17
HETATM   17  S   UNL     1      -6.229   4.722  68.937  1.00  0.00    -0.032 SA 
BRANCH  17  18
HETATM   18  C   UNL     1      -7.282   4.308  67.486  1.00  0.00    -0.068 C  
HETATM   19  F   UNL     1      -8.913   3.502  69.062  1.00  0.00    -0.118 F  
HETATM   20  C   UNL     1      -8.656   3.693  67.750  1.00  0.00    -0.099 C  
HETATM   21  F   UNL     1      -8.777   2.494  67.136  1.00  0.00    -0.094 F  
HETATM   22  F   UNL     1      -9.631   4.497  67.267  1.00  0.00    -0.151 F  
ENDBRANCH  17  18
ENDBRANCH  16  17
ENDBRANCH   3  16
BRANCH  13  23
HETATM   23  S   UNL     1     -10.486  12.436  67.450  1.00  0.00    -0.216 S  
HETATM   24  H2  UNL     1      -8.852  13.290  69.055  1.00  0.00     0.000 HD 
HETATM   25  H1  UNL     1     -10.323  14.273  68.571  1.00  0.00     0.000 HD 
HETATM   26  N   UNL     1      -9.718  13.453  68.542  1.00  0.00    -0.196 N  
HETATM   27  O   UNL     1     -10.463  13.089  66.167  1.00  0.00    -0.270 OA 
HETATM   28  O   UNL     1     -11.724  12.076  68.103  1.00  0.00    -0.320 OA 
ENDBRANCH  13  23
TORSDOF 4
ENDMDL
MODEL      173
REMARK 921   NORMALIZED FREE ENERGY PREDICTED BY IDOCK:   -0.64 KCAL/MOL
REMARK 922        TOTAL FREE ENERGY PREDICTED BY IDOCK:   -1.16 KCAL/MOL
REMARK 923 INTER-LIGAND FREE ENERGY PREDICTED BY IDOCK:   -3.06 KCAL/MOL
REMARK 924 INTRA-LIGAND FREE ENERGY PREDICTED BY IDOCK:    1.90 KCAL/MOL
REMARK 927      BINDING AFFINITY PREDICTED BY RF-SCORE:    0.00 PKD
ROOT
HETATM    1  C   UNL     1      -9.948  10.126  67.618  1.00  0.00    -0.181 C  
HETATM    2  N   UNL     1      -9.851  11.591  67.780  1.00  0.00    -0.174 N  
HETATM    3  C   UNL     1     -10.582  12.407  66.795  1.00  0.00    -0.226 C  
HETATM    4  N   UNL     1     -10.708  13.759  67.346  1.00  0.00    -0.273 NA 
HETATM    5 CL   UNL     1      -8.713  18.301  68.437  1.00  0.00    -0.317 Cl 
HETATM    6  C   UNL     1      -9.554  14.459  67.688  1.00  0.00    -0.214 A  
HETATM    7  C   UNL     1      -7.224  14.547  68.427  1.00  0.00    -0.116 A  
HETATM    8  H   UNL     1     -11.628  14.181  67.476  1.00  0.00     0.000 HD 
HETATM    9  C   UNL     1      -9.618  15.848  67.876  1.00  0.00    -0.215 A  
HETATM   10  O   UNL     1      -7.629  11.823  66.561  1.00  0.00    -0.064 OA 
HETATM   11  O   UNL     1      -7.655  11.574  69.071  1.00  0.00    -0.119 OA 
HETATM   12  C   UNL     1      -8.499  16.593  68.296  1.00  0.00    -0.203 A  
HETATM   13  C   UNL     1      -7.296  15.936  68.565  1.00  0.00    -0.127 A  
HETATM   14  S   UNL     1      -8.228  12.096  67.849  1.00  0.00    -0.166 S  
HETATM   15  C   UNL     1      -8.350  13.837  68.002  1.00  0.00    -0.171 A  
ENDROOT
BRANCH   3  16
HETATM   16  C   UNL     1     -12.009  11.867  66.497  1.00  0.00     0.125 C  
BRANCH  16  17
HETATM   17  S   UNL     1     -12.911  12.970  65.325  1.00  0.00     0.012 SA 
BRANCH  17  18
HETATM   18  C   UNL     1     -12.062  14.568  65.666  1.00  0.00    -0.293 C  
HETATM   19  F   UNL     1     -11.885  14.835  63.280  1.00  0.00     0.361 F  
HETATM   20  C   UNL     1     -11.614  15.409  64.472  1.00  0.00    -0.296 C  
HETATM   21  F   UNL     1     -10.283  15.642  64.514  1.00  0.00    -0.219 F  
HETATM   22  F   UNL     1     -12.236  16.611  64.485  1.00  0.00     0.299 F  
ENDBRANCH  17  18
ENDBRANCH  16  17
ENDBRANCH   3  16
BRANCH  13  23
HETATM   23  S   UNL     1      -5.855  16.786  69.122  1.00  0.00    -0.165 S  
HETATM   24  H2  UNL     1      -7.451  18.392  70.046  1.00  0.00     0.000 HD 
HETATM   25  H1  UNL     1      -5.641  18.621  70.238  1.00  0.00     0.000 HD 
HETATM   26  N   UNL     1      -6.474  18.129  69.916  1.00  0.00    -0.063 N  
HETATM   27  O   UNL     1      -5.178  15.981  70.105  1.00  0.00    -0.134 OA 
HETATM   28  O   UNL     1      -5.166  17.332  67.975  1.00  0.00    -0.117 OA 
ENDBRANCH  13  23
TORSDOF 4
ENDMDL
MODEL      174
REMARK 921   NORMALIZED FREE ENERGY PREDICTED BY IDOCK:    0.24 KCAL/MOL
REMARK 922        TOTAL FREE ENERGY PREDICTED BY IDOCK:   -0.07 KCAL/MOL
REMARK 923 INTER-LIGAND FREE ENERGY PREDICTED BY IDOCK:   -0.79 KCAL/MOL
REMARK 924 INTRA-LIGAND FREE ENERGY PREDICTED BY IDOCK:    0.72 KCAL/MOL
REMARK 927      BINDING AFFINITY PREDICTED BY RF-SCORE:    0.00 PKD
ROOT
HETATM    1  C   UNL     1     -11.358  12.590  62.922  1.00  0.00     0.519 C  
HETATM    2  N   UNL     1     -10.709  13.011  64.180  1.00  0.00    -0.408 N  
HETATM    3  C   UNL     1      -9.864  12.005  64.847  1.00  0.00    -0.175 C  
HETATM    4  N   UNL     1      -9.008  12.710  65.805  1.00  0.00    -0.307 NA 
HETATM    5 CL   UNL     1      -8.342  15.061  70.258  1.00  0.00     0.569 Cl 
HETATM    6  C   UNL     1      -9.600  13.481  66.802  1.00  0.00    -0.267 A  
HETATM    7  C   UNL     1     -11.427  14.865  67.659  1.00  0.00    -0.366 A  
HETATM    8  H   UNL     1      -7.992  12.638  65.742  1.00  0.00     0.000 HD 
HETATM    9  C   UNL     1      -8.844  13.868  67.919  1.00  0.00    -0.184 A  
HETATM   10  O   UNL     1     -12.722  12.540  65.664  1.00  0.00    -0.521 OA 
HETATM   11  O   UNL     1     -12.372  14.860  64.736  1.00  0.00    -0.355 OA 
HETATM   12  C   UNL     1      -9.372  14.709  68.917  1.00  0.00    -0.160 A  
HETATM   13  C   UNL     1     -10.672  15.201  68.787  1.00  0.00    -0.239 A  
HETATM   14  S   UNL     1     -11.846  13.628  65.284  1.00  0.00    -0.370 S  
HETATM   15  C   UNL     1     -10.877  14.022  66.689  1.00  0.00    -0.297 A  
ENDROOT
BRANCH   3  16
HETATM   16  C   UNL     1      -8.952  11.224  63.860  1.00  0.00     0.092 C  
BRANCH  16  17
HETATM   17  S   UNL     1      -7.309  10.858  64.615  1.00  0.00     0.631 SA 
BRANCH  17  18
HETATM   18  C   UNL     1      -7.374   9.020  64.659  1.00  0.00    -0.098 C  
HETATM   19  F   UNL     1      -7.977   9.114  62.331  1.00  0.00    -0.113 F  
HETATM   20  C   UNL     1      -7.725   8.285  63.366  1.00  0.00    -0.142 C  
HETATM   21  F   UNL     1      -8.816   7.503  63.533  1.00  0.00     0.265 F  
HETATM   22  F   UNL     1      -6.703   7.480  62.992  1.00  0.00    -0.058 F  
ENDBRANCH  17  18
ENDBRANCH  16  17
ENDBRANCH   3  16
BRANCH  13  23
HETATM   23  S   UNL     1     -11.401  16.282  69.975  1.00  0.00    -0.186 S  
HETATM   24  H2  UNL     1      -9.705  15.377  71.485  1.00  0.00     0.000 HD 
HETATM   25  H1  UNL     1     -10.913  16.638  72.047  1.00  0.00     0.000 HD 
HETATM   26  N   UNL     1     -10.492  16.014  71.360  1.00  0.00     0.915 N  
HETATM   27  O   UNL     1     -11.179  17.647  69.574  1.00  0.00     0.815 OA 
HETATM   28  O   UNL     1     -12.718  15.787  70.307  1.00  0.00    -0.353 OA 
ENDBRANCH  13  23
TORSDOF 4
ENDMDL
MODEL      175
REMARK 921   NORMALIZED FREE ENERGY PREDICTED BY IDOCK:    0.30 KCAL/MOL
REMARK 922        TOTAL FREE ENERGY PREDICTED BY IDOCK:    0.01 KCAL/MOL
REMARK 923 INTER-LIGAND FREE ENERGY PREDICTED BY IDOCK:   -2.89 KCAL/MOL
REMARK 924 INTRA-LIGAND FREE ENERGY PREDICTED BY IDOCK:    2.91 KCAL/MOL
REMARK 927      BINDING AFFINITY PREDICTED BY RF-SCORE:    0.00 PKD
ROOT
HETATM    1  C   UNL     1      -6.912  15.216  67.803  1.00  0.00    -0.170 C  
HETATM    2  N   UNL     1      -7.395  13.954  67.205  1.00  0.00    -0.090 N  
HETATM    3  C   UNL     1      -8.855  13.751  67.200  1.00  0.00    -0.231 C  
HETATM    4  N   UNL     1      -9.151  12.693  66.231  1.00  0.00    -0.423 NA 
HETATM    5 CL   UNL     1      -9.265   7.784  64.929  1.00  0.00     0.643 Cl 
HETATM    6  C   UNL     1      -8.560  11.442  66.394  1.00  0.00    -0.174 A  
HETATM    7  C   UNL     1      -6.744  10.001  67.174  1.00  0.00    -0.074 A  
HETATM    8  H   UNL     1      -9.782  12.869  65.448  1.00  0.00     0.000 HD 
HETATM    9  C   UNL     1      -9.085  10.335  65.711  1.00  0.00    -0.202 A  
HETATM   10  O   UNL     1      -7.046  12.545  69.295  1.00  0.00    -0.034 OA 
HETATM   11  O   UNL     1      -5.233  12.650  67.544  1.00  0.00    -0.114 OA 
HETATM   12  C   UNL     1      -8.480   9.065  65.781  1.00  0.00    -0.141 A  
HETATM   13  C   UNL     1      -7.308   8.900  66.523  1.00  0.00    -0.085 A  
HETATM   14  S   UNL     1      -6.633  12.607  67.910  1.00  0.00    -0.129 S  
HETATM   15  C   UNL     1      -7.372  11.246  67.090  1.00  0.00    -0.130 A  
ENDROOT
BRANCH   3  16
HETATM   16  C   UNL     1      -9.645  15.025  66.788  1.00  0.00    -0.245 C  
BRANCH  16  17
HETATM   17  S   UNL     1     -10.091  14.985  64.998  1.00  0.00    -0.126 SA 
BRANCH  17  18
HETATM   18  C   UNL     1     -11.627  13.974  65.069  1.00  0.00    -0.350 C  
HETATM   19  F   UNL     1     -11.242  13.789  67.438  1.00  0.00    -0.285 F  
HETATM   20  C   UNL     1     -12.077  13.450  66.432  1.00  0.00    -0.409 C  
HETATM   21  F   UNL     1     -12.176  12.102  66.425  1.00  0.00    -0.377 F  
HETATM   22  F   UNL     1     -13.298  13.945  66.744  1.00  0.00     0.467 F  
ENDBRANCH  17  18
ENDBRANCH  16  17
ENDBRANCH   3  16
BRANCH  13  23
HETATM   23  S   UNL     1      -6.470   7.352  66.641  1.00  0.00    -0.054 S  
HETATM   24  H2  UNL     1      -8.541   6.582  67.687  1.00  0.00     0.000 HD 
HETATM   25  H1  UNL     1      -7.112   5.456  67.447  1.00  0.00     0.000 HD 
HETATM   26  N   UNL     1      -7.596   6.351  67.379  1.00  0.00    -0.098 N  
HETATM   27  O   UNL     1      -6.239   6.835  65.317  1.00  0.00    -0.037 OA 
HETATM   28  O   UNL     1      -5.405   7.474  67.611  1.00  0.00    -0.027 OA 
ENDBRANCH  13  23
TORSDOF 4
ENDMDL
MODEL      176
REMARK 921   NORMALIZED FREE ENERGY PREDICTED BY IDOCK:    0.55 KCAL/MOL
REMARK 922        TOTAL FREE ENERGY PREDICTED BY IDOCK:    0.32 KCAL/MOL
REMARK 923 INTER-LIGAND FREE ENERGY PREDICTED BY IDOCK:    0.34 KCAL/MOL
REMARK 924 INTRA-LIGAND FREE ENERGY PREDICTED BY IDOCK:   -0.03 KCAL/MOL
REMARK 927      BINDING AFFINITY PREDICTED BY RF-SCORE:    0.00 PKD
ROOT
HETATM    1  C   UNL     1     -11.435  14.655  64.255  1.00  0.00    -0.161 C  
HETATM    2  N   UNL     1     -10.582  14.759  65.457  1.00  0.00    -0.333 N  
HETATM    3  C   UNL     1     -11.229  14.454  66.744  1.00  0.00    -0.337 C  
HETATM    4  N   UNL     1     -10.169  14.209  67.726  1.00  0.00    -0.240 NA 
HETATM    5 CL   UNL     1      -6.550  15.913  70.856  1.00  0.00     0.939 Cl 
HETATM    6  C   UNL     1      -9.224  15.204  67.963  1.00  0.00    -0.185 A  
HETATM    7  C   UNL     1      -7.900  17.134  67.251  1.00  0.00    -0.200 A  
HETATM    8  H   UNL     1     -10.124  13.322  68.228  1.00  0.00     0.000 HD 
HETATM    9  C   UNL     1      -8.431  15.144  69.119  1.00  0.00    -0.220 A  
HETATM   10  O   UNL     1     -10.856  17.274  65.732  1.00  0.00    -0.216 OA 
HETATM   11  O   UNL     1      -8.886  16.368  64.445  1.00  0.00     4.083 OA 
HETATM   12  C   UNL     1      -7.411  16.082  69.369  1.00  0.00    -0.212 A  
HETATM   13  C   UNL     1      -7.152  17.084  68.431  1.00  0.00    -0.188 A  
HETATM   14  S   UNL     1      -9.823  16.279  65.543  1.00  0.00     0.014 S  
HETATM   15  C   UNL     1      -8.911  16.193  67.037  1.00  0.00    -0.207 A  
ENDROOT
BRANCH   3  16
HETATM   16  C   UNL     1     -12.140  13.195  66.685  1.00  0.00    -0.346 C  
BRANCH  16  17
HETATM   17  S   UNL     1     -11.198  11.668  67.114  1.00  0.00    -0.304 SA 
BRANCH  17  18
HETATM   18  C   UNL     1     -11.274  10.777  65.505  1.00  0.00     0.385 C  
HETATM   19  F   UNL     1      -8.930  11.268  65.269  1.00  0.00    -0.198 F  
HETATM   20  C   UNL     1      -9.986  10.658  64.691  1.00  0.00    -0.337 C  
HETATM   21  F   UNL     1     -10.139  11.194  63.460  1.00  0.00    -0.285 F  
HETATM   22  F   UNL     1      -9.654   9.356  64.528  1.00  0.00    -0.279 F  
ENDBRANCH  17  18
ENDBRANCH  16  17
ENDBRANCH   3  16
BRANCH  13  23
HETATM   23  S   UNL     1      -5.875  18.281  68.650  1.00  0.00    -0.199 S  
HETATM   24  H2  UNL     1      -7.722  19.877  68.783  1.00  0.00     0.000 HD 
HETATM   25  H1  UNL     1      -5.975  20.418  68.934  1.00  0.00     0.000 HD 
HETATM   26  N   UNL     1      -6.713  19.726  68.808  1.00  0.00    -0.305 N  
HETATM   27  O   UNL     1      -5.204  18.036  69.900  1.00  0.00    -0.186 OA 
HETATM   28  O   UNL     1      -5.150  18.419  67.407  1.00  0.00    -0.139 OA 
ENDBRANCH  13  23
TORSDOF 4
ENDMDL
MODEL      177
REMARK 921   NORMALIZED FREE ENERGY PREDICTED BY IDOCK:    0.99 KCAL/MOL
REMARK 922        TOTAL FREE ENERGY PREDICTED BY IDOCK:    0.86 KCAL/MOL
REMARK 923 INTER-LIGAND FREE ENERGY PREDICTED BY IDOCK:   -2.32 KCAL/MOL
REMARK 924 INTRA-LIGAND FREE ENERGY PREDICTED BY IDOCK:    3.18 KCAL/MOL
REMARK 927      BINDING AFFINITY PREDICTED BY RF-SCORE:    0.00 PKD
ROOT
HETATM    1  C   UNL     1      -7.105  14.854  67.580  1.00  0.00    -0.186 C  
HETATM    2  N   UNL     1      -7.550  13.579  66.980  1.00  0.00     0.086 N  
HETATM    3  C   UNL     1      -9.005  13.357  66.925  1.00  0.00    -0.209 C  
HETATM    4  N   UNL     1      -9.253  12.284  65.958  1.00  0.00    -0.411 NA 
HETATM    5 CL   UNL     1      -9.255   7.361  64.706  1.00  0.00     0.890 Cl 
HETATM    6  C   UNL     1      -8.651  11.044  66.155  1.00  0.00    -0.175 A  
HETATM    7  C   UNL     1      -6.845   9.635  67.014  1.00  0.00    -0.084 A  
HETATM    8  H   UNL     1      -9.858  12.443  65.152  1.00  0.00     0.000 HD 
HETATM    9  C   UNL     1      -9.136   9.922  65.466  1.00  0.00    -0.232 A  
HETATM   10  O   UNL     1      -7.256  12.197  69.096  1.00  0.00    -0.075 OA 
HETATM   11  O   UNL     1      -5.384  12.309  67.409  1.00  0.00    -0.102 OA 
HETATM   12  C   UNL     1      -8.518   8.661  65.572  1.00  0.00    -0.165 A  
HETATM   13  C   UNL     1      -7.371   8.520  66.356  1.00  0.00    -0.080 A  
HETATM   14  S   UNL     1      -6.794  12.250  67.725  1.00  0.00    -0.124 S  
HETATM   15  C   UNL     1      -7.486  10.871  66.895  1.00  0.00    -0.128 A  
ENDROOT
BRANCH   3  16
HETATM   16  C   UNL     1      -9.797  14.615  66.471  1.00  0.00    -0.275 C  
BRANCH  16  17
HETATM   17  S   UNL     1      -9.686  15.963  67.726  1.00  0.00    -0.220 SA 
BRANCH  17  18
HETATM   18  C   UNL     1      -8.108  16.757  67.210  1.00  0.00    -0.177 C  
HETATM   19  F   UNL     1      -9.450  18.308  65.951  1.00  0.00    -0.240 F  
HETATM   20  C   UNL     1      -8.187  17.978  66.295  1.00  0.00    -0.208 C  
HETATM   21  F   UNL     1      -7.497  17.772  65.151  1.00  0.00     0.198 F  
HETATM   22  F   UNL     1      -7.645  19.058  66.906  1.00  0.00    -0.220 F  
ENDBRANCH  17  18
ENDBRANCH  16  17
ENDBRANCH   3  16
BRANCH  13  23
HETATM   23  S   UNL     1      -6.517   6.985  66.520  1.00  0.00    -0.052 S  
HETATM   24  H2  UNL     1      -6.407   7.058  64.080  1.00  0.00     0.000 HD 
HETATM   25  H1  UNL     1      -5.682   5.667  65.030  1.00  0.00     0.000 HD 
HETATM   26  N   UNL     1      -6.176   6.554  64.935  1.00  0.00    -0.037 N  
HETATM   27  O   UNL     1      -5.259   7.210  67.184  1.00  0.00    -0.012 OA 
HETATM   28  O   UNL     1      -7.452   5.980  66.974  1.00  0.00    -0.082 OA 
ENDBRANCH  13  23
TORSDOF 4
ENDMDL
MODEL      178
REMARK 921   NORMALIZED FREE ENERGY PREDICTED BY IDOCK:    1.58 KCAL/MOL
REMARK 922        TOTAL FREE ENERGY PREDICTED BY IDOCK:    1.59 KCAL/MOL
REMARK 923 INTER-LIGAND FREE ENERGY PREDICTED BY IDOCK:   -0.89 KCAL/MOL
REMARK 924 INTRA-LIGAND FREE ENERGY PREDICTED BY IDOCK:    2.48 KCAL/MOL
REMARK 927      BINDING AFFINITY PREDICTED BY RF-SCORE:    0.00 PKD
ROOT
HETATM    1  C   UNL     1      -9.173   9.545  68.306  1.00  0.00    -0.130 C  
HETATM    2  N   UNL     1      -9.185  10.980  67.953  1.00  0.00    -0.151 N  
HETATM    3  C   UNL     1      -9.688  11.319  66.611  1.00  0.00    -0.196 C  
HETATM    4  N   UNL     1     -10.008  12.749  66.605  1.00  0.00    -0.239 NA 
HETATM    5 CL   UNL     1      -8.554  17.612  66.414  1.00  0.00    -0.282 Cl 
HETATM    6  C   UNL     1      -9.007  13.666  66.915  1.00  0.00    -0.218 A  
HETATM    7  C   UNL     1      -6.937  14.296  68.058  1.00  0.00    -0.149 A  
HETATM    8  H   UNL     1     -10.950  13.068  66.376  1.00  0.00     0.000 HD 
HETATM    9  C   UNL     1      -9.179  15.018  66.580  1.00  0.00    -0.320 A  
HETATM   10  O   UNL     1      -6.744  11.077  67.239  1.00  0.00    -0.075 OA 
HETATM   11  O   UNL     1      -7.377  11.679  69.606  1.00  0.00     0.081 OA 
HETATM   12  C   UNL     1      -8.234  15.998  66.937  1.00  0.00    -0.242 A  
HETATM   13  C   UNL     1      -7.105  15.629  67.674  1.00  0.00    -0.168 A  
HETATM   14  S   UNL     1      -7.655  11.685  68.186  1.00  0.00    -0.123 S  
HETATM   15  C   UNL     1      -7.891  13.346  67.681  1.00  0.00    -0.173 A  
ENDROOT
BRANCH   3  16
HETATM   16  C   UNL     1     -10.972  10.530  66.225  1.00  0.00     0.101 C  
BRANCH  16  17
HETATM   17  S   UNL     1     -12.306  10.772  67.475  1.00  0.00     3.308 SA 
BRANCH  17  18
HETATM   18  C   UNL     1     -11.320  11.442  68.877  1.00  0.00    -0.270 C  
HETATM   19  F   UNL     1     -13.339  11.327  70.183  1.00  0.00     0.061 F  
HETATM   20  C   UNL     1     -12.028  11.649  70.216  1.00  0.00    -0.358 C  
HETATM   21  F   UNL     1     -11.938  12.937  70.618  1.00  0.00    -0.407 F  
HETATM   22  F   UNL     1     -11.454  10.884  71.173  1.00  0.00    -0.329 F  
ENDBRANCH  17  18
ENDBRANCH  16  17
ENDBRANCH   3  16
BRANCH  13  23
HETATM   23  S   UNL     1      -5.886  16.796  68.188  1.00  0.00    -0.123 S  
HETATM   24  H2  UNL     1      -7.809  18.199  68.746  1.00  0.00     0.000 HD 
HETATM   25  H1  UNL     1      -6.089  18.777  69.021  1.00  0.00     0.000 HD 
HETATM   26  N   UNL     1      -6.794  18.102  68.723  1.00  0.00    -0.252 N  
HETATM   27  O   UNL     1      -5.177  16.271  69.327  1.00  0.00    -0.110 OA 
HETATM   28  O   UNL     1      -5.195  17.292  67.019  1.00  0.00    -0.127 OA 
ENDBRANCH  13  23
TORSDOF 4
ENDMDL
MODEL      179
REMARK 921   NORMALIZED FREE ENERGY PREDICTED BY IDOCK:    3.11 KCAL/MOL
REMARK 922        TOTAL FREE ENERGY PREDICTED BY IDOCK:    3.47 KCAL/MOL
REMARK 923 INTER-LIGAND FREE ENERGY PREDICTED BY IDOCK:    2.05 KCAL/MOL
REMARK 924 INTRA-LIGAND FREE ENERGY PREDICTED BY IDOCK:    1.43 KCAL/MOL
REMARK 927      BINDING AFFINITY PREDICTED BY RF-SCORE:    0.00 PKD
ROOT
HETATM    1  C   UNL     1     -12.345  15.833  69.487  1.00  0.00    -0.060 C  
HETATM    2  N   UNL     1     -11.495  14.779  68.896  1.00  0.00    -0.282 N  
HETATM    3  C   UNL     1     -10.061  14.836  69.226  1.00  0.00    -0.157 C  
HETATM    4  N   UNL     1      -9.481  13.528  68.910  1.00  0.00    -0.402 NA 
HETATM    5 CL   UNL     1      -7.757  10.144  65.537  1.00  0.00    -0.139 Cl 
HETATM    6  C   UNL     1      -9.589  13.037  67.611  1.00  0.00    -0.206 A  
HETATM    7  C   UNL     1     -10.733  12.872  65.455  1.00  0.00    -0.301 A  
HETATM    8  H   UNL     1      -9.006  12.985  69.631  1.00  0.00     0.000 HD 
HETATM    9  C   UNL     1      -8.759  11.983  67.199  1.00  0.00    -0.183 A  
HETATM   10  O   UNL     1     -11.191  15.942  66.653  1.00  0.00    -0.129 OA 
HETATM   11  O   UNL     1     -13.041  14.252  66.941  1.00  0.00     0.615 OA 
HETATM   12  C   UNL     1      -8.878  11.399  65.923  1.00  0.00    -0.145 A  
HETATM   13  C   UNL     1      -9.867  11.854  65.048  1.00  0.00    -0.209 A  
HETATM   14  S   UNL     1     -11.693  14.704  67.208  1.00  0.00    -0.344 S  
HETATM   15  C   UNL     1     -10.584  13.436  66.726  1.00  0.00    -0.277 A  
ENDROOT
BRANCH   3  16
HETATM   16  C   UNL     1      -9.792  15.140  70.726  1.00  0.00     0.969 C  
BRANCH  16  17
HETATM   17  S   UNL     1      -8.301  16.206  70.937  1.00  0.00     4.461 SA 
BRANCH  17  18
HETATM   18  C   UNL     1      -7.424  15.852  69.358  1.00  0.00    -0.213 C  
HETATM   19  F   UNL     1      -9.020  17.305  68.294  1.00  0.00    -0.229 F  
HETATM   20  C   UNL     1      -7.935  16.529  68.087  1.00  0.00    -0.163 C  
HETATM   21  F   UNL     1      -8.265  15.613  67.149  1.00  0.00    -0.167 F  
HETATM   22  F   UNL     1      -6.973  17.322  67.559  1.00  0.00    -0.151 F  
ENDBRANCH  17  18
ENDBRANCH  16  17
ENDBRANCH   3  16
BRANCH  13  23
HETATM   23  S   UNL     1     -10.105  11.161  63.443  1.00  0.00    -0.391 S  
HETATM   24  H2  UNL     1      -9.174   9.134  64.442  1.00  0.00     0.000 HD 
HETATM   25  H1  UNL     1      -9.692   9.184  62.683  1.00  0.00     0.000 HD 
HETATM   26  N   UNL     1      -9.555   9.584  63.611  1.00  0.00     0.323 N  
HETATM   27  O   UNL     1     -11.515  11.095  63.158  1.00  0.00     0.065 OA 
HETATM   28  O   UNL     1      -9.168  11.774  62.529  1.00  0.00    -0.236 OA 
ENDBRANCH  13  23
TORSDOF 4
ENDMDL
MODEL      180
REMARK 921   NORMALIZED FREE ENERGY PREDICTED BY IDOCK:    3.34 KCAL/MOL
REMARK 922        TOTAL FREE ENERGY PREDICTED BY IDOCK:    3.75 KCAL/MOL
REMARK 923 INTER-LIGAND FREE ENERGY PREDICTED BY IDOCK:    2.22 KCAL/MOL
REMARK 924 INTRA-LIGAND FREE ENERGY PREDICTED BY IDOCK:    1.54 KCAL/MOL
REMARK 927      BINDING AFFINITY PREDICTED BY RF-SCORE:    0.00 PKD
ROOT
HETATM    1  C   UNL     1     -10.466  15.411  72.172  1.00  0.00     1.611 C  
HETATM    2  N   UNL     1     -11.055  14.848  70.939  1.00  0.00    -0.171 N  
HETATM    3  C   UNL     1     -11.548  13.462  71.026  1.00  0.00     0.818 C  
HETATM    4  N   UNL     1     -12.439  13.237  69.884  1.00  0.00    -0.131 NA 
HETATM    5 CL   UNL     1     -13.158  12.340  64.936  1.00  0.00     0.159 Cl 
HETATM    6  C   UNL     1     -11.945  13.421  68.595  1.00  0.00    -0.327 A  
HETATM    7  C   UNL     1     -10.428  14.487  66.998  1.00  0.00    -0.268 A  
HETATM    8  H   UNL     1     -13.406  12.949  70.032  1.00  0.00     0.000 HD 
HETATM    9  C   UNL     1     -12.644  12.884  67.503  1.00  0.00     0.902 A  
HETATM   10  O   UNL     1      -8.835  14.163  69.900  1.00  0.00     0.891 OA 
HETATM   11  O   UNL     1      -9.843  16.403  69.327  1.00  0.00    -0.259 OA 
HETATM   12  C   UNL     1     -12.229  13.105  66.176  1.00  0.00    -0.385 A  
HETATM   13  C   UNL     1     -11.111  13.905  65.927  1.00  0.00    -0.291 A  
HETATM   14  S   UNL     1      -9.987  14.995  69.624  1.00  0.00    -0.036 S  
HETATM   15  C   UNL     1     -10.860  14.242  68.305  1.00  0.00    -0.246 A  
ENDROOT
BRANCH   3  16
HETATM   16  C   UNL     1     -12.346  13.180  72.330  1.00  0.00     0.658 C  
BRANCH  16  17
HETATM   17  S   UNL     1     -14.150  13.479  72.088  1.00  0.00    -0.295 SA 
BRANCH  17  18
HETATM   18  C   UNL     1     -14.189  15.317  72.175  1.00  0.00    -0.571 C  
HETATM   19  F   UNL     1     -12.830  15.123  74.153  1.00  0.00    -0.587 F  
HETATM   20  C   UNL     1     -13.429  15.996  73.314  1.00  0.00    -0.484 C  
HETATM   21  F   UNL     1     -14.255  16.768  74.056  1.00  0.00     0.432 F  
HETATM   22  F   UNL     1     -12.460  16.800  72.817  1.00  0.00    -0.347 F  
ENDBRANCH  17  18
ENDBRANCH  16  17
ENDBRANCH   3  16
BRANCH  13  23
HETATM   23  S   UNL     1     -10.541  14.257  64.295  1.00  0.00     0.530 S  
HETATM   24  H2  UNL     1     -12.875  13.901  63.660  1.00  0.00     0.000 HD 
HETATM   25  H1  UNL     1     -11.598  14.331  62.415  1.00  0.00     0.000 HD 
HETATM   26  N   UNL     1     -11.927  14.128  63.358  1.00  0.00     0.171 N  
HETATM   27  O   UNL     1     -10.105  15.627  64.230  1.00  0.00     0.461 OA 
HETATM   28  O   UNL     1      -9.704  13.165  63.851  1.00  0.00    -0.018 OA 
ENDBRANCH  13  23
TORSDOF 4
ENDMDL
MODEL      181
REMARK 921   NORMALIZED FREE ENERGY PREDICTED BY IDOCK:   12.23 KCAL/MOL
REMARK 922        TOTAL FREE ENERGY PREDICTED BY IDOCK:   14.73 KCAL/MOL
REMARK 923 INTER-LIGAND FREE ENERGY PREDICTED BY IDOCK:   12.29 KCAL/MOL
REMARK 924 INTRA-LIGAND FREE ENERGY PREDICTED BY IDOCK:    2.44 KCAL/MOL
REMARK 927      BINDING AFFINITY PREDICTED BY RF-SCORE:    0.00 PKD
ROOT
HETATM    1  C   UNL     1     -11.156  14.264  64.330  1.00  0.00    -0.087 C  
HETATM    2  N   UNL     1     -10.671  14.325  65.724  1.00  0.00    -0.295 N  
HETATM    3  C   UNL     1     -10.189  13.059  66.303  1.00  0.00    -0.288 C  
HETATM    4  N   UNL     1      -9.391  13.389  67.487  1.00  0.00    -0.209 NA 
HETATM    5 CL   UNL     1      -9.063  14.818  72.351  1.00  0.00     5.760 Cl 
HETATM    6  C   UNL     1      -9.980  14.119  68.517  1.00  0.00    -0.235 A  
HETATM    7  C   UNL     1     -11.601  15.750  69.351  1.00  0.00    -0.371 A  
HETATM    8  H   UNL     1      -8.418  13.089  67.556  1.00  0.00     0.000 HD 
HETATM    9  C   UNL     1      -9.373  14.144  69.782  1.00  0.00     1.026 A  
HETATM   10  O   UNL     1     -12.972  14.125  66.793  1.00  0.00     0.197 OA 
HETATM   11  O   UNL     1     -11.984  16.409  66.375  1.00  0.00     1.248 OA 
HETATM   12  C   UNL     1      -9.885  14.925  70.836  1.00  0.00     1.463 A  
HETATM   13  C   UNL     1     -11.009  15.725  70.617  1.00  0.00    -0.320 A  
HETATM   14  S   UNL     1     -11.835  15.020  66.751  1.00  0.00     0.038 S  
HETATM   15  C   UNL     1     -11.074  14.958  68.328  1.00  0.00    -0.282 A  
ENDROOT
BRANCH   3  16
HETATM   16  C   UNL     1      -9.297  12.242  65.327  1.00  0.00     0.185 C  
BRANCH  16  17
HETATM   17  S   UNL     1      -7.842  11.517  66.198  1.00  0.00     0.229 SA 
BRANCH  17  18
HETATM   18  C   UNL     1      -8.665  10.163  67.133  1.00  0.00    -0.129 C  
HETATM   19  F   UNL     1     -10.704  10.816  66.033  1.00  0.00    -0.301 F  
HETATM   20  C   UNL     1     -10.159   9.940  66.904  1.00  0.00    -0.225 C  
HETATM   21  F   UNL     1     -10.848  10.041  68.062  1.00  0.00    -0.244 F  
HETATM   22  F   UNL     1     -10.377   8.699  66.408  1.00  0.00    -0.360 F  
ENDBRANCH  17  18
ENDBRANCH  16  17
ENDBRANCH   3  16
BRANCH  13  23
HETATM   23  S   UNL     1     -11.698  16.756  71.871  1.00  0.00     0.607 S  
HETATM   24  H2  UNL     1     -13.835  16.190  70.828  1.00  0.00     0.000 HD 
HETATM   25  H1  UNL     1     -13.745  17.296  72.290  1.00  0.00     0.000 HD 
HETATM   26  N   UNL     1     -13.347  16.700  71.565  1.00  0.00     2.716 N  
HETATM   27  O   UNL     1     -11.480  16.149  73.159  1.00  0.00    -0.121 OA 
HETATM   28  O   UNL     1     -11.328  18.127  71.600  1.00  0.00     2.285 OA 
ENDBRANCH  13  23
TORSDOF 4
ENDMDL
MODEL      182
REMARK 921   NORMALIZED FREE ENERGY PREDICTED BY IDOCK:   19.38 KCAL/MOL
REMARK 922        TOTAL FREE ENERGY PREDICTED BY IDOCK:   23.55 KCAL/MOL
REMARK 923 INTER-LIGAND FREE ENERGY PREDICTED BY IDOCK:   17.32 KCAL/MOL
REMARK 924 INTRA-LIGAND FREE ENERGY PREDICTED BY IDOCK:    6.23 KCAL/MOL
REMARK 927      BINDING AFFINITY PREDICTED BY RF-SCORE:    0.00 PKD
ROOT
HETATM    1  C   UNL     1      -7.043  15.149  67.777  1.00  0.00    -0.165 C  
HETATM    2  N   UNL     1      -8.097  14.247  67.268  1.00  0.00    -0.193 N  
HETATM    3  C   UNL     1      -9.479  14.752  67.338  1.00  0.00    -0.207 C  
HETATM    4  N   UNL     1     -10.296  13.933  66.439  1.00  0.00    -0.284 NA 
HETATM    5 CL   UNL     1     -12.772   9.621  65.399  1.00  0.00    12.175 Cl 
HETATM    6  C   UNL     1     -10.348  12.556  66.640  1.00  0.00    -0.227 A  
HETATM    7  C   UNL     1      -9.369  10.450  67.411  1.00  0.00    -0.162 A  
HETATM    8  H   UNL     1     -10.820  14.365  65.678  1.00  0.00     0.000 HD 
HETATM    9  C   UNL     1     -11.372  11.807  66.039  1.00  0.00    -0.335 A  
HETATM   10  O   UNL     1      -8.313  12.890  69.410  1.00  0.00     0.684 OA 
HETATM   11  O   UNL     1      -6.777  12.090  67.576  1.00  0.00    -0.094 OA 
HETATM   12  C   UNL     1     -11.427  10.404  66.148  1.00  0.00     1.188 A  
HETATM   13  C   UNL     1     -10.423   9.727  66.844  1.00  0.00    -0.211 A  
HETATM   14  S   UNL     1      -8.008  12.717  68.006  1.00  0.00    -0.173 S  
HETATM   15  C   UNL     1      -9.347  11.842  67.291  1.00  0.00    -0.177 A  
ENDROOT
BRANCH   3  16
HETATM   16  C   UNL     1      -9.608  16.237  66.897  1.00  0.00    -0.232 C  
BRANCH  16  17
HETATM   17  S   UNL     1      -9.921  16.371  65.084  1.00  0.00     0.613 SA 
BRANCH  17  18
HETATM   18  C   UNL     1     -11.158  15.026  64.867  1.00  0.00    -0.415 C  
HETATM   19  F   UNL     1      -9.809  14.257  63.028  1.00  0.00     4.576 F  
HETATM   20  C   UNL     1     -10.921  14.009  63.752  1.00  0.00     0.745 C  
HETATM   21  F   UNL     1     -11.965  13.980  62.892  1.00  0.00    -0.004 F  
HETATM   22  F   UNL     1     -10.789  12.765  64.271  1.00  0.00    -0.315 F  
ENDBRANCH  17  18
ENDBRANCH  16  17
ENDBRANCH   3  16
BRANCH  13  23
HETATM   23  S   UNL     1     -10.398   7.971  67.003  1.00  0.00    -0.340 S  
HETATM   24  H2  UNL     1      -9.793   8.429  69.327  1.00  0.00     0.000 HD 
HETATM   25  H1  UNL     1      -9.970   6.713  68.704  1.00  0.00     0.000 HD 
HETATM   26  N   UNL     1      -9.985   7.728  68.611  1.00  0.00    -0.177 N  
HETATM   27  O   UNL     1     -11.732   7.459  66.822  1.00  0.00     1.218 OA 
HETATM   28  O   UNL     1      -9.272   7.453  66.259  1.00  0.00    -0.169 OA 
ENDBRANCH  13  23
TORSDOF 4
ENDMDL
MODEL      183
REMARK 921   NORMALIZED FREE ENERGY PREDICTED BY IDOCK:   42.85 KCAL/MOL
REMARK 922        TOTAL FREE ENERGY PREDICTED BY IDOCK:   52.51 KCAL/MOL
REMARK 923 INTER-LIGAND FREE ENERGY PREDICTED BY IDOCK:   50.14 KCAL/MOL
REMARK 924 INTRA-LIGAND FREE ENERGY PREDICTED BY IDOCK:    2.36 KCAL/MOL
REMARK 927      BINDING AFFINITY PREDICTED BY RF-SCORE:    0.00 PKD
ROOT
HETATM    1  C   UNL     1      -9.124  16.069  73.053  1.00  0.00    12.757 C  
HETATM    2  N   UNL     1      -9.523  15.671  71.688  1.00  0.00     3.398 N  
HETATM    3  C   UNL     1      -9.572  14.224  71.417  1.00  0.00     5.148 C  
HETATM    4  N   UNL     1     -10.361  14.027  70.199  1.00  0.00     0.225 NA 
HETATM    5 CL   UNL     1     -10.813  14.178  65.141  1.00  0.00    -0.353 Cl 
HETATM    6  C   UNL     1      -9.956  14.654  69.023  1.00  0.00    -0.193 A  
HETATM    7  C   UNL     1      -8.847  16.474  67.820  1.00  0.00    -0.197 A  
HETATM    8  H   UNL     1     -11.194  13.438  70.211  1.00  0.00     0.000 HD 
HETATM    9  C   UNL     1     -10.468  14.214  67.792  1.00  0.00    -0.246 A  
HETATM   10  O   UNL     1      -7.208  15.947  70.667  1.00  0.00     0.986 OA 
HETATM   11  O   UNL     1      -8.853  17.857  70.563  1.00  0.00     3.241 OA 
HETATM   12  C   UNL     1     -10.151  14.861  66.583  1.00  0.00    -0.258 A  
HETATM   13  C   UNL     1      -9.330  15.992  66.601  1.00  0.00    -0.243 A  
HETATM   14  S   UNL     1      -8.560  16.441  70.516  1.00  0.00     3.358 S  
HETATM   15  C   UNL     1      -9.175  15.805  69.003  1.00  0.00    -0.243 A  
ENDROOT
BRANCH   3  16
HETATM   16  C   UNL     1     -10.235  13.412  72.565  1.00  0.00    11.523 C  
BRANCH  16  17
HETATM   17  S   UNL     1     -12.045  13.757  72.668  1.00  0.00     1.161 SA 
BRANCH  17  18
HETATM   18  C   UNL     1     -12.333  14.479  71.000  1.00  0.00    -0.347 C  
HETATM   19  F   UNL     1     -13.984  15.890  72.038  1.00  0.00    -0.516 F  
HETATM   20  C   UNL     1     -13.373  15.592  70.872  1.00  0.00    -0.353 C  
HETATM   21  F   UNL     1     -14.336  15.256  69.985  1.00  0.00     0.759 F  
HETATM   22  F   UNL     1     -12.790  16.729  70.426  1.00  0.00     1.419 F  
ENDBRANCH  17  18
ENDBRANCH  16  17
ENDBRANCH   3  16
BRANCH  13  23
HETATM   23  S   UNL     1      -8.907  16.879  65.137  1.00  0.00     2.943 S  
HETATM   24  H2  UNL     1     -10.818  18.286  65.723  1.00  0.00     0.000 HD 
HETATM   25  H1  UNL     1      -9.812  18.614  64.225  1.00  0.00     0.000 HD 
HETATM   26  N   UNL     1     -10.056  18.101  65.071  1.00  0.00     1.406 N  
HETATM   27  O   UNL     1      -7.624  17.507  65.316  1.00  0.00     0.176 OA 
HETATM   28  O   UNL     1      -9.198  16.049  63.990  1.00  0.00     4.596 OA 
ENDBRANCH  13  23
TORSDOF 4
ENDMDL
MODEL      184
REMARK 921   NORMALIZED FREE ENERGY PREDICTED BY IDOCK:   51.18 KCAL/MOL
REMARK 922        TOTAL FREE ENERGY PREDICTED BY IDOCK:   62.78 KCAL/MOL
REMARK 923 INTER-LIGAND FREE ENERGY PREDICTED BY IDOCK:   62.26 KCAL/MOL
REMARK 924 INTRA-LIGAND FREE ENERGY PREDICTED BY IDOCK:    0.52 KCAL/MOL
REMARK 927      BINDING AFFINITY PREDICTED BY RF-SCORE:    0.00 PKD
ROOT
HETATM    1  C   UNL     1      -9.337  18.614  63.823  1.00  0.00    13.809 C  
HETATM    2  N   UNL     1      -9.162  18.138  65.211  1.00  0.00     1.497 N  
HETATM    3  C   UNL     1      -9.252  16.682  65.419  1.00  0.00     0.772 C  
HETATM    4  N   UNL     1      -8.658  16.383  66.724  1.00  0.00    -0.210 NA 
HETATM    5 CL   UNL     1      -8.911  16.318  71.797  1.00  0.00     7.124 Cl 
HETATM    6  C   UNL     1      -9.179  16.996  67.861  1.00  0.00    -0.239 A  
HETATM    7  C   UNL     1     -10.317  18.849  68.982  1.00  0.00    -0.048 A  
HETATM    8  H   UNL     1      -7.873  15.735  66.799  1.00  0.00     0.000 HD 
HETATM    9  C   UNL     1      -8.877  16.475  69.128  1.00  0.00    -0.159 A  
HETATM   10  O   UNL     1     -11.572  18.550  65.916  1.00  0.00     1.189 OA 
HETATM   11  O   UNL     1      -9.830  20.326  66.332  1.00  0.00    -0.426 OA 
HETATM   12  C   UNL     1      -9.316  17.100  70.311  1.00  0.00     2.312 A  
HETATM   13  C   UNL     1     -10.045  18.289  70.233  1.00  0.00     1.554 A  
HETATM   14  S   UNL     1     -10.224  18.935  66.274  1.00  0.00    -0.446 S  
HETATM   15  C   UNL     1      -9.874  18.201  67.826  1.00  0.00    -0.310 A  
ENDROOT
BRANCH   3  16
HETATM   16  C   UNL     1      -8.491  15.865  64.337  1.00  0.00     8.884 C  
BRANCH  16  17
HETATM   17  S   UNL     1      -8.674  14.051  64.620  1.00  0.00     5.870 SA 
BRANCH  17  18
HETATM   18  C   UNL     1     -10.317  13.765  63.842  1.00  0.00     0.997 C  
HETATM   19  F   UNL     1     -11.175  13.464  66.071  1.00  0.00    -0.291 F  
HETATM   20  C   UNL     1     -11.506  13.489  64.762  1.00  0.00    -0.346 C  
HETATM   21  F   UNL     1     -12.082  12.302  64.467  1.00  0.00    -0.412 F  
HETATM   22  F   UNL     1     -12.450  14.448  64.608  1.00  0.00    -0.424 F  
ENDBRANCH  17  18
ENDBRANCH  16  17
ENDBRANCH   3  16
BRANCH  13  23
HETATM   23  S   UNL     1     -10.608  19.153  71.664  1.00  0.00     4.333 S  
HETATM   24  H2  UNL     1      -9.612  17.286  72.889  1.00  0.00     0.000 HD 
HETATM   25  H1  UNL     1     -10.442  18.671  73.761  1.00  0.00     0.000 HD 
HETATM   26  N   UNL     1     -10.116  18.172  72.934  1.00  0.00     5.861 N  
HETATM   27  O   UNL     1      -9.891  20.396  71.781  1.00  0.00     1.825 OA 
HETATM   28  O   UNL     1     -12.052  19.096  71.702  1.00  0.00     9.544 OA 
ENDBRANCH  13  23
TORSDOF 4
ENDMDL
