MODEL        1
REMARK 921   NORMALIZED FREE ENERGY PREDICTED BY IDOCK:   -7.83 KCAL/MOL
REMARK 922        TOTAL FREE ENERGY PREDICTED BY IDOCK:   -8.33 KCAL/MOL
REMARK 923 INTER-LIGAND FREE ENERGY PREDICTED BY IDOCK:   -8.29 KCAL/MOL
REMARK 924 INTRA-LIGAND FREE ENERGY PREDICTED BY IDOCK:   -0.04 KCAL/MOL
REMARK 927      BINDING AFFINITY PREDICTED BY RF-SCORE:    0.00 PKD
ROOT
HETATM    1  N   UNL     1     -12.519  14.190  63.583  1.00  0.00    -1.071 NA 
HETATM    2  C   UNL     1     -12.084  14.032  64.898  1.00  0.00    -0.420 A  
HETATM    3  H1  UNL     1     -12.385  15.079  63.102  1.00  0.00     0.000 HD 
HETATM    4  H2  UNL     1     -13.510  13.948  63.541  1.00  0.00     0.000 HD 
HETATM    5  C   UNL     1     -12.268  12.808  65.560  1.00  0.00    -0.519 A  
HETATM    6  C   UNL     1     -11.702  12.554  66.828  1.00  0.00    -0.453 A  
HETATM    7  C   UNL     1     -10.891  13.504  67.446  1.00  0.00    -0.279 A  
HETATM    8  C   UNL     1     -10.676  14.684  66.760  1.00  0.00    -0.301 A  
HETATM    9  C   UNL     1     -11.251  14.944  65.527  1.00  0.00    -0.348 A  
HETATM   10  C   UNL     1     -10.825  16.290  65.130  1.00  0.00    -0.318 C  
HETATM   11  N   UNL     1      -9.995  16.751  66.117  1.00  0.00    -0.320 N  
HETATM   12  O   UNL     1     -11.204  16.870  64.129  1.00  0.00    -1.176 OA 
HETATM   13  C   UNL     1      -9.858  15.836  67.123  1.00  0.00    -0.226 C  
HETATM   14  O   UNL     1      -9.216  15.922  68.150  1.00  0.00    -0.188 OA 
ENDROOT
BRANCH  11  15
HETATM   15  C   UNL     1      -9.288  18.021  66.113  1.00  0.00    -0.129 C  
HETATM   16  C   UNL     1      -7.792  17.922  66.396  1.00  0.00    -0.307 C  
HETATM   17  C   UNL     1      -7.167  19.293  66.174  1.00  0.00    -0.283 C  
HETATM   18  C   UNL     1      -7.847  20.356  67.012  1.00  0.00    -0.319 C  
HETATM   19  O   UNL     1      -7.257  21.360  67.398  1.00  0.00    -0.535 OA 
HETATM   20  N   UNL     1      -9.179  20.169  67.290  1.00  0.00    -0.364 N  
HETATM   21  H   UNL     1      -9.680  20.967  67.682  1.00  0.00     0.000 HD 
HETATM   22  C   UNL     1      -9.913  19.017  67.094  1.00  0.00    -0.338 C  
HETATM   23  O   UNL     1     -10.995  18.857  67.651  1.00  0.00    -0.392 OA 
ENDBRANCH  11  15
TORSDOF 1
ENDMDL
MODEL        2
REMARK 921   NORMALIZED FREE ENERGY PREDICTED BY IDOCK:   -7.43 KCAL/MOL
REMARK 922        TOTAL FREE ENERGY PREDICTED BY IDOCK:   -7.91 KCAL/MOL
REMARK 923 INTER-LIGAND FREE ENERGY PREDICTED BY IDOCK:   -7.96 KCAL/MOL
REMARK 924 INTRA-LIGAND FREE ENERGY PREDICTED BY IDOCK:    0.05 KCAL/MOL
REMARK 927      BINDING AFFINITY PREDICTED BY RF-SCORE:    0.00 PKD
ROOT
HETATM    1  N   UNL     1     -12.350  14.442  63.331  1.00  0.00    -1.088 NA 
HETATM    2  C   UNL     1     -12.111  14.040  64.644  1.00  0.00    -0.440 A  
HETATM    3  H1  UNL     1     -12.184  15.409  63.051  1.00  0.00     0.000 HD 
HETATM    4  H2  UNL     1     -13.311  14.198  63.090  1.00  0.00     0.000 HD 
HETATM    5  C   UNL     1     -12.339  12.710  65.028  1.00  0.00    -0.561 A  
HETATM    6  C   UNL     1     -11.960  12.225  66.298  1.00  0.00    -0.307 A  
HETATM    7  C   UNL     1     -11.293  13.051  67.202  1.00  0.00    -0.348 A  
HETATM    8  C   UNL     1     -11.030  14.343  66.792  1.00  0.00    -0.314 A  
HETATM    9  C   UNL     1     -11.424  14.827  65.556  1.00  0.00    -0.329 A  
HETATM   10  C   UNL     1     -11.002  16.230  65.489  1.00  0.00    -0.149 C  
HETATM   11  N   UNL     1     -10.352  16.505  66.663  1.00  0.00    -0.299 N  
HETATM   12  O   UNL     1     -11.251  16.986  64.568  1.00  0.00    -1.091 OA 
HETATM   13  C   UNL     1     -10.328  15.416  67.488  1.00  0.00    -0.264 C  
HETATM   14  O   UNL     1      -9.852  15.313  68.601  1.00  0.00    -0.199 OA 
ENDROOT
BRANCH  11  15
HETATM   15  C   UNL     1      -9.709  17.762  67.007  1.00  0.00    -0.290 C  
HETATM   16  C   UNL     1     -10.375  19.004  66.423  1.00  0.00    -0.520 C  
HETATM   17  C   UNL     1      -9.708  20.236  67.020  1.00  0.00    -0.598 C  
HETATM   18  C   UNL     1      -8.210  20.221  66.792  1.00  0.00    -0.264 C  
HETATM   19  O   UNL     1      -7.552  21.253  66.706  1.00  0.00    -0.123 OA 
HETATM   20  N   UNL     1      -7.605  18.989  66.729  1.00  0.00    -0.226 N  
HETATM   21  H   UNL     1      -6.586  18.979  66.771  1.00  0.00     0.000 HD 
HETATM   22  C   UNL     1      -8.229  17.764  66.615  1.00  0.00    -0.259 C  
HETATM   23  O   UNL     1      -7.603  16.769  66.260  1.00  0.00    -0.291 OA 
ENDBRANCH  11  15
TORSDOF 1
ENDMDL
MODEL        3
REMARK 921   NORMALIZED FREE ENERGY PREDICTED BY IDOCK:   -7.30 KCAL/MOL
REMARK 922        TOTAL FREE ENERGY PREDICTED BY IDOCK:   -7.77 KCAL/MOL
REMARK 923 INTER-LIGAND FREE ENERGY PREDICTED BY IDOCK:   -7.75 KCAL/MOL
REMARK 924 INTRA-LIGAND FREE ENERGY PREDICTED BY IDOCK:   -0.02 KCAL/MOL
REMARK 927      BINDING AFFINITY PREDICTED BY RF-SCORE:    0.00 PKD
ROOT
HETATM    1  N   UNL     1     -12.451  14.067  63.177  1.00  0.00    -1.070 NA 
HETATM    2  C   UNL     1     -11.776  13.644  64.321  1.00  0.00    -0.403 A  
HETATM    3  H1  UNL     1     -12.495  15.059  62.944  1.00  0.00     0.000 HD 
HETATM    4  H2  UNL     1     -13.403  13.701  63.211  1.00  0.00     0.000 HD 
HETATM    5  C   UNL     1     -11.715  12.279  64.641  1.00  0.00    -0.420 A  
HETATM    6  C   UNL     1     -10.911  11.796  65.696  1.00  0.00    -0.348 A  
HETATM    7  C   UNL     1     -10.105  12.666  66.429  1.00  0.00    -0.263 A  
HETATM    8  C   UNL     1     -10.137  13.999  66.071  1.00  0.00    -0.327 A  
HETATM    9  C   UNL     1     -10.944  14.477  65.052  1.00  0.00    -0.408 A  
HETATM   10  C   UNL     1     -10.734  15.927  64.983  1.00  0.00    -0.404 C  
HETATM   11  N   UNL     1      -9.795  16.238  65.930  1.00  0.00    -0.333 N  
HETATM   12  O   UNL     1     -11.341  16.681  64.245  1.00  0.00    -1.116 OA 
HETATM   13  C   UNL     1      -9.390  15.127  66.616  1.00  0.00    -0.267 C  
HETATM   14  O   UNL     1      -8.589  15.042  67.525  1.00  0.00    -0.162 OA 
ENDROOT
BRANCH  11  15
HETATM   15  C   UNL     1      -9.233  17.556  66.175  1.00  0.00    -0.135 C  
HETATM   16  C   UNL     1      -7.711  17.625  66.111  1.00  0.00    -0.293 C  
HETATM   17  C   UNL     1      -7.290  19.087  66.199  1.00  0.00    -0.294 C  
HETATM   18  C   UNL     1      -7.849  19.752  67.440  1.00  0.00    -0.276 C  
HETATM   19  O   UNL     1      -7.283  20.692  67.989  1.00  0.00    -0.249 OA 
HETATM   20  N   UNL     1      -9.054  19.283  67.905  1.00  0.00    -0.305 N  
HETATM   21  H   UNL     1      -9.521  19.849  68.614  1.00  0.00     0.000 HD 
HETATM   22  C   UNL     1      -9.699  18.127  67.517  1.00  0.00    -0.303 C  
HETATM   23  O   UNL     1     -10.598  17.647  68.201  1.00  0.00    -0.376 OA 
ENDBRANCH  11  15
TORSDOF 1
ENDMDL
MODEL        4
REMARK 921   NORMALIZED FREE ENERGY PREDICTED BY IDOCK:   -7.26 KCAL/MOL
REMARK 922        TOTAL FREE ENERGY PREDICTED BY IDOCK:   -7.73 KCAL/MOL
REMARK 923 INTER-LIGAND FREE ENERGY PREDICTED BY IDOCK:   -7.75 KCAL/MOL
REMARK 924 INTRA-LIGAND FREE ENERGY PREDICTED BY IDOCK:    0.02 KCAL/MOL
REMARK 927      BINDING AFFINITY PREDICTED BY RF-SCORE:    0.00 PKD
ROOT
HETATM    1  N   UNL     1      -9.997   8.324  68.444  1.00  0.00    -0.184 NA 
HETATM    2  C   UNL     1     -10.825   9.253  69.072  1.00  0.00    -0.111 A  
HETATM    3  H1  UNL     1      -9.671   8.488  67.491  1.00  0.00     0.000 HD 
HETATM    4  H2  UNL     1     -10.455   7.413  68.475  1.00  0.00     0.000 HD 
HETATM    5  C   UNL     1     -11.272   9.027  70.384  1.00  0.00    -0.275 A  
HETATM    6  C   UNL     1     -11.974  10.011  71.111  1.00  0.00    -0.484 A  
HETATM    7  C   UNL     1     -12.205  11.271  70.561  1.00  0.00    -0.474 A  
HETATM    8  C   UNL     1     -11.716  11.497  69.289  1.00  0.00    -0.397 A  
HETATM    9  C   UNL     1     -11.047  10.523  68.565  1.00  0.00    -0.329 A  
HETATM   10  C   UNL     1     -10.709  11.112  67.265  1.00  0.00    -0.258 C  
HETATM   11  N   UNL     1     -11.155  12.407  67.287  1.00  0.00    -0.266 N  
HETATM   12  O   UNL     1     -10.180  10.511  66.348  1.00  0.00    -0.226 OA 
HETATM   13  C   UNL     1     -11.765  12.705  68.474  1.00  0.00    -0.330 C  
HETATM   14  O   UNL     1     -12.283  13.746  68.824  1.00  0.00    -0.350 OA 
ENDROOT
BRANCH  11  15
HETATM   15  C   UNL     1     -10.979  13.388  66.229  1.00  0.00    -0.288 C  
HETATM   16  C   UNL     1     -10.667  14.801  66.712  1.00  0.00    -0.309 C  
HETATM   17  C   UNL     1     -10.328  15.661  65.501  1.00  0.00    -0.421 C  
HETATM   18  C   UNL     1     -11.439  15.632  64.472  1.00  0.00    -0.300 C  
HETATM   19  O   UNL     1     -11.647  16.570  63.709  1.00  0.00    -1.109 OA 
HETATM   20  N   UNL     1     -12.185  14.481  64.396  1.00  0.00    -0.581 N  
HETATM   21  H   UNL     1     -12.796  14.386  63.585  1.00  0.00     0.000 HD 
HETATM   22  C   UNL     1     -12.196  13.440  65.301  1.00  0.00    -0.440 C  
HETATM   23  O   UNL     1     -13.108  12.617  65.304  1.00  0.00    -0.611 OA 
ENDBRANCH  11  15
TORSDOF 1
ENDMDL
MODEL        5
REMARK 921   NORMALIZED FREE ENERGY PREDICTED BY IDOCK:   -7.20 KCAL/MOL
REMARK 922        TOTAL FREE ENERGY PREDICTED BY IDOCK:   -7.66 KCAL/MOL
REMARK 923 INTER-LIGAND FREE ENERGY PREDICTED BY IDOCK:   -7.74 KCAL/MOL
REMARK 924 INTRA-LIGAND FREE ENERGY PREDICTED BY IDOCK:    0.07 KCAL/MOL
REMARK 927      BINDING AFFINITY PREDICTED BY RF-SCORE:    0.00 PKD
ROOT
HETATM    1  N   UNL     1     -13.220  12.298  71.589  1.00  0.00    -0.351 NA 
HETATM    2  C   UNL     1     -12.334  11.450  70.925  1.00  0.00    -0.381 A  
HETATM    3  H1  UNL     1     -13.344  13.259  71.272  1.00  0.00     0.000 HD 
HETATM    4  H2  UNL     1     -12.970  12.314  72.577  1.00  0.00     0.000 HD 
HETATM    5  C   UNL     1     -12.163  10.126  71.361  1.00  0.00    -0.492 A  
HETATM    6  C   UNL     1     -11.402   9.193  70.625  1.00  0.00    -0.323 A  
HETATM    7  C   UNL     1     -10.832   9.547  69.404  1.00  0.00    -0.226 A  
HETATM    8  C   UNL     1     -11.050  10.837  68.963  1.00  0.00    -0.308 A  
HETATM    9  C   UNL     1     -11.776  11.762  69.695  1.00  0.00    -0.413 A  
HETATM   10  C   UNL     1     -11.768  13.015  68.933  1.00  0.00    -0.328 C  
HETATM   11  N   UNL     1     -11.076  12.772  67.776  1.00  0.00    -0.241 N  
HETATM   12  O   UNL     1     -12.252  14.064  69.318  1.00  0.00    -0.344 OA 
HETATM   13  C   UNL     1     -10.621  11.484  67.727  1.00  0.00    -0.192 C  
HETATM   14  O   UNL     1      -9.965  10.940  66.863  1.00  0.00    -0.184 OA 
ENDROOT
BRANCH  11  15
HETATM   15  C   UNL     1     -10.872  13.716  66.690  1.00  0.00    -0.283 C  
HETATM   16  C   UNL     1     -10.787  15.177  67.119  1.00  0.00    -0.320 C  
HETATM   17  C   UNL     1     -10.388  16.013  65.910  1.00  0.00    -0.386 C  
HETATM   18  C   UNL     1     -11.341  15.804  64.752  1.00  0.00    -0.314 C  
HETATM   19  O   UNL     1     -11.549  16.673  63.911  1.00  0.00    -1.204 OA 
HETATM   20  N   UNL     1     -11.937  14.570  64.654  1.00  0.00    -0.448 N  
HETATM   21  H   UNL     1     -12.420  14.364  63.779  1.00  0.00     0.000 HD 
HETATM   22  C   UNL     1     -11.952  13.578  65.613  1.00  0.00    -0.397 C  
HETATM   23  O   UNL     1     -12.757  12.654  65.552  1.00  0.00    -0.597 OA 
ENDBRANCH  11  15
TORSDOF 1
ENDMDL
MODEL        6
REMARK 921   NORMALIZED FREE ENERGY PREDICTED BY IDOCK:   -7.14 KCAL/MOL
REMARK 922        TOTAL FREE ENERGY PREDICTED BY IDOCK:   -7.60 KCAL/MOL
REMARK 923 INTER-LIGAND FREE ENERGY PREDICTED BY IDOCK:   -7.45 KCAL/MOL
REMARK 924 INTRA-LIGAND FREE ENERGY PREDICTED BY IDOCK:   -0.15 KCAL/MOL
REMARK 927      BINDING AFFINITY PREDICTED BY RF-SCORE:    0.00 PKD
ROOT
HETATM    1  N   UNL     1     -12.792  11.644  71.494  1.00  0.00    -0.401 NA 
HETATM    2  C   UNL     1     -12.692  13.013  71.250  1.00  0.00    -0.293 A  
HETATM    3  H1  UNL     1     -12.723  10.979  70.724  1.00  0.00     0.000 HD 
HETATM    4  H2  UNL     1     -13.665  11.469  71.992  1.00  0.00     0.000 HD 
HETATM    5  C   UNL     1     -12.787  13.928  72.310  1.00  0.00    -0.385 A  
HETATM    6  C   UNL     1     -12.532  15.304  72.131  1.00  0.00    -0.434 A  
HETATM    7  C   UNL     1     -12.125  15.795  70.892  1.00  0.00    -0.459 A  
HETATM    8  C   UNL     1     -11.986  14.876  69.870  1.00  0.00    -0.376 A  
HETATM    9  C   UNL     1     -12.260  13.529  70.038  1.00  0.00    -0.381 A  
HETATM   10  C   UNL     1     -12.032  12.880  68.743  1.00  0.00    -0.253 C  
HETATM   11  N   UNL     1     -11.602  13.853  67.881  1.00  0.00    -0.322 N  
HETATM   12  O   UNL     1     -12.247  11.704  68.509  1.00  0.00    -0.485 OA 
HETATM   13  C   UNL     1     -11.547  15.074  68.493  1.00  0.00    -0.326 C  
HETATM   14  O   UNL     1     -11.228  16.148  68.025  1.00  0.00    -0.348 OA 
ENDROOT
BRANCH  11  15
HETATM   15  C   UNL     1     -11.196  13.651  66.500  1.00  0.00    -0.310 C  
HETATM   16  C   UNL     1     -12.217  12.922  65.633  1.00  0.00    -0.519 C  
HETATM   17  C   UNL     1     -11.733  12.954  64.188  1.00  0.00    -0.468 C  
HETATM   18  C   UNL     1     -10.341  12.374  64.056  1.00  0.00    -0.409 C  
HETATM   19  O   UNL     1      -9.953  11.835  63.025  1.00  0.00    -0.396 OA 
HETATM   20  N   UNL     1      -9.504  12.517  65.136  1.00  0.00    -0.443 N  
HETATM   21  H   UNL     1      -8.518  12.305  64.981  1.00  0.00     0.000 HD 
HETATM   22  C   UNL     1      -9.855  12.918  66.409  1.00  0.00    -0.268 C  
HETATM   23  O   UNL     1      -9.106  12.719  67.361  1.00  0.00    -0.177 OA 
ENDBRANCH  11  15
TORSDOF 1
ENDMDL
MODEL        7
REMARK 921   NORMALIZED FREE ENERGY PREDICTED BY IDOCK:   -7.13 KCAL/MOL
REMARK 922        TOTAL FREE ENERGY PREDICTED BY IDOCK:   -7.59 KCAL/MOL
REMARK 923 INTER-LIGAND FREE ENERGY PREDICTED BY IDOCK:   -7.47 KCAL/MOL
REMARK 924 INTRA-LIGAND FREE ENERGY PREDICTED BY IDOCK:   -0.12 KCAL/MOL
REMARK 927      BINDING AFFINITY PREDICTED BY RF-SCORE:    0.00 PKD
ROOT
HETATM    1  N   UNL     1     -10.110  13.053  68.611  1.00  0.00    -0.388 NA 
HETATM    2  C   UNL     1     -10.670  13.383  67.377  1.00  0.00    -0.262 A  
HETATM    3  H1  UNL     1      -9.372  13.632  69.011  1.00  0.00     0.000 HD 
HETATM    4  H2  UNL     1      -9.775  12.091  68.565  1.00  0.00     0.000 HD 
HETATM    5  C   UNL     1     -11.686  12.587  66.827  1.00  0.00    -0.453 A  
HETATM    6  C   UNL     1     -12.387  12.973  65.665  1.00  0.00    -0.504 A  
HETATM    7  C   UNL     1     -12.123  14.195  65.049  1.00  0.00    -0.428 A  
HETATM    8  C   UNL     1     -11.156  14.992  65.630  1.00  0.00    -0.349 A  
HETATM    9  C   UNL     1     -10.450  14.603  66.757  1.00  0.00    -0.277 A  
HETATM   10  C   UNL     1      -9.501  15.679  67.060  1.00  0.00    -0.224 C  
HETATM   11  N   UNL     1      -9.708  16.665  66.132  1.00  0.00    -0.301 N  
HETATM   12  O   UNL     1      -8.668  15.639  67.947  1.00  0.00    -0.164 OA 
HETATM   13  C   UNL     1     -10.690  16.319  65.247  1.00  0.00    -0.332 C  
HETATM   14  O   UNL     1     -11.114  16.945  64.296  1.00  0.00    -1.135 OA 
ENDROOT
BRANCH  11  15
HETATM   15  C   UNL     1      -9.030  17.950  66.087  1.00  0.00    -0.095 C  
HETATM   16  C   UNL     1      -7.521  17.886  66.303  1.00  0.00    -0.321 C  
HETATM   17  C   UNL     1      -6.938  19.269  66.042  1.00  0.00    -0.283 C  
HETATM   18  C   UNL     1      -7.602  20.323  66.903  1.00  0.00    -0.299 C  
HETATM   19  O   UNL     1      -7.018  21.343  67.254  1.00  0.00    -0.573 OA 
HETATM   20  N   UNL     1      -8.916  20.109  67.242  1.00  0.00    -0.344 N  
HETATM   21  H   UNL     1      -9.417  20.899  67.651  1.00  0.00     0.000 HD 
HETATM   22  C   UNL     1      -9.632  18.940  67.088  1.00  0.00    -0.306 C  
HETATM   23  O   UNL     1     -10.685  18.761  67.695  1.00  0.00    -0.429 OA 
ENDBRANCH  11  15
TORSDOF 1
ENDMDL
MODEL        8
REMARK 921   NORMALIZED FREE ENERGY PREDICTED BY IDOCK:   -7.11 KCAL/MOL
REMARK 922        TOTAL FREE ENERGY PREDICTED BY IDOCK:   -7.56 KCAL/MOL
REMARK 923 INTER-LIGAND FREE ENERGY PREDICTED BY IDOCK:   -7.58 KCAL/MOL
REMARK 924 INTRA-LIGAND FREE ENERGY PREDICTED BY IDOCK:    0.01 KCAL/MOL
REMARK 927      BINDING AFFINITY PREDICTED BY RF-SCORE:    0.00 PKD
ROOT
HETATM    1  N   UNL     1      -9.602   7.577  65.994  1.00  0.00    -0.427 NA 
HETATM    2  C   UNL     1     -10.187   8.315  67.022  1.00  0.00    -0.310 A  
HETATM    3  H1  UNL     1      -9.502   7.984  65.064  1.00  0.00     0.000 HD 
HETATM    4  H2  UNL     1     -10.105   6.694  65.906  1.00  0.00     0.000 HD 
HETATM    5  C   UNL     1     -10.325   7.754  68.302  1.00  0.00    -0.239 A  
HETATM    6  C   UNL     1     -10.761   8.518  69.406  1.00  0.00    -0.166 A  
HETATM    7  C   UNL     1     -11.023   9.880  69.268  1.00  0.00    -0.244 A  
HETATM    8  C   UNL     1     -10.834  10.429  68.015  1.00  0.00    -0.319 A  
HETATM    9  C   UNL     1     -10.430   9.676  66.925  1.00  0.00    -0.282 A  
HETATM   10  C   UNL     1     -10.369  10.583  65.775  1.00  0.00    -0.200 C  
HETATM   11  N   UNL     1     -10.701  11.830  66.235  1.00  0.00    -0.260 N  
HETATM   12  O   UNL     1     -10.118  10.241  64.634  1.00  0.00    -0.345 OA 
HETATM   13  C   UNL     1     -10.987  11.810  67.572  1.00  0.00    -0.256 C  
HETATM   14  O   UNL     1     -11.330  12.725  68.292  1.00  0.00    -0.255 OA 
ENDROOT
BRANCH  11  15
HETATM   15  C   UNL     1     -10.710  13.054  65.451  1.00  0.00    -0.291 C  
HETATM   16  C   UNL     1     -10.183  14.286  66.181  1.00  0.00    -0.317 C  
HETATM   17  C   UNL     1     -10.081  15.432  65.183  1.00  0.00    -0.299 C  
HETATM   18  C   UNL     1     -11.405  15.688  64.494  1.00  0.00    -0.320 C  
HETATM   19  O   UNL     1     -11.719  16.796  64.071  1.00  0.00    -1.120 OA 
HETATM   20  N   UNL     1     -12.234  14.606  64.320  1.00  0.00    -0.702 N  
HETATM   21  H   UNL     1     -13.028  14.735  63.693  1.00  0.00     0.000 HD 
HETATM   22  C   UNL     1     -12.106  13.362  64.904  1.00  0.00    -0.392 C  
HETATM   23  O   UNL     1     -13.051  12.578  64.928  1.00  0.00    -0.833 OA 
ENDBRANCH  11  15
TORSDOF 1
ENDMDL
MODEL        9
REMARK 921   NORMALIZED FREE ENERGY PREDICTED BY IDOCK:   -7.01 KCAL/MOL
REMARK 922        TOTAL FREE ENERGY PREDICTED BY IDOCK:   -7.46 KCAL/MOL
REMARK 923 INTER-LIGAND FREE ENERGY PREDICTED BY IDOCK:   -7.31 KCAL/MOL
REMARK 924 INTRA-LIGAND FREE ENERGY PREDICTED BY IDOCK:   -0.14 KCAL/MOL
REMARK 927      BINDING AFFINITY PREDICTED BY RF-SCORE:    0.00 PKD
ROOT
HETATM    1  N   UNL     1      -9.887  11.383  66.379  1.00  0.00    -0.206 NA 
HETATM    2  C   UNL     1     -10.502  12.103  65.356  1.00  0.00    -0.270 A  
HETATM    3  H1  UNL     1      -9.270  11.855  67.040  1.00  0.00     0.000 HD 
HETATM    4  H2  UNL     1      -9.377  10.604  65.962  1.00  0.00     0.000 HD 
HETATM    5  C   UNL     1     -11.352  11.453  64.447  1.00  0.00    -0.214 A  
HETATM    6  C   UNL     1     -12.117  12.168  63.501  1.00  0.00    -0.649 A  
HETATM    7  C   UNL     1     -12.089  13.561  63.472  1.00  0.00    -0.425 A  
HETATM    8  C   UNL     1     -11.287  14.190  64.405  1.00  0.00    -0.310 A  
HETATM    9  C   UNL     1     -10.517  13.489  65.318  1.00  0.00    -0.345 A  
HETATM   10  C   UNL     1      -9.787  14.480  66.114  1.00  0.00    -0.318 C  
HETATM   11  N   UNL     1     -10.178  15.715  65.668  1.00  0.00    -0.348 N  
HETATM   12  O   UNL     1      -8.958  14.212  66.965  1.00  0.00    -0.220 OA 
HETATM   13  C   UNL     1     -11.080  15.613  64.646  1.00  0.00    -0.373 C  
HETATM   14  O   UNL     1     -11.617  16.499  64.012  1.00  0.00    -1.154 OA 
ENDROOT
BRANCH  11  15
HETATM   15  C   UNL     1      -9.754  16.993  66.214  1.00  0.00    -0.283 C  
HETATM   16  C   UNL     1      -8.243  17.191  66.282  1.00  0.00    -0.306 C  
HETATM   17  C   UNL     1      -7.963  18.630  66.694  1.00  0.00    -0.280 C  
HETATM   18  C   UNL     1      -8.652  18.980  67.996  1.00  0.00    -0.302 C  
HETATM   19  O   UNL     1      -8.207  19.826  68.764  1.00  0.00    -0.291 OA 
HETATM   20  N   UNL     1      -9.834  18.333  68.265  1.00  0.00    -0.330 N  
HETATM   21  H   UNL     1     -10.392  18.703  69.035  1.00  0.00     0.000 HD 
HETATM   22  C   UNL     1     -10.348  17.237  67.604  1.00  0.00    -0.350 C  
HETATM   23  O   UNL     1     -11.238  16.557  68.108  1.00  0.00    -0.341 OA 
ENDBRANCH  11  15
TORSDOF 1
ENDMDL
MODEL       10
REMARK 921   NORMALIZED FREE ENERGY PREDICTED BY IDOCK:   -6.94 KCAL/MOL
REMARK 922        TOTAL FREE ENERGY PREDICTED BY IDOCK:   -7.39 KCAL/MOL
REMARK 923 INTER-LIGAND FREE ENERGY PREDICTED BY IDOCK:   -7.26 KCAL/MOL
REMARK 924 INTRA-LIGAND FREE ENERGY PREDICTED BY IDOCK:   -0.13 KCAL/MOL
REMARK 927      BINDING AFFINITY PREDICTED BY RF-SCORE:    0.00 PKD
ROOT
HETATM    1  N   UNL     1     -11.888  10.166  70.069  1.00  0.00    -0.413 NA 
HETATM    2  C   UNL     1     -11.146   9.596  69.036  1.00  0.00    -0.070 A  
HETATM    3  H1  UNL     1     -12.103  11.163  70.057  1.00  0.00     0.000 HD 
HETATM    4  H2  UNL     1     -11.428   9.947  70.954  1.00  0.00     0.000 HD 
HETATM    5  C   UNL     1     -10.851   8.223  69.053  1.00  0.00    -0.012 A  
HETATM    6  C   UNL     1     -10.246   7.578  67.953  1.00  0.00    -0.245 A  
HETATM    7  C   UNL     1      -9.965   8.283  66.784  1.00  0.00    -0.355 A  
HETATM    8  C   UNL     1     -10.307   9.620  66.762  1.00  0.00    -0.292 A  
HETATM    9  C   UNL     1     -10.878  10.260  67.849  1.00  0.00    -0.337 A  
HETATM   10  C   UNL     1     -11.069  11.664  67.470  1.00  0.00    -0.276 C  
HETATM   11  N   UNL     1     -10.641  11.787  66.174  1.00  0.00    -0.251 N  
HETATM   12  O   UNL     1     -11.484  12.533  68.214  1.00  0.00    -0.262 OA 
HETATM   13  C   UNL     1     -10.175  10.598  65.687  1.00  0.00    -0.253 C  
HETATM   14  O   UNL     1      -9.709  10.352  64.593  1.00  0.00    -0.278 OA 
ENDROOT
BRANCH  11  15
HETATM   15  C   UNL     1     -10.702  12.993  65.366  1.00  0.00    -0.291 C  
HETATM   16  C   UNL     1     -10.252  14.265  66.079  1.00  0.00    -0.327 C  
HETATM   17  C   UNL     1     -10.195  15.395  65.059  1.00  0.00    -0.295 C  
HETATM   18  C   UNL     1     -11.521  15.568  64.347  1.00  0.00    -0.259 C  
HETATM   19  O   UNL     1     -11.885  16.650  63.898  1.00  0.00    -1.047 OA 
HETATM   20  N   UNL     1     -12.288  14.441  64.184  1.00  0.00    -0.803 N  
HETATM   21  H   UNL     1     -13.079  14.516  63.543  1.00  0.00     0.000 HD 
HETATM   22  C   UNL     1     -12.105  13.217  64.794  1.00  0.00    -0.409 C  
HETATM   23  O   UNL     1     -13.007  12.384  64.821  1.00  0.00    -0.786 OA 
ENDBRANCH  11  15
TORSDOF 1
ENDMDL
MODEL       11
REMARK 921   NORMALIZED FREE ENERGY PREDICTED BY IDOCK:   -6.94 KCAL/MOL
REMARK 922        TOTAL FREE ENERGY PREDICTED BY IDOCK:   -7.38 KCAL/MOL
REMARK 923 INTER-LIGAND FREE ENERGY PREDICTED BY IDOCK:   -7.37 KCAL/MOL
REMARK 924 INTRA-LIGAND FREE ENERGY PREDICTED BY IDOCK:   -0.02 KCAL/MOL
REMARK 927      BINDING AFFINITY PREDICTED BY RF-SCORE:    0.00 PKD
ROOT
HETATM    1  N   UNL     1     -12.770  16.052  71.470  1.00  0.00    -0.537 NA 
HETATM    2  C   UNL     1     -12.657  14.663  71.417  1.00  0.00    -0.335 A  
HETATM    3  H1  UNL     1     -12.439  16.624  70.694  1.00  0.00     0.000 HD 
HETATM    4  H2  UNL     1     -12.321  16.378  72.326  1.00  0.00     0.000 HD 
HETATM    5  C   UNL     1     -13.114  13.876  72.485  1.00  0.00    -0.533 A  
HETATM    6  C   UNL     1     -13.166  12.468  72.404  1.00  0.00    -0.283 A  
HETATM    7  C   UNL     1     -12.807  11.811  71.228  1.00  0.00    -0.409 A  
HETATM    8  C   UNL     1     -12.408  12.601  70.168  1.00  0.00    -0.222 A  
HETATM    9  C   UNL     1     -12.333  13.981  70.254  1.00  0.00    -0.425 A  
HETATM   10  C   UNL     1     -11.847  14.467  68.959  1.00  0.00    -0.323 C  
HETATM   11  N   UNL     1     -11.690  13.368  68.156  1.00  0.00    -0.341 N  
HETATM   12  O   UNL     1     -11.594  15.630  68.705  1.00  0.00    -0.356 OA 
HETATM   13  C   UNL     1     -12.014  12.216  68.817  1.00  0.00    -0.239 C  
HETATM   14  O   UNL     1     -11.975  11.071  68.416  1.00  0.00    -0.565 OA 
ENDROOT
BRANCH  11  15
HETATM   15  C   UNL     1     -11.285  13.382  66.760  1.00  0.00    -0.310 C  
HETATM   16  C   UNL     1     -12.247  12.680  65.807  1.00  0.00    -0.427 C  
HETATM   17  C   UNL     1     -11.787  12.940  64.379  1.00  0.00    -0.441 C  
HETATM   18  C   UNL     1     -10.350  12.510  64.171  1.00  0.00    -0.390 C  
HETATM   19  O   UNL     1      -9.928  12.145  63.079  1.00  0.00    -0.352 OA 
HETATM   20  N   UNL     1      -9.516  12.589  65.260  1.00  0.00    -0.449 N  
HETATM   21  H   UNL     1      -8.517  12.488  65.078  1.00  0.00     0.000 HD 
HETATM   22  C   UNL     1      -9.885  12.791  66.574  1.00  0.00    -0.258 C  
HETATM   23  O   UNL     1      -9.109  12.540  67.492  1.00  0.00    -0.172 OA 
ENDBRANCH  11  15
TORSDOF 1
ENDMDL
MODEL       12
REMARK 921   NORMALIZED FREE ENERGY PREDICTED BY IDOCK:   -6.85 KCAL/MOL
REMARK 922        TOTAL FREE ENERGY PREDICTED BY IDOCK:   -7.29 KCAL/MOL
REMARK 923 INTER-LIGAND FREE ENERGY PREDICTED BY IDOCK:   -7.29 KCAL/MOL
REMARK 924 INTRA-LIGAND FREE ENERGY PREDICTED BY IDOCK:    0.00 KCAL/MOL
REMARK 927      BINDING AFFINITY PREDICTED BY RF-SCORE:    0.00 PKD
ROOT
HETATM    1  N   UNL     1     -12.401  14.493  63.828  1.00  0.00    -1.087 NA 
HETATM    2  C   UNL     1     -11.613  15.044  64.838  1.00  0.00    -0.374 A  
HETATM    3  H1  UNL     1     -12.757  13.541  63.917  1.00  0.00     0.000 HD 
HETATM    4  H2  UNL     1     -11.892  14.565  62.947  1.00  0.00     0.000 HD 
HETATM    5  C   UNL     1     -11.124  16.354  64.716  1.00  0.00    -0.246 A  
HETATM    6  C   UNL     1     -10.462  17.004  65.779  1.00  0.00    -0.261 A  
HETATM    7  C   UNL     1     -10.316  16.375  67.014  1.00  0.00    -0.293 A  
HETATM    8  C   UNL     1     -10.846  15.106  67.136  1.00  0.00    -0.320 A  
HETATM    9  C   UNL     1     -11.474  14.457  66.086  1.00  0.00    -0.357 A  
HETATM   10  C   UNL     1     -11.874  13.134  66.576  1.00  0.00    -0.400 C  
HETATM   11  N   UNL     1     -11.502  13.068  67.892  1.00  0.00    -0.290 N  
HETATM   12  O   UNL     1     -12.389  12.268  65.893  1.00  0.00    -0.618 OA 
HETATM   13  C   UNL     1     -10.883  14.220  68.294  1.00  0.00    -0.246 C  
HETATM   14  O   UNL     1     -10.417  14.495  69.381  1.00  0.00    -0.212 OA 
ENDROOT
BRANCH  11  15
HETATM   15  C   UNL     1     -11.757  11.960  68.797  1.00  0.00    -0.321 C  
HETATM   16  C   UNL     1     -12.159  12.367  70.211  1.00  0.00    -0.377 C  
HETATM   17  C   UNL     1     -12.570  11.115  70.975  1.00  0.00    -0.503 C  
HETATM   18  C   UNL     1     -11.472  10.072  70.963  1.00  0.00    -0.383 C  
HETATM   19  O   UNL     1     -11.337   9.254  71.867  1.00  0.00    -0.374 OA 
HETATM   20  N   UNL     1     -10.650  10.049  69.862  1.00  0.00    -0.263 N  
HETATM   21  H   UNL     1     -10.043   9.235  69.762  1.00  0.00     0.000 HD 
HETATM   22  C   UNL     1     -10.558  11.011  68.877  1.00  0.00    -0.207 C  
HETATM   23  O   UNL     1      -9.592  11.046  68.119  1.00  0.00    -0.160 OA 
ENDBRANCH  11  15
TORSDOF 1
ENDMDL
MODEL       13
REMARK 921   NORMALIZED FREE ENERGY PREDICTED BY IDOCK:   -6.83 KCAL/MOL
REMARK 922        TOTAL FREE ENERGY PREDICTED BY IDOCK:   -7.27 KCAL/MOL
REMARK 923 INTER-LIGAND FREE ENERGY PREDICTED BY IDOCK:   -7.16 KCAL/MOL
REMARK 924 INTRA-LIGAND FREE ENERGY PREDICTED BY IDOCK:   -0.11 KCAL/MOL
REMARK 927      BINDING AFFINITY PREDICTED BY RF-SCORE:    0.00 PKD
ROOT
HETATM    1  N   UNL     1      -9.398  20.460  66.411  1.00  0.00    -0.625 NA 
HETATM    2  C   UNL     1      -8.598  19.580  67.137  1.00  0.00    -0.297 A  
HETATM    3  H1  UNL     1     -10.071  20.102  65.733  1.00  0.00     0.000 HD 
HETATM    4  H2  UNL     1      -8.792  21.131  65.938  1.00  0.00     0.000 HD 
HETATM    5  C   UNL     1      -7.672  20.073  68.070  1.00  0.00    -0.301 A  
HETATM    6  C   UNL     1      -6.960  19.216  68.937  1.00  0.00    -0.371 A  
HETATM    7  C   UNL     1      -7.195  17.842  68.928  1.00  0.00    -0.258 A  
HETATM    8  C   UNL     1      -8.145  17.376  68.040  1.00  0.00    -0.227 A  
HETATM    9  C   UNL     1      -8.826  18.213  67.172  1.00  0.00    -0.259 A  
HETATM   10  C   UNL     1      -9.719  17.367  66.373  1.00  0.00    -0.290 C  
HETATM   11  N   UNL     1      -9.557  16.083  66.822  1.00  0.00    -0.224 N  
HETATM   12  O   UNL     1     -10.416  17.765  65.457  1.00  0.00    -0.646 OA 
HETATM   13  C   UNL     1      -8.631  16.018  67.825  1.00  0.00    -0.163 C  
HETATM   14  O   UNL     1      -8.234  15.045  68.434  1.00  0.00    -0.139 OA 
ENDROOT
BRANCH  11  15
HETATM   15  C   UNL     1     -10.291  14.918  66.358  1.00  0.00    -0.286 C  
HETATM   16  C   UNL     1     -10.472  14.835  64.845  1.00  0.00    -0.398 C  
HETATM   17  C   UNL     1     -11.086  13.483  64.506  1.00  0.00    -0.394 C  
HETATM   18  C   UNL     1     -12.381  13.258  65.256  1.00  0.00    -0.476 C  
HETATM   19  O   UNL     1     -13.279  12.549  64.813  1.00  0.00    -0.839 OA 
HETATM   20  N   UNL     1     -12.493  13.850  66.491  1.00  0.00    -0.459 N  
HETATM   21  H   UNL     1     -13.273  13.544  67.075  1.00  0.00     0.000 HD 
HETATM   22  C   UNL     1     -11.665  14.814  67.026  1.00  0.00    -0.315 C  
HETATM   23  O   UNL     1     -12.022  15.489  67.988  1.00  0.00    -0.195 OA 
ENDBRANCH  11  15
TORSDOF 1
ENDMDL
MODEL       14
REMARK 921   NORMALIZED FREE ENERGY PREDICTED BY IDOCK:   -6.79 KCAL/MOL
REMARK 922        TOTAL FREE ENERGY PREDICTED BY IDOCK:   -7.23 KCAL/MOL
REMARK 923 INTER-LIGAND FREE ENERGY PREDICTED BY IDOCK:   -7.15 KCAL/MOL
REMARK 924 INTRA-LIGAND FREE ENERGY PREDICTED BY IDOCK:   -0.09 KCAL/MOL
REMARK 927      BINDING AFFINITY PREDICTED BY RF-SCORE:    0.00 PKD
ROOT
HETATM    1  N   UNL     1     -12.431  13.743  63.499  1.00  0.00    -1.020 NA 
HETATM    2  C   UNL     1     -11.600  12.771  64.055  1.00  0.00    -0.424 A  
HETATM    3  H1  UNL     1     -12.921  14.404  64.102  1.00  0.00     0.000 HD 
HETATM    4  H2  UNL     1     -13.117  13.278  62.905  1.00  0.00     0.000 HD 
HETATM    5  C   UNL     1     -10.925  11.862  63.226  1.00  0.00    -0.399 A  
HETATM    6  C   UNL     1      -9.955  10.970  63.733  1.00  0.00    -0.404 A  
HETATM    7  C   UNL     1      -9.598  11.001  65.080  1.00  0.00    -0.291 A  
HETATM    8  C   UNL     1     -10.234  11.934  65.874  1.00  0.00    -0.270 A  
HETATM    9  C   UNL     1     -11.204  12.793  65.383  1.00  0.00    -0.327 A  
HETATM   10  C   UNL     1     -11.666  13.608  66.511  1.00  0.00    -0.382 C  
HETATM   11  N   UNL     1     -10.934  13.227  67.604  1.00  0.00    -0.257 N  
HETATM   12  O   UNL     1     -12.571  14.421  66.454  1.00  0.00    -0.334 OA 
HETATM   13  C   UNL     1     -10.052  12.230  67.291  1.00  0.00    -0.204 C  
HETATM   14  O   UNL     1      -9.268  11.651  68.015  1.00  0.00    -0.165 OA 
ENDROOT
BRANCH  11  15
HETATM   15  C   UNL     1     -11.012  13.814  68.931  1.00  0.00    -0.252 C  
HETATM   16  C   UNL     1     -12.384  13.720  69.592  1.00  0.00    -0.284 C  
HETATM   17  C   UNL     1     -12.259  14.202  71.031  1.00  0.00    -0.432 C  
HETATM   18  C   UNL     1     -11.677  15.599  71.101  1.00  0.00    -0.413 C  
HETATM   19  O   UNL     1     -11.938  16.371  72.017  1.00  0.00    -0.493 OA 
HETATM   20  N   UNL     1     -10.799  15.954  70.106  1.00  0.00    -0.335 N  
HETATM   21  H   UNL     1     -10.263  16.810  70.255  1.00  0.00     0.000 HD 
HETATM   22  C   UNL     1     -10.564  15.278  68.927  1.00  0.00    -0.242 C  
HETATM   23  O   UNL     1     -10.002  15.830  67.985  1.00  0.00    -0.220 OA 
ENDBRANCH  11  15
TORSDOF 1
ENDMDL
MODEL       15
REMARK 921   NORMALIZED FREE ENERGY PREDICTED BY IDOCK:   -6.75 KCAL/MOL
REMARK 922        TOTAL FREE ENERGY PREDICTED BY IDOCK:   -7.19 KCAL/MOL
REMARK 923 INTER-LIGAND FREE ENERGY PREDICTED BY IDOCK:   -7.08 KCAL/MOL
REMARK 924 INTRA-LIGAND FREE ENERGY PREDICTED BY IDOCK:   -0.11 KCAL/MOL
REMARK 927      BINDING AFFINITY PREDICTED BY RF-SCORE:    0.00 PKD
ROOT
HETATM    1  N   UNL     1     -10.946  19.586  65.342  1.00  0.00    -0.369 NA 
HETATM    2  C   UNL     1     -10.423  18.843  66.400  1.00  0.00    -0.439 A  
HETATM    3  H1  UNL     1     -11.247  19.120  64.487  1.00  0.00     0.000 HD 
HETATM    4  H2  UNL     1     -10.271  20.310  65.094  1.00  0.00     0.000 HD 
HETATM    5  C   UNL     1     -10.009  19.486  67.577  1.00  0.00    -0.495 A  
HETATM    6  C   UNL     1      -9.626  18.761  68.726  1.00  0.00    -0.411 A  
HETATM    7  C   UNL     1      -9.697  17.369  68.743  1.00  0.00    -0.282 A  
HETATM    8  C   UNL     1     -10.154  16.752  67.595  1.00  0.00    -0.275 A  
HETATM    9  C   UNL     1     -10.506  17.461  66.458  1.00  0.00    -0.264 A  
HETATM   10  C   UNL     1     -10.909  16.478  65.447  1.00  0.00    -0.206 C  
HETATM   11  N   UNL     1     -10.813  15.244  66.033  1.00  0.00    -0.327 N  
HETATM   12  O   UNL     1     -11.212  16.749  64.300  1.00  0.00    -1.163 OA 
HETATM   13  C   UNL     1     -10.371  15.336  67.323  1.00  0.00    -0.264 C  
HETATM   14  O   UNL     1     -10.158  14.445  68.121  1.00  0.00    -0.217 OA 
ENDROOT
BRANCH  11  15
HETATM   15  C   UNL     1     -11.175  13.977  65.417  1.00  0.00    -0.319 C  
HETATM   16  C   UNL     1     -10.420  13.652  64.132  1.00  0.00     0.018 C  
HETATM   17  C   UNL     1     -10.768  12.228  63.717  1.00  0.00    -0.494 C  
HETATM   18  C   UNL     1     -12.264  12.041  63.574  1.00  0.00    -0.547 C  
HETATM   19  O   UNL     1     -12.749  11.218  62.804  1.00  0.00     0.178 OA 
HETATM   20  N   UNL     1     -13.065  12.808  64.384  1.00  0.00    -0.656 N  
HETATM   21  H   UNL     1     -14.051  12.549  64.429  1.00  0.00     0.000 HD 
HETATM   22  C   UNL     1     -12.679  13.893  65.144  1.00  0.00    -0.398 C  
HETATM   23  O   UNL     1     -13.510  14.685  65.580  1.00  0.00    -0.154 OA 
ENDBRANCH  11  15
TORSDOF 1
ENDMDL
MODEL       16
REMARK 921   NORMALIZED FREE ENERGY PREDICTED BY IDOCK:   -6.75 KCAL/MOL
REMARK 922        TOTAL FREE ENERGY PREDICTED BY IDOCK:   -7.19 KCAL/MOL
REMARK 923 INTER-LIGAND FREE ENERGY PREDICTED BY IDOCK:   -7.16 KCAL/MOL
REMARK 924 INTRA-LIGAND FREE ENERGY PREDICTED BY IDOCK:   -0.03 KCAL/MOL
REMARK 927      BINDING AFFINITY PREDICTED BY RF-SCORE:    0.00 PKD
ROOT
HETATM    1  N   UNL     1     -14.076  13.810  72.482  1.00  0.00    -0.730 NA 
HETATM    2  C   UNL     1     -13.264  12.917  71.785  1.00  0.00    -0.384 A  
HETATM    3  H1  UNL     1     -13.970  14.814  72.346  1.00  0.00     0.000 HD 
HETATM    4  H2  UNL     1     -13.992  13.609  73.479  1.00  0.00     0.000 HD 
HETATM    5  C   UNL     1     -13.410  11.534  71.972  1.00  0.00    -0.397 A  
HETATM    6  C   UNL     1     -12.723  10.596  71.171  1.00  0.00    -0.522 A  
HETATM    7  C   UNL     1     -11.907  11.021  70.125  1.00  0.00    -0.441 A  
HETATM    8  C   UNL     1     -11.811  12.383  69.919  1.00  0.00    -0.376 A  
HETATM    9  C   UNL     1     -12.466  13.305  70.720  1.00  0.00    -0.403 A  
HETATM   10  C   UNL     1     -12.106  14.637  70.223  1.00  0.00    -0.319 C  
HETATM   11  N   UNL     1     -11.291  14.450  69.138  1.00  0.00    -0.262 N  
HETATM   12  O   UNL     1     -12.447  15.685  70.740  1.00  0.00    -0.415 OA 
HETATM   13  C   UNL     1     -11.077  13.121  68.897  1.00  0.00    -0.266 C  
HETATM   14  O   UNL     1     -10.399  12.603  68.033  1.00  0.00    -0.215 OA 
ENDROOT
BRANCH  11  15
HETATM   15  C   UNL     1     -10.744  15.497  68.291  1.00  0.00    -0.271 C  
HETATM   16  C   UNL     1     -10.807  15.207  66.794  1.00  0.00    -0.322 C  
HETATM   17  C   UNL     1     -10.376  16.460  66.042  1.00  0.00    -0.365 C  
HETATM   18  C   UNL     1      -9.006  16.929  66.485  1.00  0.00    -0.272 C  
HETATM   19  O   UNL     1      -8.254  17.547  65.738  1.00  0.00    -0.545 OA 
HETATM   20  N   UNL     1      -8.652  16.670  67.787  1.00  0.00    -0.190 N  
HETATM   21  H   UNL     1      -7.823  17.150  68.139  1.00  0.00     0.000 HD 
HETATM   22  C   UNL     1      -9.299  15.831  68.670  1.00  0.00    -0.206 C  
HETATM   23  O   UNL     1      -8.739  15.436  69.689  1.00  0.00    -0.257 OA 
ENDBRANCH  11  15
TORSDOF 1
ENDMDL
MODEL       17
REMARK 921   NORMALIZED FREE ENERGY PREDICTED BY IDOCK:   -6.73 KCAL/MOL
REMARK 922        TOTAL FREE ENERGY PREDICTED BY IDOCK:   -7.17 KCAL/MOL
REMARK 923 INTER-LIGAND FREE ENERGY PREDICTED BY IDOCK:   -7.02 KCAL/MOL
REMARK 924 INTRA-LIGAND FREE ENERGY PREDICTED BY IDOCK:   -0.15 KCAL/MOL
REMARK 927      BINDING AFFINITY PREDICTED BY RF-SCORE:    0.00 PKD
ROOT
HETATM    1  N   UNL     1     -10.821   8.218  67.701  1.00  0.00    -0.506 NA 
HETATM    2  C   UNL     1      -9.865   8.291  66.688  1.00  0.00    -0.267 A  
HETATM    3  H1  UNL     1     -11.350   9.049  67.968  1.00  0.00     0.000 HD 
HETATM    4  H2  UNL     1     -10.375   7.839  68.536  1.00  0.00     0.000 HD 
HETATM    5  C   UNL     1      -9.138   7.148  66.321  1.00  0.00    -0.182 A  
HETATM    6  C   UNL     1      -8.282   7.138  65.199  1.00  0.00    -0.114 A  
HETATM    7  C   UNL     1      -8.170   8.263  64.382  1.00  0.00    -0.130 A  
HETATM    8  C   UNL     1      -8.930   9.363  64.726  1.00  0.00    -0.241 A  
HETATM    9  C   UNL     1      -9.752   9.382  65.841  1.00  0.00    -0.355 A  
HETATM   10  C   UNL     1     -10.367  10.712  65.898  1.00  0.00    -0.224 C  
HETATM   11  N   UNL     1      -9.917  11.406  64.807  1.00  0.00    -0.253 N  
HETATM   12  O   UNL     1     -11.093  11.102  66.794  1.00  0.00    -0.278 OA 
HETATM   13  C   UNL     1      -9.054  10.654  64.058  1.00  0.00    -0.224 C  
HETATM   14  O   UNL     1      -8.462  10.958  63.043  1.00  0.00    -0.154 OA 
ENDROOT
BRANCH  11  15
HETATM   15  C   UNL     1     -10.317  12.750  64.425  1.00  0.00    -0.364 C  
HETATM   16  C   UNL     1     -10.286  13.772  65.557  1.00  0.00    -0.332 C  
HETATM   17  C   UNL     1     -10.544  15.153  64.967  1.00  0.00    -0.439 C  
HETATM   18  C   UNL     1     -11.843  15.189  64.188  1.00  0.00    -0.148 C  
HETATM   19  O   UNL     1     -12.503  16.216  64.067  1.00  0.00    -0.708 OA 
HETATM   20  N   UNL     1     -12.233  14.022  63.578  1.00  0.00    -1.079 N  
HETATM   21  H   UNL     1     -12.993  14.093  62.902  1.00  0.00     0.000 HD 
HETATM   22  C   UNL     1     -11.707  12.763  63.784  1.00  0.00    -0.493 C  
HETATM   23  O   UNL     1     -12.318  11.759  63.430  1.00  0.00    -0.532 OA 
ENDBRANCH  11  15
TORSDOF 1
ENDMDL
MODEL       18
REMARK 921   NORMALIZED FREE ENERGY PREDICTED BY IDOCK:   -6.71 KCAL/MOL
REMARK 922        TOTAL FREE ENERGY PREDICTED BY IDOCK:   -7.14 KCAL/MOL
REMARK 923 INTER-LIGAND FREE ENERGY PREDICTED BY IDOCK:   -7.01 KCAL/MOL
REMARK 924 INTRA-LIGAND FREE ENERGY PREDICTED BY IDOCK:   -0.13 KCAL/MOL
REMARK 927      BINDING AFFINITY PREDICTED BY RF-SCORE:    0.00 PKD
ROOT
HETATM    1  N   UNL     1     -12.494  14.829  63.709  1.00  0.00    -1.063 NA 
HETATM    2  C   UNL     1     -11.432  15.117  64.565  1.00  0.00    -0.316 A  
HETATM    3  H1  UNL     1     -12.732  13.861  63.494  1.00  0.00     0.000 HD 
HETATM    4  H2  UNL     1     -12.343  15.326  62.831  1.00  0.00     0.000 HD 
HETATM    5  C   UNL     1     -11.105  16.450  64.861  1.00  0.00    -0.249 A  
HETATM    6  C   UNL     1     -10.147  16.782  65.843  1.00  0.00    -0.324 A  
HETATM    7  C   UNL     1      -9.525  15.785  66.592  1.00  0.00    -0.279 A  
HETATM    8  C   UNL     1      -9.893  14.481  66.326  1.00  0.00    -0.322 A  
HETATM    9  C   UNL     1     -10.815  14.153  65.346  1.00  0.00    -0.341 A  
HETATM   10  C   UNL     1     -10.926  12.690  65.332  1.00  0.00    -0.286 C  
HETATM   11  N   UNL     1     -10.100  12.220  66.319  1.00  0.00    -0.229 N  
HETATM   12  O   UNL     1     -11.596  12.053  64.541  1.00  0.00    -0.339 OA 
HETATM   13  C   UNL     1      -9.454  13.242  66.958  1.00  0.00    -0.243 C  
HETATM   14  O   UNL     1      -8.645  13.185  67.862  1.00  0.00    -0.163 OA 
ENDROOT
BRANCH  11  15
HETATM   15  C   UNL     1      -9.940  10.829  66.707  1.00  0.00    -0.206 C  
HETATM   16  C   UNL     1      -9.782   9.854  65.544  1.00  0.00    -0.370 C  
HETATM   17  C   UNL     1      -9.439   8.482  66.109  1.00  0.00    -0.286 C  
HETATM   18  C   UNL     1     -10.474   8.021  67.114  1.00  0.00    -0.338 C  
HETATM   19  O   UNL     1     -10.711   6.833  67.310  1.00  0.00    -0.267 OA 
HETATM   20  N   UNL     1     -11.112   8.998  67.839  1.00  0.00    -0.480 N  
HETATM   21  H   UNL     1     -11.659   8.686  68.642  1.00  0.00     0.000 HD 
HETATM   22  C   UNL     1     -11.093  10.356  67.596  1.00  0.00    -0.293 C  
HETATM   23  O   UNL     1     -11.930  11.098  68.103  1.00  0.00    -0.615 OA 
ENDBRANCH  11  15
TORSDOF 1
ENDMDL
MODEL       19
REMARK 921   NORMALIZED FREE ENERGY PREDICTED BY IDOCK:   -6.70 KCAL/MOL
REMARK 922        TOTAL FREE ENERGY PREDICTED BY IDOCK:   -7.13 KCAL/MOL
REMARK 923 INTER-LIGAND FREE ENERGY PREDICTED BY IDOCK:   -7.08 KCAL/MOL
REMARK 924 INTRA-LIGAND FREE ENERGY PREDICTED BY IDOCK:   -0.05 KCAL/MOL
REMARK 927      BINDING AFFINITY PREDICTED BY RF-SCORE:    0.00 PKD
ROOT
HETATM    1  N   UNL     1     -12.537  10.611  71.089  1.00  0.00    -0.385 NA 
HETATM    2  C   UNL     1     -12.658  11.985  70.885  1.00  0.00    -0.253 A  
HETATM    3  H1  UNL     1     -12.318   9.994  70.307  1.00  0.00     0.000 HD 
HETATM    4  H2  UNL     1     -13.391  10.276  71.535  1.00  0.00     0.000 HD 
HETATM    5  C   UNL     1     -12.959  12.835  71.961  1.00  0.00    -0.380 A  
HETATM    6  C   UNL     1     -12.932  14.240  71.830  1.00  0.00    -0.429 A  
HETATM    7  C   UNL     1     -12.553  14.834  70.627  1.00  0.00    -0.414 A  
HETATM    8  C   UNL     1     -12.211  13.986  69.592  1.00  0.00    -0.383 A  
HETATM    9  C   UNL     1     -12.260  12.607  69.712  1.00  0.00    -0.209 A  
HETATM   10  C   UNL     1     -11.862  12.049  68.415  1.00  0.00    -0.300 C  
HETATM   11  N   UNL     1     -11.562  13.110  67.602  1.00  0.00    -0.327 N  
HETATM   12  O   UNL     1     -11.863  10.863  68.140  1.00  0.00    -0.564 OA 
HETATM   13  C   UNL     1     -11.745  14.301  68.246  1.00  0.00    -0.342 C  
HETATM   14  O   UNL     1     -11.590  15.428  67.823  1.00  0.00    -0.322 OA 
ENDROOT
BRANCH  11  15
HETATM   15  C   UNL     1     -11.060  13.025  66.240  1.00  0.00    -0.289 C  
HETATM   16  C   UNL     1     -12.004  12.351  65.250  1.00  0.00    -0.461 C  
HETATM   17  C   UNL     1     -11.426  12.506  63.850  1.00  0.00    -0.507 C  
HETATM   18  C   UNL     1     -10.016  11.961  63.768  1.00  0.00    -0.355 C  
HETATM   19  O   UNL     1      -9.548  11.513  62.726  1.00  0.00    -0.358 OA 
HETATM   20  N   UNL     1      -9.256  12.032  64.910  1.00  0.00    -0.388 N  
HETATM   21  H   UNL     1      -8.258  11.849  64.807  1.00  0.00     0.000 HD 
HETATM   22  C   UNL     1      -9.700  12.324  66.184  1.00  0.00    -0.245 C  
HETATM   23  O   UNL     1      -9.012  12.062  67.166  1.00  0.00    -0.173 OA 
ENDBRANCH  11  15
TORSDOF 1
ENDMDL
MODEL       20
REMARK 921   NORMALIZED FREE ENERGY PREDICTED BY IDOCK:   -6.68 KCAL/MOL
REMARK 922        TOTAL FREE ENERGY PREDICTED BY IDOCK:   -7.12 KCAL/MOL
REMARK 923 INTER-LIGAND FREE ENERGY PREDICTED BY IDOCK:   -7.06 KCAL/MOL
REMARK 924 INTRA-LIGAND FREE ENERGY PREDICTED BY IDOCK:   -0.06 KCAL/MOL
REMARK 927      BINDING AFFINITY PREDICTED BY RF-SCORE:    0.00 PKD
ROOT
HETATM    1  N   UNL     1      -5.482  17.418  66.114  1.00  0.00    -0.279 NA 
HETATM    2  C   UNL     1      -6.432  18.283  66.653  1.00  0.00    -0.186 A  
HETATM    3  H1  UNL     1      -5.723  16.446  65.923  1.00  0.00     0.000 HD 
HETATM    4  H2  UNL     1      -4.657  17.432  66.715  1.00  0.00     0.000 HD 
HETATM    5  C   UNL     1      -6.100  19.622  66.916  1.00  0.00    -0.180 A  
HETATM    6  C   UNL     1      -7.072  20.567  67.308  1.00  0.00    -0.362 A  
HETATM    7  C   UNL     1      -8.416  20.208  67.399  1.00  0.00    -0.398 A  
HETATM    8  C   UNL     1      -8.736  18.901  67.088  1.00  0.00    -0.298 A  
HETATM    9  C   UNL     1      -7.780  17.966  66.727  1.00  0.00    -0.251 A  
HETATM   10  C   UNL     1      -8.482  16.698  66.505  1.00  0.00    -0.292 C  
HETATM   11  N   UNL     1      -9.815  16.941  66.706  1.00  0.00    -0.267 N  
HETATM   12  O   UNL     1      -7.938  15.640  66.244  1.00  0.00    -0.071 OA 
HETATM   13  C   UNL     1     -10.037  18.244  67.054  1.00  0.00    -0.360 C  
HETATM   14  O   UNL     1     -11.088  18.794  67.318  1.00  0.00    -0.318 OA 
ENDROOT
BRANCH  11  15
HETATM   15  C   UNL     1     -10.893  15.982  66.533  1.00  0.00    -0.167 C  
HETATM   16  C   UNL     1     -10.573  14.567  67.005  1.00  0.00    -0.278 C  
HETATM   17  C   UNL     1     -11.847  13.735  66.932  1.00  0.00    -0.447 C  
HETATM   18  C   UNL     1     -12.449  13.760  65.543  1.00  0.00    -0.512 C  
HETATM   19  O   UNL     1     -13.121  12.832  65.105  1.00  0.00    -0.750 OA 
HETATM   20  N   UNL     1     -12.246  14.898  64.800  1.00  0.00    -0.338 N  
HETATM   21  H   UNL     1     -12.807  14.996  63.953  1.00  0.00     0.000 HD 
HETATM   22  C   UNL     1     -11.366  15.924  65.078  1.00  0.00    -0.193 C  
HETATM   23  O   UNL     1     -11.042  16.728  64.209  1.00  0.00    -1.106 OA 
ENDBRANCH  11  15
TORSDOF 1
ENDMDL
MODEL       21
REMARK 921   NORMALIZED FREE ENERGY PREDICTED BY IDOCK:   -6.60 KCAL/MOL
REMARK 922        TOTAL FREE ENERGY PREDICTED BY IDOCK:   -7.03 KCAL/MOL
REMARK 923 INTER-LIGAND FREE ENERGY PREDICTED BY IDOCK:   -7.05 KCAL/MOL
REMARK 924 INTRA-LIGAND FREE ENERGY PREDICTED BY IDOCK:    0.02 KCAL/MOL
REMARK 927      BINDING AFFINITY PREDICTED BY RF-SCORE:    0.00 PKD
ROOT
HETATM    1  N   UNL     1     -12.491  12.712  63.219  1.00  0.00    -0.776 NA 
HETATM    2  C   UNL     1     -11.488  12.124  63.988  1.00  0.00    -0.411 A  
HETATM    3  H1  UNL     1     -13.174  13.333  63.653  1.00  0.00     0.000 HD 
HETATM    4  H2  UNL     1     -12.995  11.972  62.728  1.00  0.00     0.000 HD 
HETATM    5  C   UNL     1     -10.548  11.271  63.390  1.00  0.00    -0.393 A  
HETATM    6  C   UNL     1      -9.426  10.786  64.096  1.00  0.00    -0.309 A  
HETATM    7  C   UNL     1      -9.189  11.185  65.410  1.00  0.00    -0.225 A  
HETATM    8  C   UNL     1     -10.094  12.065  65.970  1.00  0.00    -0.257 A  
HETATM    9  C   UNL     1     -11.208  12.522  65.286  1.00  0.00    -0.341 A  
HETATM   10  C   UNL     1     -11.941  13.404  66.200  1.00  0.00    -0.413 C  
HETATM   11  N   UNL     1     -11.219  13.460  67.363  1.00  0.00    -0.278 N  
HETATM   12  O   UNL     1     -13.013  13.925  65.951  1.00  0.00    -0.436 OA 
HETATM   13  C   UNL     1     -10.096  12.683  67.291  1.00  0.00    -0.214 C  
HETATM   14  O   UNL     1      -9.247  12.490  68.138  1.00  0.00    -0.200 OA 
ENDROOT
BRANCH  11  15
HETATM   15  C   UNL     1     -11.539  14.267  68.528  1.00  0.00    -0.320 C  
HETATM   16  C   UNL     1     -10.447  15.247  68.948  1.00  0.00    -0.241 C  
HETATM   17  C   UNL     1     -10.999  16.140  70.052  1.00  0.00    -0.364 C  
HETATM   18  C   UNL     1     -11.524  15.325  71.215  1.00  0.00    -0.380 C  
HETATM   19  O   UNL     1     -11.535  15.757  72.363  1.00  0.00    -0.410 OA 
HETATM   20  N   UNL     1     -12.033  14.083  70.922  1.00  0.00    -0.468 N  
HETATM   21  H   UNL     1     -12.558  13.619  71.664  1.00  0.00     0.000 HD 
HETATM   22  C   UNL     1     -11.911  13.396  69.732  1.00  0.00    -0.330 C  
HETATM   23  O   UNL     1     -12.130  12.190  69.675  1.00  0.00    -0.280 OA 
ENDBRANCH  11  15
TORSDOF 1
ENDMDL
MODEL       22
REMARK 921   NORMALIZED FREE ENERGY PREDICTED BY IDOCK:   -6.59 KCAL/MOL
REMARK 922        TOTAL FREE ENERGY PREDICTED BY IDOCK:   -7.02 KCAL/MOL
REMARK 923 INTER-LIGAND FREE ENERGY PREDICTED BY IDOCK:   -7.02 KCAL/MOL
REMARK 924 INTRA-LIGAND FREE ENERGY PREDICTED BY IDOCK:    0.00 KCAL/MOL
REMARK 927      BINDING AFFINITY PREDICTED BY RF-SCORE:    0.00 PKD
ROOT
HETATM    1  N   UNL     1     -10.439  11.781  67.086  1.00  0.00    -0.215 NA 
HETATM    2  C   UNL     1     -10.793  12.564  65.989  1.00  0.00    -0.276 A  
HETATM    3  H1  UNL     1      -9.887  12.180  67.846  1.00  0.00     0.000 HD 
HETATM    4  H2  UNL     1      -9.960  10.947  66.745  1.00  0.00     0.000 HD 
HETATM    5  C   UNL     1     -11.552  12.015  64.944  1.00  0.00    -0.332 A  
HETATM    6  C   UNL     1     -12.066  12.811  63.898  1.00  0.00    -0.562 A  
HETATM    7  C   UNL     1     -11.876  14.191  63.898  1.00  0.00    -0.211 A  
HETATM    8  C   UNL     1     -11.170  14.726  64.958  1.00  0.00    -0.399 A  
HETATM    9  C   UNL     1     -10.644  13.942  65.972  1.00  0.00    -0.293 A  
HETATM   10  C   UNL     1      -9.944  14.845  66.892  1.00  0.00    -0.242 C  
HETATM   11  N   UNL     1     -10.114  16.115  66.409  1.00  0.00    -0.291 N  
HETATM   12  O   UNL     1      -9.301  14.485  67.862  1.00  0.00    -0.192 OA 
HETATM   13  C   UNL     1     -10.844  16.116  65.253  1.00  0.00    -0.336 C  
HETATM   14  O   UNL     1     -11.166  17.057  64.556  1.00  0.00    -1.091 OA 
ENDROOT
BRANCH  11  15
HETATM   15  C   UNL     1      -9.642  17.338  67.038  1.00  0.00    -0.261 C  
HETATM   16  C   UNL     1     -10.619  18.507  66.978  1.00  0.00    -0.421 C  
HETATM   17  C   UNL     1     -10.067  19.642  67.831  1.00  0.00    -0.543 C  
HETATM   18  C   UNL     1      -8.669  20.032  67.399  1.00  0.00    -0.345 C  
HETATM   19  O   UNL     1      -8.232  21.168  67.550  1.00  0.00    -0.128 OA 
HETATM   20  N   UNL     1      -7.886  19.039  66.863  1.00  0.00    -0.239 N  
HETATM   21  H   UNL     1      -6.894  19.250  66.754  1.00  0.00     0.000 HD 
HETATM   22  C   UNL     1      -8.298  17.786  66.458  1.00  0.00    -0.265 C  
HETATM   23  O   UNL     1      -7.595  17.100  65.721  1.00  0.00    -0.381 OA 
ENDBRANCH  11  15
TORSDOF 1
ENDMDL
MODEL       23
REMARK 921   NORMALIZED FREE ENERGY PREDICTED BY IDOCK:   -6.52 KCAL/MOL
REMARK 922        TOTAL FREE ENERGY PREDICTED BY IDOCK:   -6.94 KCAL/MOL
REMARK 923 INTER-LIGAND FREE ENERGY PREDICTED BY IDOCK:   -6.80 KCAL/MOL
REMARK 924 INTRA-LIGAND FREE ENERGY PREDICTED BY IDOCK:   -0.14 KCAL/MOL
REMARK 927      BINDING AFFINITY PREDICTED BY RF-SCORE:    0.00 PKD
ROOT
HETATM    1  N   UNL     1     -11.573  16.415  70.644  1.00  0.00    -0.517 NA 
HETATM    2  C   UNL     1     -11.941  15.121  71.012  1.00  0.00    -0.333 A  
HETATM    3  H1  UNL     1     -11.061  16.575  69.776  1.00  0.00     0.000 HD 
HETATM    4  H2  UNL     1     -11.044  16.829  71.411  1.00  0.00     0.000 HD 
HETATM    5  C   UNL     1     -12.646  14.901  72.205  1.00  0.00    -0.413 A  
HETATM    6  C   UNL     1     -13.175  13.634  72.534  1.00  0.00    -0.578 A  
HETATM    7  C   UNL     1     -13.055  12.563  71.650  1.00  0.00    -0.414 A  
HETATM    8  C   UNL     1     -12.403  12.807  70.458  1.00  0.00    -0.355 A  
HETATM    9  C   UNL     1     -11.862  14.043  70.144  1.00  0.00    -0.377 A  
HETATM   10  C   UNL     1     -11.231  13.914  68.827  1.00  0.00    -0.272 C  
HETATM   11  N   UNL     1     -11.454  12.630  68.403  1.00  0.00    -0.285 N  
HETATM   12  O   UNL     1     -10.594  14.791  68.274  1.00  0.00    -0.234 OA 
HETATM   13  C   UNL     1     -12.156  11.913  69.332  1.00  0.00    -0.216 C  
HETATM   14  O   UNL     1     -12.509  10.752  69.291  1.00  0.00    -0.356 OA 
ENDROOT
BRANCH  11  15
HETATM   15  C   UNL     1     -11.060  12.074  67.120  1.00  0.00    -0.290 C  
HETATM   16  C   UNL     1      -9.577  12.211  66.791  1.00  0.00    -0.216 C  
HETATM   17  C   UNL     1      -9.290  11.424  65.518  1.00  0.00    -0.228 C  
HETATM   18  C   UNL     1     -10.180  11.872  64.377  1.00  0.00    -0.297 C  
HETATM   19  O   UNL     1      -9.831  11.787  63.204  1.00  0.00    -0.409 OA 
HETATM   20  N   UNL     1     -11.427  12.341  64.711  1.00  0.00    -0.321 N  
HETATM   21  H   UNL     1     -12.091  12.457  63.945  1.00  0.00     0.000 HD 
HETATM   22  C   UNL     1     -11.879  12.672  65.972  1.00  0.00    -0.436 C  
HETATM   23  O   UNL     1     -12.883  13.362  66.121  1.00  0.00    -0.255 OA 
ENDBRANCH  11  15
TORSDOF 1
ENDMDL
MODEL       24
REMARK 921   NORMALIZED FREE ENERGY PREDICTED BY IDOCK:   -6.50 KCAL/MOL
REMARK 922        TOTAL FREE ENERGY PREDICTED BY IDOCK:   -6.92 KCAL/MOL
REMARK 923 INTER-LIGAND FREE ENERGY PREDICTED BY IDOCK:   -7.00 KCAL/MOL
REMARK 924 INTRA-LIGAND FREE ENERGY PREDICTED BY IDOCK:    0.08 KCAL/MOL
REMARK 927      BINDING AFFINITY PREDICTED BY RF-SCORE:    0.00 PKD
ROOT
HETATM    1  N   UNL     1     -12.371  15.026  68.762  1.00  0.00    -0.598 NA 
HETATM    2  C   UNL     1     -12.158  13.883  67.993  1.00  0.00    -0.283 A  
HETATM    3  H1  UNL     1     -12.459  14.954  69.775  1.00  0.00     0.000 HD 
HETATM    4  H2  UNL     1     -13.196  15.507  68.400  1.00  0.00     0.000 HD 
HETATM    5  C   UNL     1     -12.036  13.982  66.598  1.00  0.00    -0.487 A  
HETATM    6  C   UNL     1     -11.661  12.878  65.803  1.00  0.00    -0.437 A  
HETATM    7  C   UNL     1     -11.348  11.654  66.391  1.00  0.00    -0.312 A  
HETATM    8  C   UNL     1     -11.423  11.584  67.768  1.00  0.00    -0.357 A  
HETATM    9  C   UNL     1     -11.814  12.660  68.548  1.00  0.00    -0.342 A  
HETATM   10  C   UNL     1     -11.803  12.206  69.942  1.00  0.00    -0.319 C  
HETATM   11  N   UNL     1     -11.375  10.905  69.933  1.00  0.00    -0.289 N  
HETATM   12  O   UNL     1     -12.164  12.875  70.892  1.00  0.00    -0.347 OA 
HETATM   13  C   UNL     1     -11.124  10.470  68.661  1.00  0.00    -0.267 C  
HETATM   14  O   UNL     1     -10.750   9.376  68.289  1.00  0.00    -0.220 OA 
ENDROOT
BRANCH  11  15
HETATM   15  C   UNL     1     -11.151  10.072  71.103  1.00  0.00    -0.200 C  
HETATM   16  C   UNL     1      -9.989   9.092  70.978  1.00  0.00    -0.349 C  
HETATM   17  C   UNL     1      -9.766   8.433  72.333  1.00  0.00    -0.376 C  
HETATM   18  C   UNL     1     -11.029   7.772  72.844  1.00  0.00    -0.407 C  
HETATM   19  O   UNL     1     -11.001   6.800  73.592  1.00  0.00    -0.226 OA 
HETATM   20  N   UNL     1     -12.222   8.339  72.467  1.00  0.00    -0.536 N  
HETATM   21  H   UNL     1     -13.055   8.019  72.960  1.00  0.00     0.000 HD 
HETATM   22  C   UNL     1     -12.413   9.296  71.492  1.00  0.00    -0.355 C  
HETATM   23  O   UNL     1     -13.529   9.507  71.025  1.00  0.00    -0.296 OA 
ENDBRANCH  11  15
TORSDOF 1
ENDMDL
MODEL       25
REMARK 921   NORMALIZED FREE ENERGY PREDICTED BY IDOCK:   -6.49 KCAL/MOL
REMARK 922        TOTAL FREE ENERGY PREDICTED BY IDOCK:   -6.92 KCAL/MOL
REMARK 923 INTER-LIGAND FREE ENERGY PREDICTED BY IDOCK:   -6.82 KCAL/MOL
REMARK 924 INTRA-LIGAND FREE ENERGY PREDICTED BY IDOCK:   -0.09 KCAL/MOL
REMARK 927      BINDING AFFINITY PREDICTED BY RF-SCORE:    0.00 PKD
ROOT
HETATM    1  N   UNL     1     -11.428  10.043  69.280  1.00  0.00    -0.445 NA 
HETATM    2  C   UNL     1     -12.098  11.035  69.996  1.00  0.00    -0.364 A  
HETATM    3  H1  UNL     1     -10.922  10.280  68.427  1.00  0.00     0.000 HD 
HETATM    4  H2  UNL     1     -12.092   9.299  69.064  1.00  0.00     0.000 HD 
HETATM    5  C   UNL     1     -12.795  10.710  71.170  1.00  0.00    -0.518 A  
HETATM    6  C   UNL     1     -13.347  11.702  72.007  1.00  0.00    -0.405 A  
HETATM    7  C   UNL     1     -13.172  13.054  71.717  1.00  0.00    -0.486 A  
HETATM    8  C   UNL     1     -12.441  13.361  70.586  1.00  0.00    -0.385 A  
HETATM    9  C   UNL     1     -11.919  12.388  69.750  1.00  0.00    -0.359 A  
HETATM   10  C   UNL     1     -11.241  13.084  68.652  1.00  0.00    -0.277 C  
HETATM   11  N   UNL     1     -11.357  14.426  68.900  1.00  0.00    -0.258 N  
HETATM   12  O   UNL     1     -10.730  12.534  67.693  1.00  0.00    -0.212 OA 
HETATM   13  C   UNL     1     -12.062  14.662  70.047  1.00  0.00    -0.329 C  
HETATM   14  O   UNL     1     -12.363  15.725  70.551  1.00  0.00    -0.402 OA 
ENDROOT
BRANCH  11  15
HETATM   15  C   UNL     1     -10.778  15.494  68.103  1.00  0.00    -0.282 C  
HETATM   16  C   UNL     1     -10.878  15.294  66.594  1.00  0.00    -0.310 C  
HETATM   17  C   UNL     1     -10.404  16.567  65.906  1.00  0.00    -0.365 C  
HETATM   18  C   UNL     1      -9.007  16.950  66.348  1.00  0.00    -0.283 C  
HETATM   19  O   UNL     1      -8.240  17.576  65.623  1.00  0.00    -0.505 OA 
HETATM   20  N   UNL     1      -8.644  16.602  67.627  1.00  0.00    -0.198 N  
HETATM   21  H   UNL     1      -7.788  17.024  67.989  1.00  0.00     0.000 HD 
HETATM   22  C   UNL     1      -9.313  15.743  68.473  1.00  0.00    -0.198 C  
HETATM   23  O   UNL     1      -8.755  15.266  69.458  1.00  0.00    -0.241 OA 
ENDBRANCH  11  15
TORSDOF 1
ENDMDL
MODEL       26
REMARK 921   NORMALIZED FREE ENERGY PREDICTED BY IDOCK:   -6.45 KCAL/MOL
REMARK 922        TOTAL FREE ENERGY PREDICTED BY IDOCK:   -6.87 KCAL/MOL
REMARK 923 INTER-LIGAND FREE ENERGY PREDICTED BY IDOCK:   -6.87 KCAL/MOL
REMARK 924 INTRA-LIGAND FREE ENERGY PREDICTED BY IDOCK:    0.00 KCAL/MOL
REMARK 927      BINDING AFFINITY PREDICTED BY RF-SCORE:    0.00 PKD
ROOT
HETATM    1  N   UNL     1     -10.994  11.163  63.194  1.00  0.00    -0.823 NA 
HETATM    2  C   UNL     1     -11.291  12.123  64.160  1.00  0.00    -0.380 A  
HETATM    3  H1  UNL     1     -10.531  10.295  63.459  1.00  0.00     0.000 HD 
HETATM    4  H2  UNL     1     -10.448  11.608  62.456  1.00  0.00     0.000 HD 
HETATM    5  C   UNL     1     -11.929  13.319  63.795  1.00  0.00    -0.551 A  
HETATM    6  C   UNL     1     -12.390  14.241  64.759  1.00  0.00    -0.440 A  
HETATM    7  C   UNL     1     -12.268  13.966  66.120  1.00  0.00    -0.498 A  
HETATM    8  C   UNL     1     -11.683  12.764  66.465  1.00  0.00    -0.463 A  
HETATM    9  C   UNL     1     -11.209  11.869  65.520  1.00  0.00    -0.353 A  
HETATM   10  C   UNL     1     -10.636  10.735  66.253  1.00  0.00    -0.192 C  
HETATM   11  N   UNL     1     -10.825  10.986  67.586  1.00  0.00    -0.237 N  
HETATM   12  O   UNL     1     -10.062   9.794  65.736  1.00  0.00    -0.293 OA 
HETATM   13  C   UNL     1     -11.453  12.185  67.784  1.00  0.00    -0.332 C  
HETATM   14  O   UNL     1     -11.759  12.722  68.829  1.00  0.00    -0.286 OA 
ENDROOT
BRANCH  11  15
HETATM   15  C   UNL     1     -10.470  10.099  68.681  1.00  0.00    -0.202 C  
HETATM   16  C   UNL     1     -11.493  10.033  69.810  1.00  0.00    -0.240 C  
HETATM   17  C   UNL     1     -11.073   8.935  70.778  1.00  0.00    -0.312 C  
HETATM   18  C   UNL     1      -9.663   9.152  71.286  1.00  0.00    -0.281 C  
HETATM   19  O   UNL     1      -9.295   8.751  72.386  1.00  0.00    -0.331 OA 
HETATM   20  N   UNL     1      -8.789   9.786  70.437  1.00  0.00    -0.327 N  
HETATM   21  H   UNL     1      -7.802   9.759  70.695  1.00  0.00     0.000 HD 
HETATM   22  C   UNL     1      -9.102  10.455  69.272  1.00  0.00    -0.175 C  
HETATM   23  O   UNL     1      -8.306  11.236  68.760  1.00  0.00    -0.154 OA 
ENDBRANCH  11  15
TORSDOF 1
ENDMDL
MODEL       27
REMARK 921   NORMALIZED FREE ENERGY PREDICTED BY IDOCK:   -6.43 KCAL/MOL
REMARK 922        TOTAL FREE ENERGY PREDICTED BY IDOCK:   -6.85 KCAL/MOL
REMARK 923 INTER-LIGAND FREE ENERGY PREDICTED BY IDOCK:   -6.87 KCAL/MOL
REMARK 924 INTRA-LIGAND FREE ENERGY PREDICTED BY IDOCK:    0.02 KCAL/MOL
REMARK 927      BINDING AFFINITY PREDICTED BY RF-SCORE:    0.00 PKD
ROOT
HETATM    1  N   UNL     1     -11.249  16.534  64.284  1.00  0.00    -1.353 NA 
HETATM    2  C   UNL     1     -10.787  16.885  65.552  1.00  0.00    -0.096 A  
HETATM    3  H1  UNL     1     -11.449  15.559  64.062  1.00  0.00     0.000 HD 
HETATM    4  H2  UNL     1     -10.591  16.894  63.592  1.00  0.00     0.000 HD 
HETATM    5  C   UNL     1     -10.513  18.227  65.858  1.00  0.00    -0.324 A  
HETATM    6  C   UNL     1     -10.200  18.644  67.170  1.00  0.00    -0.415 A  
HETATM    7  C   UNL     1     -10.204  17.731  68.223  1.00  0.00    -0.382 A  
HETATM    8  C   UNL     1     -10.525  16.424  67.918  1.00  0.00    -0.307 A  
HETATM    9  C   UNL     1     -10.808  16.009  66.626  1.00  0.00    -0.179 A  
HETATM   10  C   UNL     1     -11.069  14.567  66.686  1.00  0.00    -0.333 C  
HETATM   11  N   UNL     1     -10.967  14.199  68.002  1.00  0.00    -0.250 N  
HETATM   12  O   UNL     1     -11.281  13.860  65.718  1.00  0.00    -0.299 OA 
HETATM   13  C   UNL     1     -10.647  15.265  68.795  1.00  0.00    -0.240 C  
HETATM   14  O   UNL     1     -10.464  15.294  69.995  1.00  0.00    -0.277 OA 
ENDROOT
BRANCH  11  15
HETATM   15  C   UNL     1     -11.209  12.870  68.537  1.00  0.00    -0.274 C  
HETATM   16  C   UNL     1     -11.928  12.842  69.882  1.00  0.00    -0.377 C  
HETATM   17  C   UNL     1     -12.272  11.396  70.215  1.00  0.00    -0.433 C  
HETATM   18  C   UNL     1     -11.041  10.514  70.198  1.00  0.00    -0.298 C  
HETATM   19  O   UNL     1     -10.952   9.504  70.889  1.00  0.00    -0.281 OA 
HETATM   20  N   UNL     1     -10.035  10.871  69.334  1.00  0.00    -0.421 N  
HETATM   21  H   UNL     1      -9.299  10.181  69.180  1.00  0.00     0.000 HD 
HETATM   22  C   UNL     1      -9.912  12.064  68.652  1.00  0.00    -0.142 C  
HETATM   23  O   UNL     1      -8.839  12.400  68.158  1.00  0.00    -0.182 OA 
ENDBRANCH  11  15
TORSDOF 1
ENDMDL
MODEL       28
REMARK 921   NORMALIZED FREE ENERGY PREDICTED BY IDOCK:   -6.39 KCAL/MOL
REMARK 922        TOTAL FREE ENERGY PREDICTED BY IDOCK:   -6.81 KCAL/MOL
REMARK 923 INTER-LIGAND FREE ENERGY PREDICTED BY IDOCK:   -6.68 KCAL/MOL
REMARK 924 INTRA-LIGAND FREE ENERGY PREDICTED BY IDOCK:   -0.13 KCAL/MOL
REMARK 927      BINDING AFFINITY PREDICTED BY RF-SCORE:    0.00 PKD
ROOT
HETATM    1  N   UNL     1      -8.385   8.146  64.818  1.00  0.00    -0.292 NA 
HETATM    2  C   UNL     1      -9.231   8.266  65.920  1.00  0.00    -0.123 A  
HETATM    3  H1  UNL     1      -8.413   8.840  64.071  1.00  0.00     0.000 HD 
HETATM    4  H2  UNL     1      -8.524   7.223  64.405  1.00  0.00     0.000 HD 
HETATM    5  C   UNL     1      -9.192   7.311  66.947  1.00  0.00    -0.180 A  
HETATM    6  C   UNL     1      -9.911   7.481  68.150  1.00  0.00    -0.179 A  
HETATM    7  C   UNL     1     -10.652   8.640  68.376  1.00  0.00    -0.169 A  
HETATM    8  C   UNL     1     -10.641   9.594  67.378  1.00  0.00    -0.333 A  
HETATM    9  C   UNL     1      -9.955   9.418  66.187  1.00  0.00    -0.351 A  
HETATM   10  C   UNL     1     -10.197  10.612  65.371  1.00  0.00    -0.273 C  
HETATM   11  N   UNL     1     -10.978  11.452  66.120  1.00  0.00    -0.270 N  
HETATM   12  O   UNL     1      -9.803  10.764  64.229  1.00  0.00    -0.269 OA 
HETATM   13  C   UNL     1     -11.278  10.905  67.336  1.00  0.00    -0.273 C  
HETATM   14  O   UNL     1     -11.955  11.365  68.233  1.00  0.00    -0.566 OA 
ENDROOT
BRANCH  11  15
HETATM   15  C   UNL     1     -11.414  12.784  65.732  1.00  0.00    -0.348 C  
HETATM   16  C   UNL     1     -11.942  12.894  64.305  1.00  0.00    -0.463 C  
HETATM   17  C   UNL     1     -12.526  14.288  64.114  1.00  0.00    -0.256 C  
HETATM   18  C   UNL     1     -11.513  15.365  64.442  1.00  0.00    -0.255 C  
HETATM   19  O   UNL     1     -11.542  16.471  63.913  1.00  0.00    -1.175 OA 
HETATM   20  N   UNL     1     -10.577  15.063  65.401  1.00  0.00    -0.349 N  
HETATM   21  H   UNL     1     -10.023  15.842  65.759  1.00  0.00     0.000 HD 
HETATM   22  C   UNL     1     -10.304  13.819  65.931  1.00  0.00    -0.309 C  
HETATM   23  O   UNL     1      -9.259  13.610  66.541  1.00  0.00    -0.248 OA 
ENDBRANCH  11  15
TORSDOF 1
ENDMDL
MODEL       29
REMARK 921   NORMALIZED FREE ENERGY PREDICTED BY IDOCK:   -6.39 KCAL/MOL
REMARK 922        TOTAL FREE ENERGY PREDICTED BY IDOCK:   -6.81 KCAL/MOL
REMARK 923 INTER-LIGAND FREE ENERGY PREDICTED BY IDOCK:   -6.77 KCAL/MOL
REMARK 924 INTRA-LIGAND FREE ENERGY PREDICTED BY IDOCK:   -0.04 KCAL/MOL
REMARK 927      BINDING AFFINITY PREDICTED BY RF-SCORE:    0.00 PKD
ROOT
HETATM    1  N   UNL     1     -11.385   8.941  69.610  1.00  0.00    -0.431 NA 
HETATM    2  C   UNL     1     -10.592   8.903  68.464  1.00  0.00    -0.141 A  
HETATM    3  H1  UNL     1     -11.853   9.806  69.881  1.00  0.00     0.000 HD 
HETATM    4  H2  UNL     1     -10.825   8.617  70.399  1.00  0.00     0.000 HD 
HETATM    5  C   UNL     1      -9.948   7.713  68.091  1.00  0.00    -0.203 A  
HETATM    6  C   UNL     1      -9.271   7.587  66.859  1.00  0.00    -0.181 A  
HETATM    7  C   UNL     1      -9.263   8.638  65.943  1.00  0.00    -0.264 A  
HETATM    8  C   UNL     1      -9.943   9.785  66.302  1.00  0.00    -0.331 A  
HETATM    9  C   UNL     1     -10.587   9.918  67.521  1.00  0.00    -0.333 A  
HETATM   10  C   UNL     1     -11.163  11.266  67.557  1.00  0.00    -0.291 C  
HETATM   11  N   UNL     1     -10.870  11.856  66.356  1.00  0.00    -0.267 N  
HETATM   12  O   UNL     1     -11.740  11.749  68.514  1.00  0.00    -0.295 OA 
HETATM   13  C   UNL     1     -10.144  11.021  65.553  1.00  0.00    -0.261 C  
HETATM   14  O   UNL     1      -9.705  11.224  64.440  1.00  0.00    -0.237 OA 
ENDROOT
BRANCH  11  15
HETATM   15  C   UNL     1     -11.299  13.177  65.926  1.00  0.00    -0.311 C  
HETATM   16  C   UNL     1     -11.832  13.244  64.498  1.00  0.00    -0.433 C  
HETATM   17  C   UNL     1     -12.409  14.634  64.264  1.00  0.00    -0.375 C  
HETATM   18  C   UNL     1     -11.388  15.715  64.553  1.00  0.00    -0.320 C  
HETATM   19  O   UNL     1     -11.412  16.804  63.988  1.00  0.00    -1.198 OA 
HETATM   20  N   UNL     1     -10.450  15.439  65.517  1.00  0.00    -0.350 N  
HETATM   21  H   UNL     1      -9.891  16.226  65.847  1.00  0.00     0.000 HD 
HETATM   22  C   UNL     1     -10.182  14.212  66.087  1.00  0.00    -0.304 C  
HETATM   23  O   UNL     1      -9.136  14.016  66.700  1.00  0.00    -0.250 OA 
ENDBRANCH  11  15
TORSDOF 1
ENDMDL
MODEL       30
REMARK 921   NORMALIZED FREE ENERGY PREDICTED BY IDOCK:   -6.36 KCAL/MOL
REMARK 922        TOTAL FREE ENERGY PREDICTED BY IDOCK:   -6.78 KCAL/MOL
REMARK 923 INTER-LIGAND FREE ENERGY PREDICTED BY IDOCK:   -6.64 KCAL/MOL
REMARK 924 INTRA-LIGAND FREE ENERGY PREDICTED BY IDOCK:   -0.14 KCAL/MOL
REMARK 927      BINDING AFFINITY PREDICTED BY RF-SCORE:    0.00 PKD
ROOT
HETATM    1  N   UNL     1      -9.704   8.255  66.170  1.00  0.00    -0.438 NA 
HETATM    2  C   UNL     1     -10.338   8.725  67.320  1.00  0.00    -0.290 A  
HETATM    3  H1  UNL     1      -9.707   8.815  65.318  1.00  0.00     0.000 HD 
HETATM    4  H2  UNL     1     -10.080   7.333  65.951  1.00  0.00     0.000 HD 
HETATM    5  C   UNL     1     -10.333   7.954  68.493  1.00  0.00    -0.229 A  
HETATM    6  C   UNL     1     -10.820   8.460  69.718  1.00  0.00    -0.184 A  
HETATM    7  C   UNL     1     -11.279   9.773  69.812  1.00  0.00    -0.242 A  
HETATM    8  C   UNL     1     -11.230  10.536  68.662  1.00  0.00    -0.328 A  
HETATM    9  C   UNL     1     -10.776  10.033  67.454  1.00  0.00    -0.336 A  
HETATM   10  C   UNL     1     -10.899  11.111  66.467  1.00  0.00    -0.245 C  
HETATM   11  N   UNL     1     -11.382  12.206  67.133  1.00  0.00    -0.309 N  
HETATM   12  O   UNL     1     -10.657  10.995  65.280  1.00  0.00    -0.268 OA 
HETATM   13  C   UNL     1     -11.599  11.931  68.455  1.00  0.00    -0.317 C  
HETATM   14  O   UNL     1     -12.034  12.660  69.323  1.00  0.00    -0.292 OA 
ENDROOT
BRANCH  11  15
HETATM   15  C   UNL     1     -11.603  13.524  66.561  1.00  0.00    -0.359 C  
HETATM   16  C   UNL     1     -12.336  13.527  65.224  1.00  0.00    -0.506 C  
HETATM   17  C   UNL     1     -12.654  14.970  64.851  1.00  0.00     0.094 C  
HETATM   18  C   UNL     1     -11.405  15.826  64.829  1.00  0.00    -0.314 C  
HETATM   19  O   UNL     1     -11.302  16.813  64.108  1.00  0.00    -1.194 OA 
HETATM   20  N   UNL     1     -10.396  15.473  65.692  1.00  0.00    -0.354 N  
HETATM   21  H   UNL     1      -9.645  16.152  65.818  1.00  0.00     0.000 HD 
HETATM   22  C   UNL     1     -10.291  14.298  66.408  1.00  0.00    -0.286 C  
HETATM   23  O   UNL     1      -9.220  13.954  66.901  1.00  0.00    -0.242 OA 
ENDBRANCH  11  15
TORSDOF 1
ENDMDL
MODEL       31
REMARK 921   NORMALIZED FREE ENERGY PREDICTED BY IDOCK:   -6.36 KCAL/MOL
REMARK 922        TOTAL FREE ENERGY PREDICTED BY IDOCK:   -6.77 KCAL/MOL
REMARK 923 INTER-LIGAND FREE ENERGY PREDICTED BY IDOCK:   -7.11 KCAL/MOL
REMARK 924 INTRA-LIGAND FREE ENERGY PREDICTED BY IDOCK:    0.33 KCAL/MOL
REMARK 927      BINDING AFFINITY PREDICTED BY RF-SCORE:    0.00 PKD
ROOT
HETATM    1  N   UNL     1      -6.967  17.639  69.117  1.00  0.00    -0.247 NA 
HETATM    2  C   UNL     1      -7.875  18.313  68.301  1.00  0.00    -0.298 A  
HETATM    3  H1  UNL     1      -7.038  16.629  69.238  1.00  0.00     0.000 HD 
HETATM    4  H2  UNL     1      -6.978  18.076  70.039  1.00  0.00     0.000 HD 
HETATM    5  C   UNL     1      -7.777  19.703  68.133  1.00  0.00    -0.344 A  
HETATM    6  C   UNL     1      -8.569  20.398  67.195  1.00  0.00    -0.402 A  
HETATM    7  C   UNL     1      -9.449  19.710  66.361  1.00  0.00    -0.479 A  
HETATM    8  C   UNL     1      -9.499  18.337  66.502  1.00  0.00    -0.312 A  
HETATM    9  C   UNL     1      -8.739  17.656  67.439  1.00  0.00    -0.235 A  
HETATM   10  C   UNL     1      -9.078  16.235  67.315  1.00  0.00    -0.203 C  
HETATM   11  N   UNL     1      -9.987  16.130  66.296  1.00  0.00    -0.296 N  
HETATM   12  O   UNL     1      -8.648  15.354  68.038  1.00  0.00    -0.149 OA 
HETATM   13  C   UNL     1     -10.281  17.353  65.761  1.00  0.00    -0.191 C  
HETATM   14  O   UNL     1     -11.051  17.627  64.863  1.00  0.00    -0.854 OA 
ENDROOT
BRANCH  11  15
HETATM   15  C   UNL     1     -10.554  14.894  65.782  1.00  0.00    -0.331 C  
HETATM   16  C   UNL     1     -11.061  14.972  64.346  1.00  0.00    -0.120 C  
HETATM   17  C   UNL     1     -11.447  13.569  63.894  1.00  0.00    -0.289 C  
HETATM   18  C   UNL     1     -12.456  12.941  64.832  1.00  0.00    -0.478 C  
HETATM   19  O   UNL     1     -13.267  12.102  64.453  1.00  0.00    -0.758 OA 
HETATM   20  N   UNL     1     -12.396  13.320  66.151  1.00  0.00    -0.394 N  
HETATM   21  H   UNL     1     -12.937  12.761  66.812  1.00  0.00     0.000 HD 
HETATM   22  C   UNL     1     -11.681  14.375  66.679  1.00  0.00    -0.394 C  
HETATM   23  O   UNL     1     -11.935  14.811  67.798  1.00  0.00    -0.334 OA 
ENDBRANCH  11  15
TORSDOF 1
ENDMDL
MODEL       32
REMARK 921   NORMALIZED FREE ENERGY PREDICTED BY IDOCK:   -6.35 KCAL/MOL
REMARK 922        TOTAL FREE ENERGY PREDICTED BY IDOCK:   -6.77 KCAL/MOL
REMARK 923 INTER-LIGAND FREE ENERGY PREDICTED BY IDOCK:   -6.67 KCAL/MOL
REMARK 924 INTRA-LIGAND FREE ENERGY PREDICTED BY IDOCK:   -0.09 KCAL/MOL
REMARK 927      BINDING AFFINITY PREDICTED BY RF-SCORE:    0.00 PKD
ROOT
HETATM    1  N   UNL     1      -9.717   8.426  67.774  1.00  0.00    -0.156 NA 
HETATM    2  C   UNL     1     -10.480   9.086  68.737  1.00  0.00    -0.206 A  
HETATM    3  H1  UNL     1      -9.652   8.799  66.828  1.00  0.00     0.000 HD 
HETATM    4  H2  UNL     1     -10.037   7.459  67.718  1.00  0.00     0.000 HD 
HETATM    5  C   UNL     1     -10.569   8.572  70.041  1.00  0.00    -0.230 A  
HETATM    6  C   UNL     1     -11.195   9.290  71.082  1.00  0.00    -0.413 A  
HETATM    7  C   UNL     1     -11.706  10.567  70.857  1.00  0.00    -0.431 A  
HETATM    8  C   UNL     1     -11.566  11.081  69.583  1.00  0.00    -0.390 A  
HETATM    9  C   UNL     1     -10.974  10.368  68.553  1.00  0.00    -0.302 A  
HETATM   10  C   UNL     1     -11.032  11.213  67.357  1.00  0.00    -0.290 C  
HETATM   11  N   UNL     1     -11.618  12.393  67.732  1.00  0.00    -0.333 N  
HETATM   12  O   UNL     1     -10.666  10.871  66.247  1.00  0.00    -0.243 OA 
HETATM   13  C   UNL     1     -11.958  12.383  69.056  1.00  0.00    -0.241 C  
HETATM   14  O   UNL     1     -12.504  13.249  69.709  1.00  0.00    -0.173 OA 
ENDROOT
BRANCH  11  15
HETATM   15  C   UNL     1     -11.823  13.553  66.880  1.00  0.00    -0.407 C  
HETATM   16  C   UNL     1     -12.297  13.232  65.466  1.00  0.00    -0.533 C  
HETATM   17  C   UNL     1     -12.643  14.540  64.765  1.00  0.00    -0.232 C  
HETATM   18  C   UNL     1     -11.476  15.504  64.780  1.00  0.00    -0.313 C  
HETATM   19  O   UNL     1     -11.313  16.347  63.904  1.00  0.00    -0.967 OA 
HETATM   20  N   UNL     1     -10.620  15.425  65.852  1.00  0.00    -0.322 N  
HETATM   21  H   UNL     1      -9.955  16.191  65.962  1.00  0.00     0.000 HD 
HETATM   22  C   UNL     1     -10.564  14.420  66.795  1.00  0.00    -0.282 C  
HETATM   23  O   UNL     1      -9.579  14.288  67.518  1.00  0.00    -0.209 OA 
ENDBRANCH  11  15
TORSDOF 1
ENDMDL
MODEL       33
REMARK 921   NORMALIZED FREE ENERGY PREDICTED BY IDOCK:   -6.35 KCAL/MOL
REMARK 922        TOTAL FREE ENERGY PREDICTED BY IDOCK:   -6.76 KCAL/MOL
REMARK 923 INTER-LIGAND FREE ENERGY PREDICTED BY IDOCK:   -6.75 KCAL/MOL
REMARK 924 INTRA-LIGAND FREE ENERGY PREDICTED BY IDOCK:   -0.01 KCAL/MOL
REMARK 927      BINDING AFFINITY PREDICTED BY RF-SCORE:    0.00 PKD
ROOT
HETATM    1  N   UNL     1     -10.077   8.717  69.690  1.00  0.00    -0.198 NA 
HETATM    2  C   UNL     1     -11.065   9.604  70.119  1.00  0.00    -0.269 A  
HETATM    3  H1  UNL     1      -9.511   8.938  68.871  1.00  0.00     0.000 HD 
HETATM    4  H2  UNL     1     -10.507   7.803  69.548  1.00  0.00     0.000 HD 
HETATM    5  C   UNL     1     -11.844   9.301  71.247  1.00  0.00    -0.415 A  
HETATM    6  C   UNL     1     -12.738  10.237  71.807  1.00  0.00    -0.535 A  
HETATM    7  C   UNL     1     -12.840  11.524  71.282  1.00  0.00    -0.463 A  
HETATM    8  C   UNL     1     -12.031  11.825  70.204  1.00  0.00    -0.421 A  
HETATM    9  C   UNL     1     -11.170  10.899  69.637  1.00  0.00    -0.348 A  
HETATM   10  C   UNL     1     -10.507  11.563  68.510  1.00  0.00    -0.208 C  
HETATM   11  N   UNL     1     -10.971  12.851  68.478  1.00  0.00    -0.249 N  
HETATM   12  O   UNL     1      -9.737  11.018  67.740  1.00  0.00    -0.166 OA 
HETATM   13  C   UNL     1     -11.885  13.077  69.470  1.00  0.00    -0.323 C  
HETATM   14  O   UNL     1     -12.502  14.093  69.721  1.00  0.00    -0.332 OA 
ENDROOT
BRANCH  11  15
HETATM   15  C   UNL     1     -10.539  13.892  67.560  1.00  0.00    -0.256 C  
HETATM   16  C   UNL     1     -10.342  15.264  68.196  1.00  0.00    -0.242 C  
HETATM   17  C   UNL     1      -9.715  16.189  67.161  1.00  0.00    -0.236 C  
HETATM   18  C   UNL     1     -10.545  16.250  65.896  1.00  0.00    -0.297 C  
HETATM   19  O   UNL     1     -10.556  17.238  65.168  1.00  0.00    -0.686 OA 
HETATM   20  N   UNL     1     -11.259  15.124  65.568  1.00  0.00    -0.340 N  
HETATM   21  H   UNL     1     -11.657  15.093  64.629  1.00  0.00     0.000 HD 
HETATM   22  C   UNL     1     -11.495  14.028  66.373  1.00  0.00    -0.352 C  
HETATM   23  O   UNL     1     -12.387  13.228  66.103  1.00  0.00    -0.412 OA 
ENDBRANCH  11  15
TORSDOF 1
ENDMDL
MODEL       34
REMARK 921   NORMALIZED FREE ENERGY PREDICTED BY IDOCK:   -6.34 KCAL/MOL
REMARK 922        TOTAL FREE ENERGY PREDICTED BY IDOCK:   -6.75 KCAL/MOL
REMARK 923 INTER-LIGAND FREE ENERGY PREDICTED BY IDOCK:   -6.98 KCAL/MOL
REMARK 924 INTRA-LIGAND FREE ENERGY PREDICTED BY IDOCK:    0.23 KCAL/MOL
REMARK 927      BINDING AFFINITY PREDICTED BY RF-SCORE:    0.00 PKD
ROOT
HETATM    1  N   UNL     1     -11.005  16.492  69.857  1.00  0.00    -0.377 NA 
HETATM    2  C   UNL     1     -11.191  15.757  68.687  1.00  0.00    -0.351 A  
HETATM    3  H1  UNL     1     -11.228  16.080  70.763  1.00  0.00     0.000 HD 
HETATM    4  H2  UNL     1     -11.514  17.371  69.770  1.00  0.00     0.000 HD 
HETATM    5  C   UNL     1     -10.884  16.325  67.441  1.00  0.00    -0.242 A  
HETATM    6  C   UNL     1     -10.905  15.565  66.251  1.00  0.00    -0.283 A  
HETATM    7  C   UNL     1     -11.187  14.201  66.285  1.00  0.00    -0.329 A  
HETATM    8  C   UNL     1     -11.438  13.645  67.524  1.00  0.00    -0.360 A  
HETATM    9  C   UNL     1     -11.442  14.394  68.689  1.00  0.00    -0.316 A  
HETATM   10  C   UNL     1     -11.774  13.479  69.786  1.00  0.00    -0.295 C  
HETATM   11  N   UNL     1     -11.916  12.233  69.236  1.00  0.00    -0.283 N  
HETATM   12  O   UNL     1     -11.935  13.816  70.945  1.00  0.00    -0.312 OA 
HETATM   13  C   UNL     1     -11.723  12.260  67.882  1.00  0.00    -0.347 C  
HETATM   14  O   UNL     1     -11.789  11.347  67.085  1.00  0.00    -0.566 OA 
ENDROOT
BRANCH  11  15
HETATM   15  C   UNL     1     -12.185  11.004  69.964  1.00  0.00    -0.343 C  
HETATM   16  C   UNL     1     -12.898  11.194  71.299  1.00  0.00    -0.515 C  
HETATM   17  C   UNL     1     -13.273   9.822  71.845  1.00  0.00    -0.545 C  
HETATM   18  C   UNL     1     -12.062   8.920  71.957  1.00  0.00    -0.371 C  
HETATM   19  O   UNL     1     -11.992   8.022  72.790  1.00  0.00    -0.337 OA 
HETATM   20  N   UNL     1     -11.052   9.121  71.048  1.00  0.00    -0.278 N  
HETATM   21  H   UNL     1     -10.334   8.398  70.997  1.00  0.00     0.000 HD 
HETATM   22  C   UNL     1     -10.906  10.195  70.196  1.00  0.00    -0.311 C  
HETATM   23  O   UNL     1      -9.829  10.429  69.655  1.00  0.00    -0.213 OA 
ENDBRANCH  11  15
TORSDOF 1
ENDMDL
MODEL       35
REMARK 921   NORMALIZED FREE ENERGY PREDICTED BY IDOCK:   -6.33 KCAL/MOL
REMARK 922        TOTAL FREE ENERGY PREDICTED BY IDOCK:   -6.74 KCAL/MOL
REMARK 923 INTER-LIGAND FREE ENERGY PREDICTED BY IDOCK:   -6.87 KCAL/MOL
REMARK 924 INTRA-LIGAND FREE ENERGY PREDICTED BY IDOCK:    0.13 KCAL/MOL
REMARK 927      BINDING AFFINITY PREDICTED BY RF-SCORE:    0.00 PKD
ROOT
HETATM    1  N   UNL     1     -12.692   8.258  72.781  1.00  0.00    -0.609 NA 
HETATM    2  C   UNL     1     -11.412   8.573  72.327  1.00  0.00    -0.375 A  
HETATM    3  H1  UNL     1     -13.503   8.752  72.411  1.00  0.00     0.000 HD 
HETATM    4  H2  UNL     1     -12.701   8.339  73.798  1.00  0.00     0.000 HD 
HETATM    5  C   UNL     1     -10.294   7.891  72.835  1.00  0.00    -0.413 A  
HETATM    6  C   UNL     1      -9.004   8.065  72.289  1.00  0.00    -0.230 A  
HETATM    7  C   UNL     1      -8.807   8.890  71.184  1.00  0.00    -0.297 A  
HETATM    8  C   UNL     1      -9.922   9.515  70.662  1.00  0.00    -0.342 A  
HETATM    9  C   UNL     1     -11.185   9.365  71.212  1.00  0.00    -0.437 A  
HETATM   10  C   UNL     1     -12.100  10.192  70.419  1.00  0.00    -0.246 C  
HETATM   11  N   UNL     1     -11.355  10.763  69.421  1.00  0.00    -0.261 N  
HETATM   12  O   UNL     1     -13.281  10.354  70.667  1.00  0.00    -0.350 OA 
HETATM   13  C   UNL     1     -10.041  10.396  69.506  1.00  0.00    -0.219 C  
HETATM   14  O   UNL     1      -9.110  10.726  68.800  1.00  0.00    -0.165 OA 
ENDROOT
BRANCH  11  15
HETATM   15  C   UNL     1     -11.863  11.615  68.358  1.00  0.00    -0.278 C  
HETATM   16  C   UNL     1     -11.114  11.501  67.034  1.00  0.00    -0.365 C  
HETATM   17  C   UNL     1     -11.870  12.301  65.982  1.00  0.00    -0.409 C  
HETATM   18  C   UNL     1     -12.069  13.739  66.414  1.00  0.00    -0.444 C  
HETATM   19  O   UNL     1     -12.168  14.657  65.605  1.00  0.00    -0.295 OA 
HETATM   20  N   UNL     1     -12.180  13.971  67.763  1.00  0.00    -0.528 N  
HETATM   21  H   UNL     1     -12.504  14.898  68.041  1.00  0.00     0.000 HD 
HETATM   22  C   UNL     1     -11.898  13.085  68.782  1.00  0.00    -0.317 C  
HETATM   23  O   UNL     1     -11.734  13.480  69.934  1.00  0.00    -0.292 OA 
ENDBRANCH  11  15
TORSDOF 1
ENDMDL
MODEL       36
REMARK 921   NORMALIZED FREE ENERGY PREDICTED BY IDOCK:   -6.32 KCAL/MOL
REMARK 922        TOTAL FREE ENERGY PREDICTED BY IDOCK:   -6.73 KCAL/MOL
REMARK 923 INTER-LIGAND FREE ENERGY PREDICTED BY IDOCK:   -6.75 KCAL/MOL
REMARK 924 INTRA-LIGAND FREE ENERGY PREDICTED BY IDOCK:    0.02 KCAL/MOL
REMARK 927      BINDING AFFINITY PREDICTED BY RF-SCORE:    0.00 PKD
ROOT
HETATM    1  N   UNL     1     -12.180  14.835  69.504  1.00  0.00    -0.491 NA 
HETATM    2  C   UNL     1     -12.030  13.917  68.465  1.00  0.00    -0.359 A  
HETATM    3  H1  UNL     1     -12.303  14.509  70.463  1.00  0.00     0.000 HD 
HETATM    4  H2  UNL     1     -12.955  15.457  69.274  1.00  0.00     0.000 HD 
HETATM    5  C   UNL     1     -11.860  14.366  67.146  1.00  0.00    -0.437 A  
HETATM    6  C   UNL     1     -11.546  13.481  66.093  1.00  0.00    -0.371 A  
HETATM    7  C   UNL     1     -11.343  12.125  66.342  1.00  0.00    -0.411 A  
HETATM    8  C   UNL     1     -11.463  11.705  67.652  1.00  0.00    -0.373 A  
HETATM    9  C   UNL     1     -11.796  12.569  68.683  1.00  0.00    -0.340 A  
HETATM   10  C   UNL     1     -11.860  11.768  69.910  1.00  0.00    -0.348 C  
HETATM   11  N   UNL     1     -11.531  10.484  69.564  1.00  0.00    -0.262 N  
HETATM   12  O   UNL     1     -12.199  12.194  70.999  1.00  0.00    -0.310 OA 
HETATM   13  C   UNL     1     -11.276  10.377  68.225  1.00  0.00    -0.267 C  
HETATM   14  O   UNL     1     -10.974   9.391  67.584  1.00  0.00    -0.223 OA 
ENDROOT
BRANCH  11  15
HETATM   15  C   UNL     1     -11.405   9.360  70.477  1.00  0.00    -0.274 C  
HETATM   16  C   UNL     1     -12.375   9.380  71.655  1.00  0.00    -0.465 C  
HETATM   17  C   UNL     1     -12.250   8.060  72.405  1.00  0.00    -0.337 C  
HETATM   18  C   UNL     1     -10.822   7.799  72.835  1.00  0.00    -0.392 C  
HETATM   19  O   UNL     1     -10.550   7.132  73.828  1.00  0.00    -0.377 OA 
HETATM   20  N   UNL     1      -9.830   8.309  72.033  1.00  0.00    -0.230 N  
HETATM   21  H   UNL     1      -8.882   7.974  72.210  1.00  0.00     0.000 HD 
HETATM   22  C   UNL     1      -9.978   9.227  71.014  1.00  0.00    -0.293 C  
HETATM   23  O   UNL     1      -9.010   9.841  70.573  1.00  0.00    -0.187 OA 
ENDBRANCH  11  15
TORSDOF 1
ENDMDL
MODEL       37
REMARK 921   NORMALIZED FREE ENERGY PREDICTED BY IDOCK:   -6.31 KCAL/MOL
REMARK 922        TOTAL FREE ENERGY PREDICTED BY IDOCK:   -6.72 KCAL/MOL
REMARK 923 INTER-LIGAND FREE ENERGY PREDICTED BY IDOCK:   -6.68 KCAL/MOL
REMARK 924 INTRA-LIGAND FREE ENERGY PREDICTED BY IDOCK:   -0.04 KCAL/MOL
REMARK 927      BINDING AFFINITY PREDICTED BY RF-SCORE:    0.00 PKD
ROOT
HETATM    1  N   UNL     1     -13.052  12.481  71.691  1.00  0.00    -0.376 NA 
HETATM    2  C   UNL     1     -12.532  13.551  70.964  1.00  0.00    -0.369 A  
HETATM    3  H1  UNL     1     -13.156  11.566  71.254  1.00  0.00     0.000 HD 
HETATM    4  H2  UNL     1     -13.956  12.761  72.072  1.00  0.00     0.000 HD 
HETATM    5  C   UNL     1     -12.389  14.811  71.567  1.00  0.00    -0.404 A  
HETATM    6  C   UNL     1     -11.721  15.874  70.921  1.00  0.00    -0.456 A  
HETATM    7  C   UNL     1     -11.134  15.688  69.671  1.00  0.00    -0.299 A  
HETATM    8  C   UNL     1     -11.239  14.429  69.111  1.00  0.00    -0.300 A  
HETATM    9  C   UNL     1     -11.915  13.392  69.733  1.00  0.00    -0.396 A  
HETATM   10  C   UNL     1     -11.842  12.234  68.837  1.00  0.00    -0.303 C  
HETATM   11  N   UNL     1     -11.102  12.619  67.750  1.00  0.00    -0.235 N  
HETATM   12  O   UNL     1     -12.393  11.167  69.036  1.00  0.00    -0.479 OA 
HETATM   13  C   UNL     1     -10.706  13.923  67.852  1.00  0.00    -0.240 C  
HETATM   14  O   UNL     1     -10.057  14.586  67.068  1.00  0.00    -0.250 OA 
ENDROOT
BRANCH  11  15
HETATM   15  C   UNL     1     -10.721  11.769  66.634  1.00  0.00    -0.263 C  
HETATM   16  C   UNL     1      -9.257  11.876  66.220  1.00  0.00    -0.218 C  
HETATM   17  C   UNL     1      -8.971  10.803  65.177  1.00  0.00    -0.215 C  
HETATM   18  C   UNL     1      -9.915  10.909  63.998  1.00  0.00    -0.344 C  
HETATM   19  O   UNL     1      -9.598  10.541  62.871  1.00  0.00    -0.310 OA 
HETATM   20  N   UNL     1     -11.173  11.398  64.254  1.00  0.00    -0.289 N  
HETATM   21  H   UNL     1     -11.865  11.289  63.511  1.00  0.00     0.000 HD 
HETATM   22  C   UNL     1     -11.602  12.022  65.407  1.00  0.00    -0.286 C  
HETATM   23  O   UNL     1     -12.634  12.687  65.418  1.00  0.00    -0.641 OA 
ENDBRANCH  11  15
TORSDOF 1
ENDMDL
MODEL       38
REMARK 921   NORMALIZED FREE ENERGY PREDICTED BY IDOCK:   -6.27 KCAL/MOL
REMARK 922        TOTAL FREE ENERGY PREDICTED BY IDOCK:   -6.68 KCAL/MOL
REMARK 923 INTER-LIGAND FREE ENERGY PREDICTED BY IDOCK:   -6.77 KCAL/MOL
REMARK 924 INTRA-LIGAND FREE ENERGY PREDICTED BY IDOCK:    0.09 KCAL/MOL
REMARK 927      BINDING AFFINITY PREDICTED BY RF-SCORE:    0.00 PKD
ROOT
HETATM    1  N   UNL     1      -7.243  18.461  65.639  1.00  0.00    -0.532 NA 
HETATM    2  C   UNL     1      -8.078  18.384  66.753  1.00  0.00    -0.251 A  
HETATM    3  H1  UNL     1      -7.297  17.754  64.907  1.00  0.00     0.000 HD 
HETATM    4  H2  UNL     1      -6.277  18.514  65.965  1.00  0.00     0.000 HD 
HETATM    5  C   UNL     1      -8.004  19.358  67.760  1.00  0.00    -0.321 A  
HETATM    6  C   UNL     1      -8.936  19.408  68.819  1.00  0.00    -0.396 A  
HETATM    7  C   UNL     1     -10.000  18.510  68.870  1.00  0.00    -0.383 A  
HETATM    8  C   UNL     1     -10.091  17.589  67.845  1.00  0.00    -0.330 A  
HETATM    9  C   UNL     1      -9.163  17.523  66.818  1.00  0.00    -0.277 A  
HETATM   10  C   UNL     1      -9.566  16.416  65.945  1.00  0.00    -0.274 C  
HETATM   11  N   UNL     1     -10.723  15.900  66.466  1.00  0.00    -0.293 N  
HETATM   12  O   UNL     1      -8.933  16.028  64.981  1.00  0.00     0.663 OA 
HETATM   13  C   UNL     1     -11.096  16.560  67.604  1.00  0.00    -0.127 C  
HETATM   14  O   UNL     1     -12.053  16.356  68.323  1.00  0.00     0.207 OA 
ENDROOT
BRANCH  11  15
HETATM   15  C   UNL     1     -11.513  14.825  65.890  1.00  0.00    -0.319 C  
HETATM   16  C   UNL     1     -10.838  13.457  65.901  1.00  0.00    -0.282 C  
HETATM   17  C   UNL     1     -11.851  12.416  65.443  1.00  0.00    -0.460 C  
HETATM   18  C   UNL     1     -12.432  12.764  64.088  1.00  0.00    -0.369 C  
HETATM   19  O   UNL     1     -12.837  11.906  63.311  1.00  0.00    -0.702 OA 
HETATM   20  N   UNL     1     -12.529  14.099  63.781  1.00  0.00    -1.009 N  
HETATM   21  H   UNL     1     -13.092  14.339  62.964  1.00  0.00     0.000 HD 
HETATM   22  C   UNL     1     -11.948  15.151  64.458  1.00  0.00    -0.319 C  
HETATM   23  O   UNL     1     -11.841  16.256  63.934  1.00  0.00    -0.994 OA 
ENDBRANCH  11  15
TORSDOF 1
ENDMDL
MODEL       39
REMARK 921   NORMALIZED FREE ENERGY PREDICTED BY IDOCK:   -6.15 KCAL/MOL
REMARK 922        TOTAL FREE ENERGY PREDICTED BY IDOCK:   -6.55 KCAL/MOL
REMARK 923 INTER-LIGAND FREE ENERGY PREDICTED BY IDOCK:   -6.40 KCAL/MOL
REMARK 924 INTRA-LIGAND FREE ENERGY PREDICTED BY IDOCK:   -0.15 KCAL/MOL
REMARK 927      BINDING AFFINITY PREDICTED BY RF-SCORE:    0.00 PKD
ROOT
HETATM    1  N   UNL     1      -9.789  20.038  65.479  1.00  0.00    -0.433 NA 
HETATM    2  C   UNL     1      -8.830  19.680  66.426  1.00  0.00    -0.376 A  
HETATM    3  H1  UNL     1     -10.399  19.328  65.074  1.00  0.00     0.000 HD 
HETATM    4  H2  UNL     1      -9.322  20.534  64.720  1.00  0.00     0.000 HD 
HETATM    5  C   UNL     1      -7.991  20.657  66.985  1.00  0.00    -0.292 A  
HETATM    6  C   UNL     1      -7.121  20.367  68.058  1.00  0.00    -0.301 A  
HETATM    7  C   UNL     1      -7.104  19.098  68.634  1.00  0.00    -0.353 A  
HETATM    8  C   UNL     1      -7.971  18.160  68.108  1.00  0.00    -0.290 A  
HETATM    9  C   UNL     1      -8.808  18.437  67.039  1.00  0.00    -0.271 A  
HETATM   10  C   UNL     1      -9.548  17.207  66.743  1.00  0.00    -0.270 C  
HETATM   11  N   UNL     1      -9.150  16.273  67.663  1.00  0.00    -0.193 N  
HETATM   12  O   UNL     1     -10.322  17.069  65.814  1.00  0.00    -0.483 OA 
HETATM   13  C   UNL     1      -8.208  16.780  68.514  1.00  0.00    -0.242 C  
HETATM   14  O   UNL     1      -7.632  16.228  69.430  1.00  0.00    -0.230 OA 
ENDROOT
BRANCH  11  15
HETATM   15  C   UNL     1      -9.671  14.921  67.787  1.00  0.00    -0.212 C  
HETATM   16  C   UNL     1      -9.673  14.114  66.493  1.00  0.00    -0.307 C  
HETATM   17  C   UNL     1     -10.065  12.679  66.820  1.00  0.00    -0.243 C  
HETATM   18  C   UNL     1     -11.393  12.617  67.543  1.00  0.00    -0.308 C  
HETATM   19  O   UNL     1     -12.138  11.645  67.462  1.00  0.00    -0.611 OA 
HETATM   20  N   UNL     1     -11.716  13.689  68.341  1.00  0.00    -0.338 N  
HETATM   21  H   UNL     1     -12.507  13.565  68.973  1.00  0.00     0.000 HD 
HETATM   22  C   UNL     1     -11.083  14.914  68.378  1.00  0.00    -0.273 C  
HETATM   23  O   UNL     1     -11.628  15.890  68.887  1.00  0.00    -0.371 OA 
ENDBRANCH  11  15
TORSDOF 1
ENDMDL
MODEL       40
REMARK 921   NORMALIZED FREE ENERGY PREDICTED BY IDOCK:   -6.10 KCAL/MOL
REMARK 922        TOTAL FREE ENERGY PREDICTED BY IDOCK:   -6.50 KCAL/MOL
REMARK 923 INTER-LIGAND FREE ENERGY PREDICTED BY IDOCK:   -6.54 KCAL/MOL
REMARK 924 INTRA-LIGAND FREE ENERGY PREDICTED BY IDOCK:    0.05 KCAL/MOL
REMARK 927      BINDING AFFINITY PREDICTED BY RF-SCORE:    0.00 PKD
ROOT
HETATM    1  N   UNL     1      -9.543  20.463  65.979  1.00  0.00    -0.668 NA 
HETATM    2  C   UNL     1      -8.707  19.750  66.837  1.00  0.00    -0.331 A  
HETATM    3  H1  UNL     1     -10.334  20.000  65.532  1.00  0.00     0.000 HD 
HETATM    4  H2  UNL     1      -8.969  20.892  65.254  1.00  0.00     0.000 HD 
HETATM    5  C   UNL     1      -7.619  20.387  67.453  1.00  0.00    -0.364 A  
HETATM    6  C   UNL     1      -6.847  19.748  68.448  1.00  0.00    -0.332 A  
HETATM    7  C   UNL     1      -7.178  18.468  68.889  1.00  0.00    -0.301 A  
HETATM    8  C   UNL     1      -8.281  17.873  68.310  1.00  0.00    -0.292 A  
HETATM    9  C   UNL     1      -9.024  18.489  67.317  1.00  0.00    -0.275 A  
HETATM   10  C   UNL     1     -10.085  17.552  66.931  1.00  0.00    -0.324 C  
HETATM   11  N   UNL     1      -9.949  16.447  67.729  1.00  0.00    -0.244 N  
HETATM   12  O   UNL     1     -10.882  17.740  66.030  1.00  0.00    -0.194 OA 
HETATM   13  C   UNL     1      -8.889  16.575  68.583  1.00  0.00    -0.237 C  
HETATM   14  O   UNL     1      -8.475  15.786  69.408  1.00  0.00    -0.246 OA 
ENDROOT
BRANCH  11  15
HETATM   15  C   UNL     1     -10.825  15.288  67.738  1.00  0.00    -0.295 C  
HETATM   16  C   UNL     1     -11.069  14.680  69.115  1.00  0.00    -0.285 C  
HETATM   17  C   UNL     1     -12.142  13.606  68.986  1.00  0.00    -0.348 C  
HETATM   18  C   UNL     1     -11.764  12.566  67.952  1.00  0.00    -0.359 C  
HETATM   19  O   UNL     1     -12.158  11.406  68.018  1.00  0.00    -0.629 OA 
HETATM   20  N   UNL     1     -10.988  12.990  66.901  1.00  0.00    -0.261 N  
HETATM   21  H   UNL     1     -10.896  12.348  66.113  1.00  0.00     0.000 HD 
HETATM   22  C   UNL     1     -10.319  14.192  66.796  1.00  0.00    -0.274 C  
HETATM   23  O   UNL     1      -9.421  14.344  65.973  1.00  0.00    -0.282 OA 
ENDBRANCH  11  15
TORSDOF 1
ENDMDL
MODEL       41
REMARK 921   NORMALIZED FREE ENERGY PREDICTED BY IDOCK:   -6.06 KCAL/MOL
REMARK 922        TOTAL FREE ENERGY PREDICTED BY IDOCK:   -6.46 KCAL/MOL
REMARK 923 INTER-LIGAND FREE ENERGY PREDICTED BY IDOCK:   -6.35 KCAL/MOL
REMARK 924 INTRA-LIGAND FREE ENERGY PREDICTED BY IDOCK:   -0.11 KCAL/MOL
REMARK 927      BINDING AFFINITY PREDICTED BY RF-SCORE:    0.00 PKD
ROOT
HETATM    1  N   UNL     1     -11.726  12.149  63.099  1.00  0.00    -0.722 NA 
HETATM    2  C   UNL     1     -10.657  11.457  63.667  1.00  0.00    -0.412 A  
HETATM    3  H1  UNL     1     -12.465  12.528  63.691  1.00  0.00     0.000 HD 
HETATM    4  H2  UNL     1     -12.154  11.553  62.391  1.00  0.00     0.000 HD 
HETATM    5  C   UNL     1      -9.639  10.937  62.852  1.00  0.00    -0.371 A  
HETATM    6  C   UNL     1      -8.465  10.374  63.395  1.00  0.00    -0.174 A  
HETATM    7  C   UNL     1      -8.255  10.363  64.773  1.00  0.00    -0.141 A  
HETATM    8  C   UNL     1      -9.241  10.924  65.561  1.00  0.00    -0.232 A  
HETATM    9  C   UNL     1     -10.405  11.454  65.030  1.00  0.00    -0.342 A  
HETATM   10  C   UNL     1     -11.216  11.923  66.159  1.00  0.00    -0.333 C  
HETATM   11  N   UNL     1     -10.489  11.686  67.296  1.00  0.00    -0.210 N  
HETATM   12  O   UNL     1     -12.339  12.382  66.062  1.00  0.00    -0.627 OA 
HETATM   13  C   UNL     1      -9.292  11.092  67.008  1.00  0.00    -0.172 C  
HETATM   14  O   UNL     1      -8.418  10.732  67.770  1.00  0.00    -0.118 OA 
ENDROOT
BRANCH  11  15
HETATM   15  C   UNL     1     -10.879  12.049  68.648  1.00  0.00    -0.237 C  
HETATM   16  C   UNL     1     -12.198  11.445  69.118  1.00  0.00    -0.242 C  
HETATM   17  C   UNL     1     -12.373  11.760  70.598  1.00  0.00    -0.421 C  
HETATM   18  C   UNL     1     -12.290  13.249  70.863  1.00  0.00    -0.329 C  
HETATM   19  O   UNL     1     -12.873  13.779  71.803  1.00  0.00    -0.335 OA 
HETATM   20  N   UNL     1     -11.489  13.984  70.023  1.00  0.00    -0.440 N  
HETATM   21  H   UNL     1     -11.279  14.939  70.313  1.00  0.00     0.000 HD 
HETATM   22  C   UNL     1     -10.937  13.568  68.829  1.00  0.00    -0.261 C  
HETATM   23  O   UNL     1     -10.502  14.381  68.018  1.00  0.00    -0.232 OA 
ENDBRANCH  11  15
TORSDOF 1
ENDMDL
MODEL       42
REMARK 921   NORMALIZED FREE ENERGY PREDICTED BY IDOCK:   -6.04 KCAL/MOL
REMARK 922        TOTAL FREE ENERGY PREDICTED BY IDOCK:   -6.44 KCAL/MOL
REMARK 923 INTER-LIGAND FREE ENERGY PREDICTED BY IDOCK:   -6.32 KCAL/MOL
REMARK 924 INTRA-LIGAND FREE ENERGY PREDICTED BY IDOCK:   -0.12 KCAL/MOL
REMARK 927      BINDING AFFINITY PREDICTED BY RF-SCORE:    0.00 PKD
ROOT
HETATM    1  N   UNL     1     -11.962   9.018  70.596  1.00  0.00    -0.469 NA 
HETATM    2  C   UNL     1     -10.648   9.445  70.408  1.00  0.00    -0.261 A  
HETATM    3  H1  UNL     1     -12.721   9.445  70.064  1.00  0.00     0.000 HD 
HETATM    4  H2  UNL     1     -12.185   9.091  71.589  1.00  0.00     0.000 HD 
HETATM    5  C   UNL     1      -9.604   8.857  71.139  1.00  0.00    -0.342 A  
HETATM    6  C   UNL     1      -8.249   9.144  70.865  1.00  0.00    -0.220 A  
HETATM    7  C   UNL     1      -7.902   9.992  69.815  1.00  0.00    -0.185 A  
HETATM    8  C   UNL     1      -8.937  10.523  69.071  1.00  0.00    -0.183 A  
HETATM    9  C   UNL     1     -10.268  10.261  69.354  1.00  0.00    -0.255 A  
HETATM   10  C   UNL     1     -11.069  11.014  68.384  1.00  0.00    -0.251 C  
HETATM   11  N   UNL     1     -10.188  11.654  67.552  1.00  0.00    -0.193 N  
HETATM   12  O   UNL     1     -12.285  11.073  68.385  1.00  0.00    -0.586 OA 
HETATM   13  C   UNL     1      -8.893  11.399  67.906  1.00  0.00    -0.149 C  
HETATM   14  O   UNL     1      -7.869  11.813  67.401  1.00  0.00    -0.137 OA 
ENDROOT
BRANCH  11  15
HETATM   15  C   UNL     1     -10.540  12.467  66.400  1.00  0.00    -0.244 C  
HETATM   16  C   UNL     1     -11.694  13.438  66.629  1.00  0.00    -0.428 C  
HETATM   17  C   UNL     1     -11.817  14.338  65.407  1.00  0.00    -0.363 C  
HETATM   18  C   UNL     1     -11.983  13.531  64.137  1.00  0.00    -0.448 C  
HETATM   19  O   UNL     1     -12.584  13.965  63.160  1.00  0.00    -0.775 OA 
HETATM   20  N   UNL     1     -11.387  12.293  64.107  1.00  0.00    -0.348 N  
HETATM   21  H   UNL     1     -11.332  11.835  63.196  1.00  0.00     0.000 HD 
HETATM   22  C   UNL     1     -10.856  11.603  65.176  1.00  0.00    -0.288 C  
HETATM   23  O   UNL     1     -10.632  10.398  65.100  1.00  0.00    -0.191 OA 
ENDBRANCH  11  15
TORSDOF 1
ENDMDL
MODEL       43
REMARK 921   NORMALIZED FREE ENERGY PREDICTED BY IDOCK:   -6.03 KCAL/MOL
REMARK 922        TOTAL FREE ENERGY PREDICTED BY IDOCK:   -6.42 KCAL/MOL
REMARK 923 INTER-LIGAND FREE ENERGY PREDICTED BY IDOCK:   -6.38 KCAL/MOL
REMARK 924 INTRA-LIGAND FREE ENERGY PREDICTED BY IDOCK:   -0.04 KCAL/MOL
REMARK 927      BINDING AFFINITY PREDICTED BY RF-SCORE:    0.00 PKD
ROOT
HETATM    1  N   UNL     1     -12.487  15.040  63.804  1.00  0.00    -1.049 NA 
HETATM    2  C   UNL     1     -11.348  15.043  64.608  1.00  0.00    -0.352 A  
HETATM    3  H1  UNL     1     -12.868  14.160  63.457  1.00  0.00     0.000 HD 
HETATM    4  H2  UNL     1     -12.319  15.654  63.007  1.00  0.00     0.000 HD 
HETATM    5  C   UNL     1     -10.824  16.254  65.086  1.00  0.00    -0.333 A  
HETATM    6  C   UNL     1      -9.775  16.292  66.029  1.00  0.00    -0.370 A  
HETATM    7  C   UNL     1      -9.255  15.112  66.559  1.00  0.00    -0.318 A  
HETATM    8  C   UNL     1      -9.814  13.929  66.119  1.00  0.00    -0.316 A  
HETATM    9  C   UNL     1     -10.827  13.890  65.175  1.00  0.00    -0.364 A  
HETATM   10  C   UNL     1     -11.139  12.477  64.938  1.00  0.00    -0.299 C  
HETATM   11  N   UNL     1     -10.331  11.747  65.769  1.00  0.00    -0.244 N  
HETATM   12  O   UNL     1     -11.935  12.072  64.111  1.00  0.00    -0.381 OA 
HETATM   13  C   UNL     1      -9.514  12.556  66.509  1.00  0.00    -0.240 C  
HETATM   14  O   UNL     1      -8.671  12.245  67.325  1.00  0.00    -0.172 OA 
ENDROOT
BRANCH  11  15
HETATM   15  C   UNL     1     -10.343  10.301  65.916  1.00  0.00    -0.171 C  
HETATM   16  C   UNL     1     -10.326   9.804  67.359  1.00  0.00    -0.297 C  
HETATM   17  C   UNL     1     -10.529   8.295  67.352  1.00  0.00    -0.353 C  
HETATM   18  C   UNL     1      -9.498   7.600  66.487  1.00  0.00    -0.190 C  
HETATM   19  O   UNL     1      -9.131   6.449  66.705  1.00  0.00    -0.136 OA 
HETATM   20  N   UNL     1      -9.018   8.302  65.409  1.00  0.00    -0.384 N  
HETATM   21  H   UNL     1      -8.479   7.773  64.723  1.00  0.00     0.000 HD 
HETATM   22  C   UNL     1      -9.187   9.647  65.154  1.00  0.00    -0.246 C  
HETATM   23  O   UNL     1      -8.472  10.230  64.344  1.00  0.00    -0.168 OA 
ENDBRANCH  11  15
TORSDOF 1
ENDMDL
MODEL       44
REMARK 921   NORMALIZED FREE ENERGY PREDICTED BY IDOCK:   -5.97 KCAL/MOL
REMARK 922        TOTAL FREE ENERGY PREDICTED BY IDOCK:   -6.37 KCAL/MOL
REMARK 923 INTER-LIGAND FREE ENERGY PREDICTED BY IDOCK:   -6.34 KCAL/MOL
REMARK 924 INTRA-LIGAND FREE ENERGY PREDICTED BY IDOCK:   -0.02 KCAL/MOL
REMARK 927      BINDING AFFINITY PREDICTED BY RF-SCORE:    0.00 PKD
ROOT
HETATM    1  N   UNL     1     -11.204  11.479  63.438  1.00  0.00    -0.758 NA 
HETATM    2  C   UNL     1     -10.550  11.421  64.668  1.00  0.00    -0.318 A  
HETATM    3  H1  UNL     1     -11.608  12.357  63.112  1.00  0.00     0.000 HD 
HETATM    4  H2  UNL     1     -11.933  10.765  63.427  1.00  0.00     0.000 HD 
HETATM    5  C   UNL     1      -9.993  10.213  65.115  1.00  0.00    -0.379 A  
HETATM    6  C   UNL     1      -9.188  10.147  66.272  1.00  0.00    -0.191 A  
HETATM    7  C   UNL     1      -8.876  11.303  66.986  1.00  0.00    -0.153 A  
HETATM    8  C   UNL     1      -9.389  12.492  66.506  1.00  0.00    -0.233 A  
HETATM    9  C   UNL     1     -10.200  12.554  65.385  1.00  0.00    -0.303 A  
HETATM   10  C   UNL     1     -10.571  13.961  65.201  1.00  0.00    -0.379 C  
HETATM   11  N   UNL     1      -9.942  14.670  66.190  1.00  0.00    -0.289 N  
HETATM   12  O   UNL     1     -11.339  14.370  64.350  1.00  0.00    -0.335 OA 
HETATM   13  C   UNL     1      -9.212  13.851  67.006  1.00  0.00    -0.250 C  
HETATM   14  O   UNL     1      -8.549  14.140  67.981  1.00  0.00    -0.154 OA 
ENDROOT
BRANCH  11  15
HETATM   15  C   UNL     1      -9.975  16.114  66.358  1.00  0.00    -0.299 C  
HETATM   16  C   UNL     1      -8.605  16.782  66.426  1.00  0.00    -0.338 C  
HETATM   17  C   UNL     1      -8.804  18.292  66.413  1.00  0.00    -0.256 C  
HETATM   18  C   UNL     1      -9.724  18.741  67.529  1.00  0.00    -0.307 C  
HETATM   19  O   UNL     1      -9.642  19.855  68.036  1.00  0.00    -0.354 OA 
HETATM   20  N   UNL     1     -10.696  17.854  67.926  1.00  0.00    -0.372 N  
HETATM   21  H   UNL     1     -11.429  18.222  68.532  1.00  0.00     0.000 HD 
HETATM   22  C   UNL     1     -10.786  16.519  67.592  1.00  0.00    -0.311 C  
HETATM   23  O   UNL     1     -11.501  15.755  68.235  1.00  0.00    -0.361 OA 
ENDBRANCH  11  15
TORSDOF 1
ENDMDL
MODEL       45
REMARK 921   NORMALIZED FREE ENERGY PREDICTED BY IDOCK:   -5.93 KCAL/MOL
REMARK 922        TOTAL FREE ENERGY PREDICTED BY IDOCK:   -6.32 KCAL/MOL
REMARK 923 INTER-LIGAND FREE ENERGY PREDICTED BY IDOCK:   -6.30 KCAL/MOL
REMARK 924 INTRA-LIGAND FREE ENERGY PREDICTED BY IDOCK:   -0.02 KCAL/MOL
REMARK 927      BINDING AFFINITY PREDICTED BY RF-SCORE:    0.00 PKD
ROOT
HETATM    1  N   UNL     1     -10.909  19.325  65.011  1.00  0.00    -0.195 NA 
HETATM    2  C   UNL     1     -10.488  18.975  66.293  1.00  0.00    -0.457 A  
HETATM    3  H1  UNL     1     -11.036  18.606  64.299  1.00  0.00     0.000 HD 
HETATM    4  H2  UNL     1     -10.270  20.031  64.645  1.00  0.00     0.000 HD 
HETATM    5  C   UNL     1     -10.314  19.965  67.274  1.00  0.00    -0.574 A  
HETATM    6  C   UNL     1     -10.047  19.640  68.621  1.00  0.00    -0.547 A  
HETATM    7  C   UNL     1      -9.998  18.309  69.033  1.00  0.00    -0.293 A  
HETATM    8  C   UNL     1     -10.222  17.347  68.069  1.00  0.00    -0.345 A  
HETATM    9  C   UNL     1     -10.459  17.664  66.741  1.00  0.00    -0.289 A  
HETATM   10  C   UNL     1     -10.618  16.398  66.019  1.00  0.00    -0.269 C  
HETATM   11  N   UNL     1     -10.505  15.395  66.945  1.00  0.00    -0.289 N  
HETATM   12  O   UNL     1     -10.767  16.300  64.815  1.00  0.00    -0.680 OA 
HETATM   13  C   UNL     1     -10.271  15.895  68.196  1.00  0.00    -0.232 C  
HETATM   14  O   UNL     1     -10.105  15.294  69.238  1.00  0.00    -0.227 OA 
ENDROOT
BRANCH  11  15
HETATM   15  C   UNL     1     -10.658  13.973  66.687  1.00  0.00    -0.274 C  
HETATM   16  C   UNL     1     -11.692  13.271  67.560  1.00  0.00    -0.410 C  
HETATM   17  C   UNL     1     -11.870  11.847  67.048  1.00  0.00    -0.192 C  
HETATM   18  C   UNL     1     -10.551  11.105  67.003  1.00  0.00    -0.252 C  
HETATM   19  O   UNL     1     -10.482   9.886  67.126  1.00  0.00    -0.230 OA 
HETATM   20  N   UNL     1      -9.424  11.856  66.771  1.00  0.00    -0.195 N  
HETATM   21  H   UNL     1      -8.571  11.342  66.548  1.00  0.00     0.000 HD 
HETATM   22  C   UNL     1      -9.323  13.232  66.807  1.00  0.00    -0.252 C  
HETATM   23  O   UNL     1      -8.228  13.781  66.891  1.00  0.00    -0.097 OA 
ENDBRANCH  11  15
TORSDOF 1
ENDMDL
MODEL       46
REMARK 921   NORMALIZED FREE ENERGY PREDICTED BY IDOCK:   -5.90 KCAL/MOL
REMARK 922        TOTAL FREE ENERGY PREDICTED BY IDOCK:   -6.28 KCAL/MOL
REMARK 923 INTER-LIGAND FREE ENERGY PREDICTED BY IDOCK:   -6.16 KCAL/MOL
REMARK 924 INTRA-LIGAND FREE ENERGY PREDICTED BY IDOCK:   -0.12 KCAL/MOL
REMARK 927      BINDING AFFINITY PREDICTED BY RF-SCORE:    0.00 PKD
ROOT
HETATM    1  N   UNL     1     -10.149  19.517  69.838  1.00  0.00    -0.275 NA 
HETATM    2  C   UNL     1     -10.360  19.338  68.471  1.00  0.00    -0.294 A  
HETATM    3  H1  UNL     1     -10.238  18.728  70.478  1.00  0.00     0.000 HD 
HETATM    4  H2  UNL     1     -10.761  20.266  70.162  1.00  0.00     0.000 HD 
HETATM    5  C   UNL     1     -10.237  20.423  67.590  1.00  0.00    -0.410 A  
HETATM    6  C   UNL     1     -10.283  20.253  66.189  1.00  0.00    -0.417 A  
HETATM    7  C   UNL     1     -10.405  18.982  65.632  1.00  0.00    -0.156 A  
HETATM    8  C   UNL     1     -10.474  17.918  66.510  1.00  0.00    -0.315 A  
HETATM    9  C   UNL     1     -10.453  18.085  67.885  1.00  0.00    -0.408 A  
HETATM   10  C   UNL     1     -10.576  16.751  68.481  1.00  0.00    -0.354 C  
HETATM   11  N   UNL     1     -10.627  15.856  67.446  1.00  0.00    -0.311 N  
HETATM   12  O   UNL     1     -10.665  16.531  69.675  1.00  0.00    -0.322 OA 
HETATM   13  C   UNL     1     -10.566  16.489  66.235  1.00  0.00    -0.223 C  
HETATM   14  O   UNL     1     -10.602  16.007  65.121  1.00  0.00    -0.485 OA 
ENDROOT
BRANCH  11  15
HETATM   15  C   UNL     1     -10.686  14.409  67.570  1.00  0.00    -0.271 C  
HETATM   16  C   UNL     1     -11.865  13.884  68.384  1.00  0.00    -0.409 C  
HETATM   17  C   UNL     1     -11.894  12.366  68.266  1.00  0.00    -0.364 C  
HETATM   18  C   UNL     1     -10.577  11.750  68.691  1.00  0.00    -0.223 C  
HETATM   19  O   UNL     1     -10.505  10.620  69.161  1.00  0.00    -0.199 OA 
HETATM   20  N   UNL     1      -9.446  12.503  68.485  1.00  0.00    -0.374 N  
HETATM   21  H   UNL     1      -8.553  12.021  68.587  1.00  0.00     0.000 HD 
HETATM   22  C   UNL     1      -9.389  13.841  68.154  1.00  0.00    -0.211 C  
HETATM   23  O   UNL     1      -8.351  14.481  68.295  1.00  0.00    -0.138 OA 
ENDBRANCH  11  15
TORSDOF 1
ENDMDL
MODEL       47
REMARK 921   NORMALIZED FREE ENERGY PREDICTED BY IDOCK:   -5.89 KCAL/MOL
REMARK 922        TOTAL FREE ENERGY PREDICTED BY IDOCK:   -6.28 KCAL/MOL
REMARK 923 INTER-LIGAND FREE ENERGY PREDICTED BY IDOCK:   -6.13 KCAL/MOL
REMARK 924 INTRA-LIGAND FREE ENERGY PREDICTED BY IDOCK:   -0.15 KCAL/MOL
REMARK 927      BINDING AFFINITY PREDICTED BY RF-SCORE:    0.00 PKD
ROOT
HETATM    1  N   UNL     1      -9.154  10.302  67.746  1.00  0.00    -0.134 NA 
HETATM    2  C   UNL     1     -10.092  10.978  68.526  1.00  0.00    -0.190 A  
HETATM    3  H1  UNL     1      -8.725   9.442  68.089  1.00  0.00     0.000 HD 
HETATM    4  H2  UNL     1      -8.411  10.956  67.498  1.00  0.00     0.000 HD 
HETATM    5  C   UNL     1     -10.682  12.160  68.053  1.00  0.00    -0.242 A  
HETATM    6  C   UNL     1     -11.748  12.785  68.736  1.00  0.00    -0.363 A  
HETATM    7  C   UNL     1     -12.286  12.212  69.887  1.00  0.00    -0.240 A  
HETATM    8  C   UNL     1     -11.729  11.023  70.312  1.00  0.00    -0.445 A  
HETATM    9  C   UNL     1     -10.667  10.421  69.657  1.00  0.00    -0.304 A  
HETATM   10  C   UNL     1     -10.333   9.206  70.407  1.00  0.00    -0.223 C  
HETATM   11  N   UNL     1     -11.224   9.121  71.444  1.00  0.00    -0.320 N  
HETATM   12  O   UNL     1      -9.397   8.470  70.153  1.00  0.00    -0.156 OA 
HETATM   13  C   UNL     1     -12.093  10.176  71.443  1.00  0.00    -0.382 C  
HETATM   14  O   UNL     1     -12.993  10.423  72.220  1.00  0.00    -0.382 OA 
ENDROOT
BRANCH  11  15
HETATM   15  C   UNL     1     -11.306   8.040  72.412  1.00  0.00    -0.382 C  
HETATM   16  C   UNL     1      -9.981   7.665  73.067  1.00  0.00    -0.343 C  
HETATM   17  C   UNL     1     -10.259   6.660  74.178  1.00  0.00    -0.390 C  
HETATM   18  C   UNL     1     -11.011   5.453  73.660  1.00  0.00    -0.220 C  
HETATM   19  O   UNL     1     -10.909   4.346  74.179  1.00  0.00    -0.260 OA 
HETATM   20  N   UNL     1     -11.859   5.659  72.598  1.00  0.00    -0.463 N  
HETATM   21  H   UNL     1     -12.504   4.901  72.376  1.00  0.00     0.000 HD 
HETATM   22  C   UNL     1     -11.930   6.782  71.800  1.00  0.00    -0.339 C  
HETATM   23  O   UNL     1     -12.492   6.745  70.709  1.00  0.00    -0.351 OA 
ENDBRANCH  11  15
TORSDOF 1
ENDMDL
MODEL       48
REMARK 921   NORMALIZED FREE ENERGY PREDICTED BY IDOCK:   -5.88 KCAL/MOL
REMARK 922        TOTAL FREE ENERGY PREDICTED BY IDOCK:   -6.26 KCAL/MOL
REMARK 923 INTER-LIGAND FREE ENERGY PREDICTED BY IDOCK:   -6.11 KCAL/MOL
REMARK 924 INTRA-LIGAND FREE ENERGY PREDICTED BY IDOCK:   -0.15 KCAL/MOL
REMARK 927      BINDING AFFINITY PREDICTED BY RF-SCORE:    0.00 PKD
ROOT
HETATM    1  N   UNL     1     -10.037   9.512  66.297  1.00  0.00    -0.272 NA 
HETATM    2  C   UNL     1     -10.575  10.527  67.088  1.00  0.00    -0.264 A  
HETATM    3  H1  UNL     1      -9.642   8.678  66.731  1.00  0.00     0.000 HD 
HETATM    4  H2  UNL     1      -9.331   9.922  65.686  1.00  0.00     0.000 HD 
HETATM    5  C   UNL     1     -11.119  11.675  66.490  1.00  0.00    -0.357 A  
HETATM    6  C   UNL     1     -11.815  12.646  67.241  1.00  0.00    -0.395 A  
HETATM    7  C   UNL     1     -12.029  12.469  68.607  1.00  0.00    -0.268 A  
HETATM    8  C   UNL     1     -11.532  11.311  69.172  1.00  0.00    -0.364 A  
HETATM    9  C   UNL     1     -10.828  10.368  68.442  1.00  0.00    -0.289 A  
HETATM   10  C   UNL     1     -10.440   9.305  69.374  1.00  0.00    -0.219 C  
HETATM   11  N   UNL     1     -10.956   9.642  70.598  1.00  0.00    -0.293 N  
HETATM   12  O   UNL     1      -9.744   8.349  69.085  1.00  0.00    -0.166 OA 
HETATM   13  C   UNL     1     -11.627  10.832  70.546  1.00  0.00    -0.330 C  
HETATM   14  O   UNL     1     -12.189  11.429  71.442  1.00  0.00    -0.213 OA 
ENDROOT
BRANCH  11  15
HETATM   15  C   UNL     1     -10.870   8.843  71.809  1.00  0.00    -0.365 C  
HETATM   16  C   UNL     1      -9.463   8.376  72.169  1.00  0.00    -0.360 C  
HETATM   17  C   UNL     1      -9.510   7.720  73.544  1.00  0.00    -0.346 C  
HETATM   18  C   UNL     1     -10.524   6.596  73.588  1.00  0.00    -0.330 C  
HETATM   19  O   UNL     1     -10.402   5.636  74.343  1.00  0.00    -0.270 OA 
HETATM   20  N   UNL     1     -11.621   6.718  72.772  1.00  0.00    -0.481 N  
HETATM   21  H   UNL     1     -12.390   6.068  72.940  1.00  0.00     0.000 HD 
HETATM   22  C   UNL     1     -11.796   7.625  71.747  1.00  0.00    -0.290 C  
HETATM   23  O   UNL     1     -12.662   7.453  70.893  1.00  0.00    -0.240 OA 
ENDBRANCH  11  15
TORSDOF 1
ENDMDL
MODEL       49
REMARK 921   NORMALIZED FREE ENERGY PREDICTED BY IDOCK:   -5.84 KCAL/MOL
REMARK 922        TOTAL FREE ENERGY PREDICTED BY IDOCK:   -6.23 KCAL/MOL
REMARK 923 INTER-LIGAND FREE ENERGY PREDICTED BY IDOCK:   -6.08 KCAL/MOL
REMARK 924 INTRA-LIGAND FREE ENERGY PREDICTED BY IDOCK:   -0.15 KCAL/MOL
REMARK 927      BINDING AFFINITY PREDICTED BY RF-SCORE:    0.00 PKD
ROOT
HETATM    1  N   UNL     1     -12.702  14.336  66.527  1.00  0.00    -0.433 NA 
HETATM    2  C   UNL     1     -12.242  13.346  65.660  1.00  0.00    -0.463 A  
HETATM    3  H1  UNL     1     -12.660  14.195  67.536  1.00  0.00     0.000 HD 
HETATM    4  H2  UNL     1     -13.664  14.564  66.274  1.00  0.00     0.000 HD 
HETATM    5  C   UNL     1     -12.300  13.541  64.271  1.00  0.00    -0.392 A  
HETATM    6  C   UNL     1     -11.700  12.639  63.367  1.00  0.00    -0.571 A  
HETATM    7  C   UNL     1     -10.982  11.539  63.833  1.00  0.00    -0.474 A  
HETATM    8  C   UNL     1     -10.891  11.387  65.202  1.00  0.00    -0.302 A  
HETATM    9  C   UNL     1     -11.499  12.258  66.091  1.00  0.00    -0.429 A  
HETATM   10  C   UNL     1     -11.211  11.765  67.441  1.00  0.00    -0.297 C  
HETATM   11  N   UNL     1     -10.423  10.654  67.299  1.00  0.00    -0.231 N  
HETATM   12  O   UNL     1     -11.654  12.250  68.466  1.00  0.00    -0.266 OA 
HETATM   13  C   UNL     1     -10.188  10.373  65.981  1.00  0.00    -0.228 C  
HETATM   14  O   UNL     1      -9.549   9.461  65.498  1.00  0.00    -0.268 OA 
ENDROOT
BRANCH  11  15
HETATM   15  C   UNL     1      -9.845   9.873  68.380  1.00  0.00    -0.151 C  
HETATM   16  C   UNL     1     -10.841   9.409  69.438  1.00  0.00    -0.208 C  
HETATM   17  C   UNL     1     -10.126   8.458  70.389  1.00  0.00    -0.202 C  
HETATM   18  C   UNL     1      -8.895   9.099  70.994  1.00  0.00    -0.202 C  
HETATM   19  O   UNL     1      -8.468   8.779  72.099  1.00  0.00    -0.351 OA 
HETATM   20  N   UNL     1      -8.242  10.032  70.227  1.00  0.00    -0.312 N  
HETATM   21  H   UNL     1      -7.316  10.318  70.547  1.00  0.00     0.000 HD 
HETATM   22  C   UNL     1      -8.704  10.625  69.070  1.00  0.00    -0.146 C  
HETATM   23  O   UNL     1      -8.189  11.654  68.640  1.00  0.00    -0.151 OA 
ENDBRANCH  11  15
TORSDOF 1
ENDMDL
MODEL       50
REMARK 921   NORMALIZED FREE ENERGY PREDICTED BY IDOCK:   -5.84 KCAL/MOL
REMARK 922        TOTAL FREE ENERGY PREDICTED BY IDOCK:   -6.22 KCAL/MOL
REMARK 923 INTER-LIGAND FREE ENERGY PREDICTED BY IDOCK:   -6.17 KCAL/MOL
REMARK 924 INTRA-LIGAND FREE ENERGY PREDICTED BY IDOCK:   -0.06 KCAL/MOL
REMARK 927      BINDING AFFINITY PREDICTED BY RF-SCORE:    0.00 PKD
ROOT
HETATM    1  N   UNL     1      -7.195   9.881  69.343  1.00  0.00    -0.073 NA 
HETATM    2  C   UNL     1      -8.461   9.632  69.870  1.00  0.00    -0.198 A  
HETATM    3  H1  UNL     1      -7.097  10.334  68.435  1.00  0.00     0.000 HD 
HETATM    4  H2  UNL     1      -6.676   9.003  69.323  1.00  0.00     0.000 HD 
HETATM    5  C   UNL     1      -8.596   9.009  71.121  1.00  0.00    -0.250 A  
HETATM    6  C   UNL     1      -9.848   8.885  71.760  1.00  0.00    -0.386 A  
HETATM    7  C   UNL     1     -10.996   9.427  71.184  1.00  0.00    -0.430 A  
HETATM    8  C   UNL     1     -10.841  10.080  69.977  1.00  0.00    -0.352 A  
HETATM    9  C   UNL     1      -9.617  10.182  69.337  1.00  0.00    -0.249 A  
HETATM   10  C   UNL     1      -9.847  10.908  68.084  1.00  0.00    -0.175 C  
HETATM   11  N   UNL     1     -11.177  11.234  68.051  1.00  0.00    -0.262 N  
HETATM   12  O   UNL     1      -8.998  11.113  67.236  1.00  0.00    -0.145 OA 
HETATM   13  C   UNL     1     -11.831  10.771  69.159  1.00  0.00    -0.275 C  
HETATM   14  O   UNL     1     -13.008  10.867  69.444  1.00  0.00    -0.088 OA 
ENDROOT
BRANCH  11  15
HETATM   15  C   UNL     1     -11.839  12.013  67.019  1.00  0.00    -0.176 C  
HETATM   16  C   UNL     1     -11.363  11.730  65.598  1.00  0.00    -0.293 C  
HETATM   17  C   UNL     1     -12.270  12.476  64.627  1.00  0.00    -0.524 C  
HETATM   18  C   UNL     1     -12.317  13.957  64.938  1.00  0.00    -0.420 C  
HETATM   19  O   UNL     1     -12.528  14.800  64.072  1.00  0.00    -0.803 OA 
HETATM   20  N   UNL     1     -12.157  14.320  66.254  1.00  0.00    -0.424 N  
HETATM   21  H   UNL     1     -12.381  15.287  66.490  1.00  0.00     0.000 HD 
HETATM   22  C   UNL     1     -11.727  13.516  67.289  1.00  0.00    -0.383 C  
HETATM   23  O   UNL     1     -11.328  14.005  68.342  1.00  0.00    -0.260 OA 
ENDBRANCH  11  15
TORSDOF 1
ENDMDL
MODEL       51
REMARK 921   NORMALIZED FREE ENERGY PREDICTED BY IDOCK:   -5.82 KCAL/MOL
REMARK 922        TOTAL FREE ENERGY PREDICTED BY IDOCK:   -6.20 KCAL/MOL
REMARK 923 INTER-LIGAND FREE ENERGY PREDICTED BY IDOCK:   -6.55 KCAL/MOL
REMARK 924 INTRA-LIGAND FREE ENERGY PREDICTED BY IDOCK:    0.35 KCAL/MOL
REMARK 927      BINDING AFFINITY PREDICTED BY RF-SCORE:    0.00 PKD
ROOT
HETATM    1  N   UNL     1     -12.029  15.697  69.311  1.00  0.00    -0.489 NA 
HETATM    2  C   UNL     1     -12.579  14.943  70.347  1.00  0.00    -0.343 A  
HETATM    3  H1  UNL     1     -11.338  15.283  68.686  1.00  0.00     0.000 HD 
HETATM    4  H2  UNL     1     -11.635  16.550  69.708  1.00  0.00     0.000 HD 
HETATM    5  C   UNL     1     -13.531  15.513  71.207  1.00  0.00    -0.560 A  
HETATM    6  C   UNL     1     -14.227  14.742  72.163  1.00  0.00    -0.608 A  
HETATM    7  C   UNL     1     -14.024  13.366  72.249  1.00  0.00    -0.605 A  
HETATM    8  C   UNL     1     -13.122  12.811  71.363  1.00  0.00    -0.318 A  
HETATM    9  C   UNL     1     -12.420  13.570  70.441  1.00  0.00    -0.345 A  
HETATM   10  C   UNL     1     -11.546  12.650  69.705  1.00  0.00    -0.214 C  
HETATM   11  N   UNL     1     -11.791  11.394  70.192  1.00  0.00    -0.337 N  
HETATM   12  O   UNL     1     -10.733  12.990  68.865  1.00  0.00    -0.232 OA 
HETATM   13  C   UNL     1     -12.729  11.417  71.186  1.00  0.00    -0.377 C  
HETATM   14  O   UNL     1     -13.168  10.494  71.841  1.00  0.00    -0.446 OA 
ENDROOT
BRANCH  11  15
HETATM   15  C   UNL     1     -11.193  10.160  69.709  1.00  0.00    -0.272 C  
HETATM   16  C   UNL     1      -9.735   9.956  70.110  1.00  0.00    -0.255 C  
HETATM   17  C   UNL     1      -9.313   8.552  69.696  1.00  0.00    -0.157 C  
HETATM   18  C   UNL     1      -9.546   8.315  68.219  1.00  0.00    -0.147 C  
HETATM   19  O   UNL     1      -8.865   7.530  67.567  1.00  0.00    -0.127 OA 
HETATM   20  N   UNL     1     -10.593   8.991  67.640  1.00  0.00    -0.378 N  
HETATM   21  H   UNL     1     -10.870   8.689  66.706  1.00  0.00     0.000 HD 
HETATM   22  C   UNL     1     -11.310  10.035  68.188  1.00  0.00    -0.028 C  
HETATM   23  O   UNL     1     -12.006  10.760  67.482  1.00  0.00    -0.313 OA 
ENDBRANCH  11  15
TORSDOF 1
ENDMDL
MODEL       52
REMARK 921   NORMALIZED FREE ENERGY PREDICTED BY IDOCK:   -5.80 KCAL/MOL
REMARK 922        TOTAL FREE ENERGY PREDICTED BY IDOCK:   -6.18 KCAL/MOL
REMARK 923 INTER-LIGAND FREE ENERGY PREDICTED BY IDOCK:   -6.08 KCAL/MOL
REMARK 924 INTRA-LIGAND FREE ENERGY PREDICTED BY IDOCK:   -0.11 KCAL/MOL
REMARK 927      BINDING AFFINITY PREDICTED BY RF-SCORE:    0.00 PKD
ROOT
HETATM    1  N   UNL     1     -13.992   8.965  73.100  1.00  0.00    -1.215 NA 
HETATM    2  C   UNL     1     -13.226   9.572  72.107  1.00  0.00    -0.451 A  
HETATM    3  H1  UNL     1     -13.884   7.970  73.296  1.00  0.00     0.000 HD 
HETATM    4  H2  UNL     1     -14.977   9.149  72.904  1.00  0.00     0.000 HD 
HETATM    5  C   UNL     1     -13.375  10.942  71.838  1.00  0.00    -0.429 A  
HETATM    6  C   UNL     1     -12.511  11.627  70.958  1.00  0.00    -0.436 A  
HETATM    7  C   UNL     1     -11.438  10.967  70.360  1.00  0.00    -0.367 A  
HETATM    8  C   UNL     1     -11.273   9.632  70.672  1.00  0.00    -0.385 A  
HETATM    9  C   UNL     1     -12.135   8.952  71.517  1.00  0.00    -0.395 A  
HETATM   10  C   UNL     1     -11.665   7.565  71.585  1.00  0.00    -0.282 C  
HETATM   11  N   UNL     1     -10.535   7.490  70.815  1.00  0.00    -0.211 N  
HETATM   12  O   UNL     1     -12.232   6.669  72.183  1.00  0.00    -0.299 OA 
HETATM   13  C   UNL     1     -10.240   8.696  70.242  1.00  0.00    -0.194 C  
HETATM   14  O   UNL     1      -9.327   8.982  69.494  1.00  0.00    -0.154 OA 
ENDROOT
BRANCH  11  15
HETATM   15  C   UNL     1      -9.696   6.316  70.642  1.00  0.00    -0.176 C  
HETATM   16  C   UNL     1     -10.411   5.098  70.066  1.00  0.00    -0.347 C  
HETATM   17  C   UNL     1      -9.372   4.023  69.772  1.00  0.00    -0.242 C  
HETATM   18  C   UNL     1      -8.557   3.688  71.003  1.00  0.00    -0.072 C  
HETATM   19  O   UNL     1      -8.055   2.581  71.173  1.00  0.00    -0.049 OA 
HETATM   20  N   UNL     1      -8.361   4.699  71.912  1.00  0.00    -0.107 N  
HETATM   21  H   UNL     1      -7.659   4.534  72.634  1.00  0.00     0.000 HD 
HETATM   22  C   UNL     1      -9.012   5.915  71.952  1.00  0.00    -0.138 C  
HETATM   23  O   UNL     1      -8.989   6.608  72.965  1.00  0.00    -0.128 OA 
ENDBRANCH  11  15
TORSDOF 1
ENDMDL
MODEL       53
REMARK 921   NORMALIZED FREE ENERGY PREDICTED BY IDOCK:   -5.78 KCAL/MOL
REMARK 922        TOTAL FREE ENERGY PREDICTED BY IDOCK:   -6.16 KCAL/MOL
REMARK 923 INTER-LIGAND FREE ENERGY PREDICTED BY IDOCK:   -6.13 KCAL/MOL
REMARK 924 INTRA-LIGAND FREE ENERGY PREDICTED BY IDOCK:   -0.03 KCAL/MOL
REMARK 927      BINDING AFFINITY PREDICTED BY RF-SCORE:    0.00 PKD
ROOT
HETATM    1  N   UNL     1      -7.124  18.824  65.559  1.00  0.00    -0.510 NA 
HETATM    2  C   UNL     1      -8.226  19.034  66.388  1.00  0.00    -0.305 A  
HETATM    3  H1  UNL     1      -6.796  17.877  65.371  1.00  0.00     0.000 HD 
HETATM    4  H2  UNL     1      -6.342  19.370  65.921  1.00  0.00     0.000 HD 
HETATM    5  C   UNL     1      -8.677  20.338  66.646  1.00  0.00    -0.318 A  
HETATM    6  C   UNL     1      -9.879  20.585  67.344  1.00  0.00    -0.574 A  
HETATM    7  C   UNL     1     -10.688  19.530  67.759  1.00  0.00    -0.487 A  
HETATM    8  C   UNL     1     -10.258  18.254  67.454  1.00  0.00    -0.385 A  
HETATM    9  C   UNL     1      -9.067  18.009  66.791  1.00  0.00    -0.280 A  
HETATM   10  C   UNL     1      -8.932  16.553  66.674  1.00  0.00    -0.255 C  
HETATM   11  N   UNL     1     -10.055  16.004  67.235  1.00  0.00    -0.260 N  
HETATM   12  O   UNL     1      -7.964  15.981  66.207  1.00  0.00    -0.240 OA 
HETATM   13  C   UNL     1     -10.894  16.968  67.719  1.00  0.00    -0.269 C  
HETATM   14  O   UNL     1     -11.959  16.837  68.287  1.00  0.00     0.359 OA 
ENDROOT
BRANCH  11  15
HETATM   15  C   UNL     1     -10.378  14.588  67.285  1.00  0.00    -0.260 C  
HETATM   16  C   UNL     1     -11.748  14.223  66.721  1.00  0.00    -0.424 C  
HETATM   17  C   UNL     1     -11.861  12.705  66.672  1.00  0.00    -0.449 C  
HETATM   18  C   UNL     1     -11.610  12.085  68.030  1.00  0.00    -0.342 C  
HETATM   19  O   UNL     1     -12.115  11.018  68.365  1.00  0.00    -0.594 OA 
HETATM   20  N   UNL     1     -10.748  12.752  68.866  1.00  0.00    -0.377 N  
HETATM   21  H   UNL     1     -10.430  12.244  69.693  1.00  0.00     0.000 HD 
HETATM   22  C   UNL     1     -10.266  14.035  68.709  1.00  0.00    -0.197 C  
HETATM   23  O   UNL     1      -9.759  14.638  69.651  1.00  0.00     0.036 OA 
ENDBRANCH  11  15
TORSDOF 1
ENDMDL
MODEL       54
REMARK 921   NORMALIZED FREE ENERGY PREDICTED BY IDOCK:   -5.78 KCAL/MOL
REMARK 922        TOTAL FREE ENERGY PREDICTED BY IDOCK:   -6.16 KCAL/MOL
REMARK 923 INTER-LIGAND FREE ENERGY PREDICTED BY IDOCK:   -6.13 KCAL/MOL
REMARK 924 INTRA-LIGAND FREE ENERGY PREDICTED BY IDOCK:   -0.03 KCAL/MOL
REMARK 927      BINDING AFFINITY PREDICTED BY RF-SCORE:    0.00 PKD
ROOT
HETATM    1  N   UNL     1     -14.008   8.964  73.090  1.00  0.00    -1.215 NA 
HETATM    2  C   UNL     1     -13.298   9.610  72.079  1.00  0.00    -0.457 A  
HETATM    3  H1  UNL     1     -13.951   7.951  73.191  1.00  0.00     0.000 HD 
HETATM    4  H2  UNL     1     -14.992   9.224  73.008  1.00  0.00     0.000 HD 
HETATM    5  C   UNL     1     -13.377  11.005  71.941  1.00  0.00    -0.423 A  
HETATM    6  C   UNL     1     -12.553  11.712  71.040  1.00  0.00    -0.431 A  
HETATM    7  C   UNL     1     -11.589  11.044  70.286  1.00  0.00    -0.414 A  
HETATM    8  C   UNL     1     -11.487   9.679  70.469  1.00  0.00    -0.352 A  
HETATM    9  C   UNL     1     -12.312   8.981  71.335  1.00  0.00    -0.380 A  
HETATM   10  C   UNL     1     -11.934   7.567  71.242  1.00  0.00    -0.307 C  
HETATM   11  N   UNL     1     -10.888   7.493  70.360  1.00  0.00    -0.240 N  
HETATM   12  O   UNL     1     -12.504   6.657  71.816  1.00  0.00    -0.352 OA 
HETATM   13  C   UNL     1     -10.566   8.725  69.862  1.00  0.00    -0.224 C  
HETATM   14  O   UNL     1      -9.709   9.020  69.055  1.00  0.00    -0.161 OA 
ENDROOT
BRANCH  11  15
HETATM   15  C   UNL     1     -10.152   6.290  70.008  1.00  0.00    -0.175 C  
HETATM   16  C   UNL     1      -8.640   6.390  70.185  1.00  0.00    -0.135 C  
HETATM   17  C   UNL     1      -8.036   5.010  69.960  1.00  0.00    -0.074 C  
HETATM   18  C   UNL     1      -8.425   4.447  68.609  1.00  0.00    -0.084 C  
HETATM   19  O   UNL     1      -7.712   3.656  68.001  1.00  0.00    -0.068 OA 
HETATM   20  N   UNL     1      -9.646   4.828  68.107  1.00  0.00    -0.141 N  
HETATM   21  H   UNL     1      -9.991   4.306  67.302  1.00  0.00     0.000 HD 
HETATM   22  C   UNL     1     -10.455   5.843  68.576  1.00  0.00    -0.238 C  
HETATM   23  O   UNL     1     -11.360   6.299  67.882  1.00  0.00    -0.257 OA 
ENDBRANCH  11  15
TORSDOF 1
ENDMDL
MODEL       55
REMARK 921   NORMALIZED FREE ENERGY PREDICTED BY IDOCK:   -5.78 KCAL/MOL
REMARK 922        TOTAL FREE ENERGY PREDICTED BY IDOCK:   -6.16 KCAL/MOL
REMARK 923 INTER-LIGAND FREE ENERGY PREDICTED BY IDOCK:   -6.01 KCAL/MOL
REMARK 924 INTRA-LIGAND FREE ENERGY PREDICTED BY IDOCK:   -0.14 KCAL/MOL
REMARK 927      BINDING AFFINITY PREDICTED BY RF-SCORE:    0.00 PKD
ROOT
HETATM    1  N   UNL     1     -12.334  14.352  68.923  1.00  0.00    -0.576 NA 
HETATM    2  C   UNL     1     -11.710  14.524  67.689  1.00  0.00    -0.382 A  
HETATM    3  H1  UNL     1     -11.913  14.738  69.769  1.00  0.00     0.000 HD 
HETATM    4  H2  UNL     1     -12.491  13.355  69.068  1.00  0.00     0.000 HD 
HETATM    5  C   UNL     1     -12.289  13.994  66.525  1.00  0.00    -0.442 A  
HETATM    6  C   UNL     1     -11.778  14.280  65.241  1.00  0.00    -0.357 A  
HETATM    7  C   UNL     1     -10.699  15.149  65.085  1.00  0.00    -0.442 A  
HETATM    8  C   UNL     1     -10.171  15.703  66.234  1.00  0.00    -0.312 A  
HETATM    9  C   UNL     1     -10.656  15.404  67.496  1.00  0.00    -0.283 A  
HETATM   10  C   UNL     1      -9.837  16.147  68.459  1.00  0.00    -0.226 C  
HETATM   11  N   UNL     1      -8.933  16.876  67.732  1.00  0.00    -0.223 N  
HETATM   12  O   UNL     1      -9.940  16.062  69.669  1.00  0.00    -0.263 OA 
HETATM   13  C   UNL     1      -9.081  16.660  66.390  1.00  0.00    -0.292 C  
HETATM   14  O   UNL     1      -8.444  17.127  65.468  1.00  0.00    -0.255 OA 
ENDROOT
BRANCH  11  15
HETATM   15  C   UNL     1      -7.960  17.811  68.271  1.00  0.00    -0.282 C  
HETATM   16  C   UNL     1      -7.154  17.284  69.454  1.00  0.00    -0.076 C  
HETATM   17  C   UNL     1      -6.061  18.294  69.782  1.00  0.00    -0.211 C  
HETATM   18  C   UNL     1      -6.637  19.670  70.040  1.00  0.00    -0.210 C  
HETATM   19  O   UNL     1      -6.088  20.480  70.781  1.00  0.00    -0.553 OA 
HETATM   20  N   UNL     1      -7.790  19.996  69.369  1.00  0.00     0.089 N  
HETATM   21  H   UNL     1      -8.069  20.977  69.390  1.00  0.00     0.000 HD 
HETATM   22  C   UNL     1      -8.613  19.137  68.669  1.00  0.00    -0.361 C  
HETATM   23  O   UNL     1      -9.759  19.464  68.374  1.00  0.00    -0.356 OA 
ENDBRANCH  11  15
TORSDOF 1
ENDMDL
MODEL       56
REMARK 921   NORMALIZED FREE ENERGY PREDICTED BY IDOCK:   -5.75 KCAL/MOL
REMARK 922        TOTAL FREE ENERGY PREDICTED BY IDOCK:   -6.13 KCAL/MOL
REMARK 923 INTER-LIGAND FREE ENERGY PREDICTED BY IDOCK:   -5.99 KCAL/MOL
REMARK 924 INTRA-LIGAND FREE ENERGY PREDICTED BY IDOCK:   -0.15 KCAL/MOL
REMARK 927      BINDING AFFINITY PREDICTED BY RF-SCORE:    0.00 PKD
ROOT
HETATM    1  N   UNL     1     -12.782  14.264  64.873  1.00  0.00    -0.662 NA 
HETATM    2  C   UNL     1     -11.502  14.550  65.346  1.00  0.00    -0.348 A  
HETATM    3  H1  UNL     1     -13.215  13.364  65.080  1.00  0.00     0.000 HD 
HETATM    4  H2  UNL     1     -12.789  14.400  63.862  1.00  0.00     0.000 HD 
HETATM    5  C   UNL     1     -10.905  15.789  65.063  1.00  0.00    -0.461 A  
HETATM    6  C   UNL     1      -9.685  16.180  65.654  1.00  0.00    -0.239 A  
HETATM    7  C   UNL     1      -9.052  15.360  66.586  1.00  0.00    -0.310 A  
HETATM    8  C   UNL     1      -9.676  14.167  66.894  1.00  0.00    -0.272 A  
HETATM    9  C   UNL     1     -10.861  13.770  66.297  1.00  0.00    -0.283 A  
HETATM   10  C   UNL     1     -11.199  12.453  66.844  1.00  0.00    -0.305 C  
HETATM   11  N   UNL     1     -10.228  12.143  67.760  1.00  0.00    -0.197 N  
HETATM   12  O   UNL     1     -12.143  11.773  66.486  1.00  0.00    -0.498 OA 
HETATM   13  C   UNL     1      -9.286  13.130  67.843  1.00  0.00    -0.215 C  
HETATM   14  O   UNL     1      -8.289  13.176  68.535  1.00  0.00    -0.141 OA 
ENDROOT
BRANCH  11  15
HETATM   15  C   UNL     1     -10.192  10.954  68.596  1.00  0.00    -0.189 C  
HETATM   16  C   UNL     1     -10.437   9.643  67.856  1.00  0.00    -0.296 C  
HETATM   17  C   UNL     1     -10.184   8.491  68.819  1.00  0.00    -0.217 C  
HETATM   18  C   UNL     1     -11.028   8.617  70.070  1.00  0.00    -0.203 C  
HETATM   19  O   UNL     1     -11.387   7.638  70.717  1.00  0.00    -0.276 OA 
HETATM   20  N   UNL     1     -11.342   9.889  70.481  1.00  0.00    -0.302 N  
HETATM   21  H   UNL     1     -11.738   9.982  71.417  1.00  0.00     0.000 HD 
HETATM   22  C   UNL     1     -11.178  11.056  69.763  1.00  0.00    -0.268 C  
HETATM   23  O   UNL     1     -11.765  12.084  70.089  1.00  0.00    -0.308 OA 
ENDBRANCH  11  15
TORSDOF 1
ENDMDL
MODEL       57
REMARK 921   NORMALIZED FREE ENERGY PREDICTED BY IDOCK:   -5.74 KCAL/MOL
REMARK 922        TOTAL FREE ENERGY PREDICTED BY IDOCK:   -6.12 KCAL/MOL
REMARK 923 INTER-LIGAND FREE ENERGY PREDICTED BY IDOCK:   -5.98 KCAL/MOL
REMARK 924 INTRA-LIGAND FREE ENERGY PREDICTED BY IDOCK:   -0.14 KCAL/MOL
REMARK 927      BINDING AFFINITY PREDICTED BY RF-SCORE:    0.00 PKD
ROOT
HETATM    1  N   UNL     1      -7.558  19.718  68.540  1.00  0.00    -0.326 NA 
HETATM    2  C   UNL     1      -6.964  18.506  68.887  1.00  0.00    -0.283 A  
HETATM    3  H1  UNL     1      -8.337  19.738  67.882  1.00  0.00     0.000 HD 
HETATM    4  H2  UNL     1      -6.831  20.346  68.196  1.00  0.00     0.000 HD 
HETATM    5  C   UNL     1      -5.892  18.479  69.793  1.00  0.00    -0.260 A  
HETATM    6  C   UNL     1      -5.370  17.266  70.292  1.00  0.00    -0.239 A  
HETATM    7  C   UNL     1      -5.942  16.047  69.935  1.00  0.00    -0.169 A  
HETATM    8  C   UNL     1      -7.028  16.091  69.083  1.00  0.00    -0.189 A  
HETATM    9  C   UNL     1      -7.526  17.278  68.573  1.00  0.00    -0.241 A  
HETATM   10  C   UNL     1      -8.647  16.931  67.694  1.00  0.00    -0.208 C  
HETATM   11  N   UNL     1      -8.787  15.569  67.747  1.00  0.00    -0.170 N  
HETATM   12  O   UNL     1      -9.273  17.729  67.020  1.00  0.00    -0.244 OA 
HETATM   13  C   UNL     1      -7.851  15.003  68.567  1.00  0.00    -0.137 C  
HETATM   14  O   UNL     1      -7.677  13.830  68.829  1.00  0.00    -0.132 OA 
ENDROOT
BRANCH  11  15
HETATM   15  C   UNL     1      -9.816  14.790  67.078  1.00  0.00    -0.239 C  
HETATM   16  C   UNL     1     -10.032  15.142  65.610  1.00  0.00    -0.387 C  
HETATM   17  C   UNL     1     -10.994  14.126  65.007  1.00  0.00    -0.391 C  
HETATM   18  C   UNL     1     -12.292  14.062  65.785  1.00  0.00    -0.480 C  
HETATM   19  O   UNL     1     -13.354  13.746  65.258  1.00  0.00    -0.710 OA 
HETATM   20  N   UNL     1     -12.223  14.331  67.130  1.00  0.00    -0.589 N  
HETATM   21  H   UNL     1     -13.048  14.101  67.684  1.00  0.00     0.000 HD 
HETATM   22  C   UNL     1     -11.157  14.881  67.812  1.00  0.00    -0.309 C  
HETATM   23  O   UNL     1     -11.305  15.360  68.933  1.00  0.00    -0.274 OA 
ENDBRANCH  11  15
TORSDOF 1
ENDMDL
MODEL       58
REMARK 921   NORMALIZED FREE ENERGY PREDICTED BY IDOCK:   -5.73 KCAL/MOL
REMARK 922        TOTAL FREE ENERGY PREDICTED BY IDOCK:   -6.11 KCAL/MOL
REMARK 923 INTER-LIGAND FREE ENERGY PREDICTED BY IDOCK:   -6.09 KCAL/MOL
REMARK 924 INTRA-LIGAND FREE ENERGY PREDICTED BY IDOCK:   -0.03 KCAL/MOL
REMARK 927      BINDING AFFINITY PREDICTED BY RF-SCORE:    0.00 PKD
ROOT
HETATM    1  N   UNL     1      -8.648  16.284  66.415  1.00  0.00    -0.299 NA 
HETATM    2  C   UNL     1      -9.851  15.821  65.884  1.00  0.00    -0.349 A  
HETATM    3  H1  UNL     1      -8.075  15.672  66.996  1.00  0.00     0.000 HD 
HETATM    4  H2  UNL     1      -8.836  17.140  66.937  1.00  0.00     0.000 HD 
HETATM    5  C   UNL     1     -10.640  16.663  65.085  1.00  0.00    -0.181 A  
HETATM    6  C   UNL     1     -11.778  16.187  64.399  1.00  0.00    -0.059 A  
HETATM    7  C   UNL     1     -12.128  14.839  64.455  1.00  0.00    -0.460 A  
HETATM    8  C   UNL     1     -11.314  14.012  65.204  1.00  0.00    -0.328 A  
HETATM    9  C   UNL     1     -10.211  14.483  65.898  1.00  0.00    -0.339 A  
HETATM   10  C   UNL     1      -9.619  13.335  66.592  1.00  0.00    -0.262 C  
HETATM   11  N   UNL     1     -10.367  12.238  66.256  1.00  0.00    -0.228 N  
HETATM   12  O   UNL     1      -8.674  13.399  67.357  1.00  0.00    -0.188 OA 
HETATM   13  C   UNL     1     -11.398  12.572  65.421  1.00  0.00    -0.325 C  
HETATM   14  O   UNL     1     -12.256  11.857  64.946  1.00  0.00    -0.280 OA 
ENDROOT
BRANCH  11  15
HETATM   15  C   UNL     1     -10.106  10.868  66.666  1.00  0.00    -0.219 C  
HETATM   16  C   UNL     1     -10.000   9.866  65.521  1.00  0.00    -0.363 C  
HETATM   17  C   UNL     1      -9.543   8.529  66.091  1.00  0.00    -0.276 C  
HETATM   18  C   UNL     1     -10.463   8.052  67.195  1.00  0.00    -0.338 C  
HETATM   19  O   UNL     1     -10.623   6.862  67.444  1.00  0.00    -0.228 OA 
HETATM   20  N   UNL     1     -11.084   9.021  67.946  1.00  0.00    -0.480 N  
HETATM   21  H   UNL     1     -11.544   8.710  68.802  1.00  0.00     0.000 HD 
HETATM   22  C   UNL     1     -11.153  10.370  67.665  1.00  0.00    -0.293 C  
HETATM   23  O   UNL     1     -11.979  11.088  68.223  1.00  0.00    -0.593 OA 
ENDBRANCH  11  15
TORSDOF 1
ENDMDL
MODEL       59
REMARK 921   NORMALIZED FREE ENERGY PREDICTED BY IDOCK:   -5.68 KCAL/MOL
REMARK 922        TOTAL FREE ENERGY PREDICTED BY IDOCK:   -6.06 KCAL/MOL
REMARK 923 INTER-LIGAND FREE ENERGY PREDICTED BY IDOCK:   -6.09 KCAL/MOL
REMARK 924 INTRA-LIGAND FREE ENERGY PREDICTED BY IDOCK:    0.03 KCAL/MOL
REMARK 927      BINDING AFFINITY PREDICTED BY RF-SCORE:    0.00 PKD
ROOT
HETATM    1  N   UNL     1     -11.536   9.048  70.195  1.00  0.00    -0.446 NA 
HETATM    2  C   UNL     1     -10.317   9.663  69.909  1.00  0.00    -0.249 A  
HETATM    3  H1  UNL     1     -12.407   9.455  69.858  1.00  0.00     0.000 HD 
HETATM    4  H2  UNL     1     -11.606   8.928  71.206  1.00  0.00     0.000 HD 
HETATM    5  C   UNL     1      -9.117   9.102  70.373  1.00  0.00    -0.270 A  
HETATM    6  C   UNL     1      -7.859   9.600  69.973  1.00  0.00    -0.173 A  
HETATM    7  C   UNL     1      -7.768  10.645  69.055  1.00  0.00    -0.130 A  
HETATM    8  C   UNL     1      -8.956  11.154  68.568  1.00  0.00    -0.168 A  
HETATM    9  C   UNL     1     -10.192  10.682  68.979  1.00  0.00    -0.231 A  
HETATM   10  C   UNL     1     -11.208  11.475  68.278  1.00  0.00    -0.261 C  
HETATM   11  N   UNL     1     -10.538  12.349  67.464  1.00  0.00    -0.216 N  
HETATM   12  O   UNL     1     -12.408  11.378  68.457  1.00  0.00    -0.504 OA 
HETATM   13  C   UNL     1      -9.184  12.207  67.585  1.00  0.00    -0.181 C  
HETATM   14  O   UNL     1      -8.300  12.825  67.027  1.00  0.00    -0.178 OA 
ENDROOT
BRANCH  11  15
HETATM   15  C   UNL     1     -11.147  13.288  66.536  1.00  0.00    -0.294 C  
HETATM   16  C   UNL     1     -10.726  13.113  65.080  1.00  0.00    -0.329 C  
HETATM   17  C   UNL     1     -11.580  14.033  64.217  1.00  0.00    -0.348 C  
HETATM   18  C   UNL     1     -11.485  15.472  64.679  1.00  0.00    -0.324 C  
HETATM   19  O   UNL     1     -11.635  16.416  63.909  1.00  0.00    -1.100 OA 
HETATM   20  N   UNL     1     -11.267  15.681  66.019  1.00  0.00    -0.132 N  
HETATM   21  H   UNL     1     -11.397  16.634  66.359  1.00  0.00     0.000 HD 
HETATM   22  C   UNL     1     -10.892  14.738  66.954  1.00  0.00    -0.316 C  
HETATM   23  O   UNL     1     -10.430  15.077  68.040  1.00  0.00    -0.238 OA 
ENDBRANCH  11  15
TORSDOF 1
ENDMDL
MODEL       60
REMARK 921   NORMALIZED FREE ENERGY PREDICTED BY IDOCK:   -5.63 KCAL/MOL
REMARK 922        TOTAL FREE ENERGY PREDICTED BY IDOCK:   -6.01 KCAL/MOL
REMARK 923 INTER-LIGAND FREE ENERGY PREDICTED BY IDOCK:   -6.10 KCAL/MOL
REMARK 924 INTRA-LIGAND FREE ENERGY PREDICTED BY IDOCK:    0.10 KCAL/MOL
REMARK 927      BINDING AFFINITY PREDICTED BY RF-SCORE:    0.00 PKD
ROOT
HETATM    1  N   UNL     1     -10.965  11.016  64.916  1.00  0.00    -0.142 NA 
HETATM    2  C   UNL     1     -11.220  12.111  65.740  1.00  0.00    -0.339 A  
HETATM    3  H1  UNL     1     -10.662  10.130  65.319  1.00  0.00     0.000 HD 
HETATM    4  H2  UNL     1     -10.285  11.298  64.209  1.00  0.00     0.000 HD 
HETATM    5  C   UNL     1     -11.638  13.331  65.185  1.00  0.00    -0.334 A  
HETATM    6  C   UNL     1     -12.061  14.410  65.991  1.00  0.00    -0.370 A  
HETATM    7  C   UNL     1     -12.123  14.278  67.377  1.00  0.00    -0.371 A  
HETATM    8  C   UNL     1     -11.758  13.057  67.907  1.00  0.00    -0.402 A  
HETATM    9  C   UNL     1     -11.320  12.005  67.119  1.00  0.00    -0.396 A  
HETATM   10  C   UNL     1     -10.996  10.897  68.023  1.00  0.00    -0.265 C  
HETATM   11  N   UNL     1     -11.287  11.322  69.292  1.00  0.00    -0.260 N  
HETATM   12  O   UNL     1     -10.512   9.835  67.674  1.00  0.00    -0.217 OA 
HETATM   13  C   UNL     1     -11.753  12.607  69.294  1.00  0.00    -0.322 C  
HETATM   14  O   UNL     1     -12.087  13.295  70.237  1.00  0.00    -0.343 OA 
ENDROOT
BRANCH  11  15
HETATM   15  C   UNL     1     -11.180  10.526  70.504  1.00  0.00    -0.265 C  
HETATM   16  C   UNL     1     -10.090   9.460  70.476  1.00  0.00    -0.335 C  
HETATM   17  C   UNL     1      -9.979   8.847  71.866  1.00  0.00    -0.384 C  
HETATM   18  C   UNL     1     -11.310   8.302  72.340  1.00  0.00    -0.388 C  
HETATM   19  O   UNL     1     -11.389   7.364  73.127  1.00  0.00    -0.298 OA 
HETATM   20  N   UNL     1     -12.439   8.938  71.883  1.00  0.00    -0.351 N  
HETATM   21  H   UNL     1     -13.316   8.701  72.347  1.00  0.00     0.000 HD 
HETATM   22  C   UNL     1     -12.513   9.863  70.862  1.00  0.00    -0.307 C  
HETATM   23  O   UNL     1     -13.588  10.133  70.333  1.00  0.00    -0.014 OA 
ENDBRANCH  11  15
TORSDOF 1
ENDMDL
MODEL       61
REMARK 921   NORMALIZED FREE ENERGY PREDICTED BY IDOCK:   -5.62 KCAL/MOL
REMARK 922        TOTAL FREE ENERGY PREDICTED BY IDOCK:   -5.99 KCAL/MOL
REMARK 923 INTER-LIGAND FREE ENERGY PREDICTED BY IDOCK:   -5.98 KCAL/MOL
REMARK 924 INTRA-LIGAND FREE ENERGY PREDICTED BY IDOCK:   -0.02 KCAL/MOL
REMARK 927      BINDING AFFINITY PREDICTED BY RF-SCORE:    0.00 PKD
ROOT
HETATM    1  N   UNL     1     -12.035  13.043  68.008  1.00  0.00    -0.337 NA 
HETATM    2  C   UNL     1     -11.481  11.857  67.528  1.00  0.00    -0.326 A  
HETATM    3  H1  UNL     1     -12.372  13.100  68.969  1.00  0.00     0.000 HD 
HETATM    4  H2  UNL     1     -12.794  13.319  67.384  1.00  0.00     0.000 HD 
HETATM    5  C   UNL     1     -11.017  11.779  66.206  1.00  0.00    -0.346 A  
HETATM    6  C   UNL     1     -10.307  10.655  65.731  1.00  0.00    -0.287 A  
HETATM    7  C   UNL     1      -9.998   9.598  66.585  1.00  0.00    -0.301 A  
HETATM    8  C   UNL     1     -10.417   9.710  67.896  1.00  0.00    -0.296 A  
HETATM    9  C   UNL     1     -11.135  10.801  68.357  1.00  0.00    -0.323 A  
HETATM   10  C   UNL     1     -11.426  10.556  69.774  1.00  0.00    -0.294 C  
HETATM   11  N   UNL     1     -10.842   9.360  70.098  1.00  0.00    -0.237 N  
HETATM   12  O   UNL     1     -12.106  11.280  70.478  1.00  0.00    -0.341 OA 
HETATM   13  C   UNL     1     -10.216   8.801  69.019  1.00  0.00    -0.207 C  
HETATM   14  O   UNL     1      -9.618   7.747  68.947  1.00  0.00    -0.153 OA 
ENDROOT
BRANCH  11  15
HETATM   15  C   UNL     1     -10.821   8.751  71.417  1.00  0.00    -0.289 C  
HETATM   16  C   UNL     1      -9.430   8.417  71.947  1.00  0.00    -0.323 C  
HETATM   17  C   UNL     1      -9.561   7.966  73.396  1.00  0.00    -0.331 C  
HETATM   18  C   UNL     1     -10.525   6.807  73.531  1.00  0.00    -0.330 C  
HETATM   19  O   UNL     1     -10.425   5.974  74.427  1.00  0.00    -0.269 OA 
HETATM   20  N   UNL     1     -11.558   6.750  72.627  1.00  0.00    -0.460 N  
HETATM   21  H   UNL     1     -12.309   6.091  72.832  1.00  0.00     0.000 HD 
HETATM   22  C   UNL     1     -11.686   7.489  71.468  1.00  0.00    -0.280 C  
HETATM   23  O   UNL     1     -12.472   7.148  70.588  1.00  0.00    -0.250 OA 
ENDBRANCH  11  15
TORSDOF 1
ENDMDL
MODEL       62
REMARK 921   NORMALIZED FREE ENERGY PREDICTED BY IDOCK:   -5.61 KCAL/MOL
REMARK 922        TOTAL FREE ENERGY PREDICTED BY IDOCK:   -5.98 KCAL/MOL
REMARK 923 INTER-LIGAND FREE ENERGY PREDICTED BY IDOCK:   -6.06 KCAL/MOL
REMARK 924 INTRA-LIGAND FREE ENERGY PREDICTED BY IDOCK:    0.08 KCAL/MOL
REMARK 927      BINDING AFFINITY PREDICTED BY RF-SCORE:    0.00 PKD
ROOT
HETATM    1  N   UNL     1     -11.696  14.148  68.800  1.00  0.00    -0.324 NA 
HETATM    2  C   UNL     1     -12.199  13.675  70.011  1.00  0.00    -0.329 A  
HETATM    3  H1  UNL     1     -11.074  13.566  68.240  1.00  0.00     0.000 HD 
HETATM    4  H2  UNL     1     -11.235  15.042  68.971  1.00  0.00     0.000 HD 
HETATM    5  C   UNL     1     -13.057  14.476  70.781  1.00  0.00    -0.363 A  
HETATM    6  C   UNL     1     -13.713  13.978  71.927  1.00  0.00    -0.532 A  
HETATM    7  C   UNL     1     -13.566  12.645  72.305  1.00  0.00    -0.508 A  
HETATM    8  C   UNL     1     -12.759  11.854  71.510  1.00  0.00    -0.379 A  
HETATM    9  C   UNL     1     -12.095  12.349  70.399  1.00  0.00    -0.381 A  
HETATM   10  C   UNL     1     -11.322  11.239  69.832  1.00  0.00    -0.249 C  
HETATM   11  N   UNL     1     -11.586  10.137  70.602  1.00  0.00    -0.318 N  
HETATM   12  O   UNL     1     -10.561  11.336  68.888  1.00  0.00    -0.194 OA 
HETATM   13  C   UNL     1     -12.444  10.435  71.624  1.00  0.00    -0.370 C  
HETATM   14  O   UNL     1     -12.873   9.707  72.495  1.00  0.00    -0.302 OA 
ENDROOT
BRANCH  11  15
HETATM   15  C   UNL     1     -11.082   8.794  70.370  1.00  0.00    -0.236 C  
HETATM   16  C   UNL     1     -12.050   7.674  70.737  1.00  0.00    -0.149 C  
HETATM   17  C   UNL     1     -11.459   6.351  70.267  1.00  0.00    -0.468 C  
HETATM   18  C   UNL     1     -10.074   6.128  70.836  1.00  0.00    -0.192 C  
HETATM   19  O   UNL     1      -9.621   5.005  71.034  1.00  0.00    -0.153 OA 
HETATM   20  N   UNL     1      -9.318   7.248  71.083  1.00  0.00    -0.156 N  
HETATM   21  H   UNL     1      -8.328   7.096  71.279  1.00  0.00     0.000 HD 
HETATM   22  C   UNL     1      -9.754   8.557  71.095  1.00  0.00    -0.201 C  
HETATM   23  O   UNL     1      -9.083   9.440  71.622  1.00  0.00    -0.254 OA 
ENDBRANCH  11  15
TORSDOF 1
ENDMDL
MODEL       63
REMARK 921   NORMALIZED FREE ENERGY PREDICTED BY IDOCK:   -5.60 KCAL/MOL
REMARK 922        TOTAL FREE ENERGY PREDICTED BY IDOCK:   -5.97 KCAL/MOL
REMARK 923 INTER-LIGAND FREE ENERGY PREDICTED BY IDOCK:   -5.87 KCAL/MOL
REMARK 924 INTRA-LIGAND FREE ENERGY PREDICTED BY IDOCK:   -0.11 KCAL/MOL
REMARK 927      BINDING AFFINITY PREDICTED BY RF-SCORE:    0.00 PKD
ROOT
HETATM    1  N   UNL     1     -13.634   7.225  72.079  1.00  0.00    -0.548 NA 
HETATM    2  C   UNL     1     -12.243   7.307  72.036  1.00  0.00    -0.277 A  
HETATM    3  H1  UNL     1     -14.204   8.016  71.781  1.00  0.00     0.000 HD 
HETATM    4  H2  UNL     1     -13.912   6.966  73.026  1.00  0.00     0.000 HD 
HETATM    5  C   UNL     1     -11.458   6.217  72.446  1.00  0.00    -0.335 A  
HETATM    6  C   UNL     1     -10.058   6.199  72.269  1.00  0.00    -0.201 A  
HETATM    7  C   UNL     1      -9.411   7.254  71.628  1.00  0.00    -0.160 A  
HETATM    8  C   UNL     1     -10.201   8.296  71.184  1.00  0.00    -0.244 A  
HETATM    9  C   UNL     1     -11.572   8.326  71.380  1.00  0.00    -0.322 A  
HETATM   10  C   UNL     1     -12.059   9.586  70.808  1.00  0.00    -0.232 C  
HETATM   11  N   UNL     1     -10.973  10.225  70.271  1.00  0.00    -0.303 N  
HETATM   12  O   UNL     1     -13.211   9.975  70.868  1.00  0.00    -0.370 OA 
HETATM   13  C   UNL     1      -9.826   9.504  70.458  1.00  0.00    -0.269 C  
HETATM   14  O   UNL     1      -8.691   9.779  70.127  1.00  0.00    -0.207 OA 
ENDROOT
BRANCH  11  15
HETATM   15  C   UNL     1     -10.997  11.483  69.544  1.00  0.00    -0.125 C  
HETATM   16  C   UNL     1     -11.892  12.558  70.152  1.00  0.00    -0.336 C  
HETATM   17  C   UNL     1     -11.667  13.859  69.393  1.00  0.00    -0.367 C  
HETATM   18  C   UNL     1     -11.901  13.683  67.907  1.00  0.00    -0.366 C  
HETATM   19  O   UNL     1     -12.277  14.606  67.191  1.00  0.00    -0.301 OA 
HETATM   20  N   UNL     1     -11.630  12.444  67.379  1.00  0.00    -0.350 N  
HETATM   21  H   UNL     1     -11.600  12.379  66.362  1.00  0.00     0.000 HD 
HETATM   22  C   UNL     1     -11.394  11.279  68.079  1.00  0.00    -0.304 C  
HETATM   23  O   UNL     1     -11.468  10.185  67.525  1.00  0.00    -0.249 OA 
ENDBRANCH  11  15
TORSDOF 1
ENDMDL
MODEL       64
REMARK 921   NORMALIZED FREE ENERGY PREDICTED BY IDOCK:   -5.57 KCAL/MOL
REMARK 922        TOTAL FREE ENERGY PREDICTED BY IDOCK:   -5.94 KCAL/MOL
REMARK 923 INTER-LIGAND FREE ENERGY PREDICTED BY IDOCK:   -5.79 KCAL/MOL
REMARK 924 INTRA-LIGAND FREE ENERGY PREDICTED BY IDOCK:   -0.15 KCAL/MOL
REMARK 927      BINDING AFFINITY PREDICTED BY RF-SCORE:    0.00 PKD
ROOT
HETATM    1  N   UNL     1      -8.797  16.158  68.438  1.00  0.00    -0.182 NA 
HETATM    2  C   UNL     1      -9.723  15.290  69.014  1.00  0.00    -0.234 A  
HETATM    3  H1  UNL     1      -8.244  15.859  67.634  1.00  0.00     0.000 HD 
HETATM    4  H2  UNL     1      -8.158  16.475  69.167  1.00  0.00     0.000 HD 
HETATM    5  C   UNL     1     -10.484  15.701  70.120  1.00  0.00    -0.316 A  
HETATM    6  C   UNL     1     -11.541  14.917  70.630  1.00  0.00    -0.341 A  
HETATM    7  C   UNL     1     -11.898  13.720  70.012  1.00  0.00    -0.377 A  
HETATM    8  C   UNL     1     -11.175  13.352  68.895  1.00  0.00    -0.320 A  
HETATM    9  C   UNL     1     -10.121  14.108  68.408  1.00  0.00    -0.238 A  
HETATM   10  C   UNL     1      -9.584  13.396  67.245  1.00  0.00    -0.234 C  
HETATM   11  N   UNL     1     -10.356  12.278  67.071  1.00  0.00    -0.218 N  
HETATM   12  O   UNL     1      -8.601  13.741  66.613  1.00  0.00    -0.098 OA 
HETATM   13  C   UNL     1     -11.332  12.192  68.025  1.00  0.00    -0.295 C  
HETATM   14  O   UNL     1     -12.174  11.331  68.178  1.00  0.00    -0.622 OA 
ENDROOT
BRANCH  11  15
HETATM   15  C   UNL     1     -10.224  11.307  65.997  1.00  0.00    -0.247 C  
HETATM   16  C   UNL     1      -8.803  10.805  65.759  1.00  0.00    -0.201 C  
HETATM   17  C   UNL     1      -8.857   9.671  64.744  1.00  0.00    -0.242 C  
HETATM   18  C   UNL     1      -9.540  10.103  63.464  1.00  0.00    -0.191 C  
HETATM   19  O   UNL     1      -9.273   9.599  62.378  1.00  0.00    -0.283 OA 
HETATM   20  N   UNL     1     -10.516  11.063  63.576  1.00  0.00    -0.532 N  
HETATM   21  H   UNL     1     -11.105  11.213  62.756  1.00  0.00     0.000 HD 
HETATM   22  C   UNL     1     -10.785  11.847  64.679  1.00  0.00    -0.307 C  
HETATM   23  O   UNL     1     -11.459  12.869  64.577  1.00  0.00    -0.316 OA 
ENDBRANCH  11  15
TORSDOF 1
ENDMDL
MODEL       65
REMARK 921   NORMALIZED FREE ENERGY PREDICTED BY IDOCK:   -5.48 KCAL/MOL
REMARK 922        TOTAL FREE ENERGY PREDICTED BY IDOCK:   -5.85 KCAL/MOL
REMARK 923 INTER-LIGAND FREE ENERGY PREDICTED BY IDOCK:   -5.73 KCAL/MOL
REMARK 924 INTRA-LIGAND FREE ENERGY PREDICTED BY IDOCK:   -0.12 KCAL/MOL
REMARK 927      BINDING AFFINITY PREDICTED BY RF-SCORE:    0.00 PKD
ROOT
HETATM    1  N   UNL     1      -9.893  10.866  62.752  1.00  0.00    -0.581 NA 
HETATM    2  C   UNL     1     -10.604  11.550  63.737  1.00  0.00    -0.406 A  
HETATM    3  H1  UNL     1      -9.218  10.147  63.012  1.00  0.00     0.000 HD 
HETATM    4  H2  UNL     1      -9.422  11.551  62.161  1.00  0.00     0.000 HD 
HETATM    5  C   UNL     1     -11.533  12.539  63.379  1.00  0.00    -0.523 A  
HETATM    6  C   UNL     1     -12.386  13.139  64.330  1.00  0.00    -0.421 A  
HETATM    7  C   UNL     1     -12.365  12.728  65.661  1.00  0.00    -0.444 A  
HETATM    8  C   UNL     1     -11.482  11.719  65.990  1.00  0.00    -0.281 A  
HETATM    9  C   UNL     1     -10.627  11.146  65.063  1.00  0.00    -0.340 A  
HETATM   10  C   UNL     1      -9.828  10.145  65.777  1.00  0.00    -0.266 C  
HETATM   11  N   UNL     1     -10.263  10.141  67.076  1.00  0.00    -0.222 N  
HETATM   12  O   UNL     1      -8.922   9.499  65.282  1.00  0.00    -0.173 OA 
HETATM   13  C   UNL     1     -11.257  11.059  67.271  1.00  0.00    -0.258 C  
HETATM   14  O   UNL     1     -11.854  11.329  68.294  1.00  0.00    -0.516 OA 
ENDROOT
BRANCH  11  15
HETATM   15  C   UNL     1      -9.794   9.258  68.130  1.00  0.00    -0.162 C  
HETATM   16  C   UNL     1      -8.293   9.321  68.398  1.00  0.00    -0.119 C  
HETATM   17  C   UNL     1      -7.989   8.492  69.639  1.00  0.00    -0.101 C  
HETATM   18  C   UNL     1      -8.493   7.071  69.494  1.00  0.00    -0.134 C  
HETATM   19  O   UNL     1      -7.962   6.127  70.070  1.00  0.00    -0.106 OA 
HETATM   20  N   UNL     1      -9.610   6.885  68.716  1.00  0.00    -0.135 N  
HETATM   21  H   UNL     1     -10.059   5.971  68.774  1.00  0.00     0.000 HD 
HETATM   22  C   UNL     1     -10.188   7.803  67.864  1.00  0.00    -0.206 C  
HETATM   23  O   UNL     1     -10.982   7.446  66.997  1.00  0.00    -0.332 OA 
ENDBRANCH  11  15
TORSDOF 1
ENDMDL
MODEL       66
REMARK 921   NORMALIZED FREE ENERGY PREDICTED BY IDOCK:   -5.48 KCAL/MOL
REMARK 922        TOTAL FREE ENERGY PREDICTED BY IDOCK:   -5.84 KCAL/MOL
REMARK 923 INTER-LIGAND FREE ENERGY PREDICTED BY IDOCK:   -5.94 KCAL/MOL
REMARK 924 INTRA-LIGAND FREE ENERGY PREDICTED BY IDOCK:    0.10 KCAL/MOL
REMARK 927      BINDING AFFINITY PREDICTED BY RF-SCORE:    0.00 PKD
ROOT
HETATM    1  N   UNL     1      -9.671   9.677  64.762  1.00  0.00    -0.431 NA 
HETATM    2  C   UNL     1     -10.221  10.644  65.603  1.00  0.00    -0.253 A  
HETATM    3  H1  UNL     1      -9.306   8.808  65.151  1.00  0.00     0.000 HD 
HETATM    4  H2  UNL     1      -8.936  10.115  64.206  1.00  0.00     0.000 HD 
HETATM    5  C   UNL     1     -10.724  11.841  65.068  1.00  0.00    -0.344 A  
HETATM    6  C   UNL     1     -11.431  12.771  65.859  1.00  0.00    -0.399 A  
HETATM    7  C   UNL     1     -11.697  12.504  67.201  1.00  0.00    -0.425 A  
HETATM    8  C   UNL     1     -11.241  11.300  67.702  1.00  0.00    -0.357 A  
HETATM    9  C   UNL     1     -10.526  10.397  66.932  1.00  0.00    -0.300 A  
HETATM   10  C   UNL     1     -10.189   9.265  67.801  1.00  0.00    -0.218 C  
HETATM   11  N   UNL     1     -10.744   9.526  69.026  1.00  0.00    -0.221 N  
HETATM   12  O   UNL     1      -9.499   8.318  67.471  1.00  0.00    -0.144 OA 
HETATM   13  C   UNL     1     -11.394  10.729  69.035  1.00  0.00    -0.284 C  
HETATM   14  O   UNL     1     -11.978  11.273  69.949  1.00  0.00    -0.306 OA 
ENDROOT
BRANCH  11  15
HETATM   15  C   UNL     1     -10.716   8.643  70.181  1.00  0.00    -0.234 C  
HETATM   16  C   UNL     1     -11.960   8.701  71.062  1.00  0.00    -0.278 C  
HETATM   17  C   UNL     1     -11.861   7.600  72.109  1.00  0.00    -0.352 C  
HETATM   18  C   UNL     1     -10.580   7.706  72.908  1.00  0.00    -0.354 C  
HETATM   19  O   UNL     1     -10.496   7.307  74.065  1.00  0.00    -0.311 OA 
HETATM   20  N   UNL     1      -9.488   8.235  72.263  1.00  0.00    -0.243 N  
HETATM   21  H   UNL     1      -8.587   8.129  72.729  1.00  0.00     0.000 HD 
HETATM   22  C   UNL     1      -9.481   8.894  71.051  1.00  0.00    -0.252 C  
HETATM   23  O   UNL     1      -8.524   9.587  70.716  1.00  0.00    -0.232 OA 
ENDBRANCH  11  15
TORSDOF 1
ENDMDL
MODEL       67
REMARK 921   NORMALIZED FREE ENERGY PREDICTED BY IDOCK:   -5.48 KCAL/MOL
REMARK 922        TOTAL FREE ENERGY PREDICTED BY IDOCK:   -5.84 KCAL/MOL
REMARK 923 INTER-LIGAND FREE ENERGY PREDICTED BY IDOCK:   -5.70 KCAL/MOL
REMARK 924 INTRA-LIGAND FREE ENERGY PREDICTED BY IDOCK:   -0.14 KCAL/MOL
REMARK 927      BINDING AFFINITY PREDICTED BY RF-SCORE:    0.00 PKD
ROOT
HETATM    1  N   UNL     1     -12.478  13.280  70.721  1.00  0.00    -0.349 NA 
HETATM    2  C   UNL     1     -12.099  12.548  69.596  1.00  0.00    -0.207 A  
HETATM    3  H1  UNL     1     -12.635  12.807  71.611  1.00  0.00     0.000 HD 
HETATM    4  H2  UNL     1     -13.314  13.815  70.488  1.00  0.00     0.000 HD 
HETATM    5  C   UNL     1     -11.882  13.198  68.371  1.00  0.00    -0.386 A  
HETATM    6  C   UNL     1     -11.344  12.523  67.254  1.00  0.00    -0.373 A  
HETATM    7  C   UNL     1     -10.961  11.187  67.350  1.00  0.00    -0.347 A  
HETATM    8  C   UNL     1     -11.132  10.573  68.575  1.00  0.00    -0.329 A  
HETATM    9  C   UNL     1     -11.683  11.228  69.665  1.00  0.00    -0.420 A  
HETATM   10  C   UNL     1     -11.733  10.260  70.766  1.00  0.00    -0.360 C  
HETATM   11  N   UNL     1     -11.183   9.096  70.298  1.00  0.00    -0.240 N  
HETATM   12  O   UNL     1     -12.228  10.477  71.857  1.00  0.00    -0.200 OA 
HETATM   13  C   UNL     1     -10.797   9.216  68.992  1.00  0.00    -0.090 C  
HETATM   14  O   UNL     1     -10.293   8.383  68.267  1.00  0.00    -0.204 OA 
ENDROOT
BRANCH  11  15
HETATM   15  C   UNL     1     -10.970   7.883  71.069  1.00  0.00    -0.244 C  
HETATM   16  C   UNL     1     -12.216   7.337  71.760  1.00  0.00    -0.368 C  
HETATM   17  C   UNL     1     -11.876   5.979  72.363  1.00  0.00    -0.283 C  
HETATM   18  C   UNL     1     -10.687   6.068  73.297  1.00  0.00    -0.262 C  
HETATM   19  O   UNL     1     -10.541   5.302  74.244  1.00  0.00    -0.281 OA 
HETATM   20  N   UNL     1      -9.744   7.024  73.010  1.00  0.00    -0.159 N  
HETATM   21  H   UNL     1      -8.859   6.958  73.514  1.00  0.00     0.000 HD 
HETATM   22  C   UNL     1      -9.865   8.065  72.112  1.00  0.00    -0.223 C  
HETATM   23  O   UNL     1      -9.102   9.026  72.155  1.00  0.00    -0.372 OA 
ENDBRANCH  11  15
TORSDOF 1
ENDMDL
MODEL       68
REMARK 921   NORMALIZED FREE ENERGY PREDICTED BY IDOCK:   -5.47 KCAL/MOL
REMARK 922        TOTAL FREE ENERGY PREDICTED BY IDOCK:   -5.83 KCAL/MOL
REMARK 923 INTER-LIGAND FREE ENERGY PREDICTED BY IDOCK:   -5.95 KCAL/MOL
REMARK 924 INTRA-LIGAND FREE ENERGY PREDICTED BY IDOCK:    0.13 KCAL/MOL
REMARK 927      BINDING AFFINITY PREDICTED BY RF-SCORE:    0.00 PKD
ROOT
HETATM    1  N   UNL     1      -6.451  18.145  69.720  1.00  0.00    -0.129 NA 
HETATM    2  C   UNL     1      -7.192  18.741  68.700  1.00  0.00    -0.303 A  
HETATM    3  H1  UNL     1      -6.725  17.234  70.087  1.00  0.00     0.000 HD 
HETATM    4  H2  UNL     1      -6.392  18.801  70.500  1.00  0.00     0.000 HD 
HETATM    5  C   UNL     1      -6.816  19.996  68.195  1.00  0.00    -0.329 A  
HETATM    6  C   UNL     1      -7.437  20.559  67.060  1.00  0.00    -0.362 A  
HETATM    7  C   UNL     1      -8.422  19.855  66.368  1.00  0.00    -0.379 A  
HETATM    8  C   UNL     1      -8.747  18.601  66.846  1.00  0.00    -0.288 A  
HETATM    9  C   UNL     1      -8.155  18.058  67.974  1.00  0.00    -0.259 A  
HETATM   10  C   UNL     1      -8.767  16.743  68.189  1.00  0.00    -0.219 C  
HETATM   11  N   UNL     1      -9.661  16.549  67.169  1.00  0.00    -0.236 N  
HETATM   12  O   UNL     1      -8.534  16.016  69.138  1.00  0.00    -0.235 OA 
HETATM   13  C   UNL     1      -9.695  17.623  66.325  1.00  0.00    -0.263 C  
HETATM   14  O   UNL     1     -10.379  17.794  65.336  1.00  0.00    -0.602 OA 
ENDROOT
BRANCH  11  15
HETATM   15  C   UNL     1     -10.453  15.351  66.945  1.00  0.00    -0.295 C  
HETATM   16  C   UNL     1     -11.538  15.097  67.987  1.00  0.00    -0.345 C  
HETATM   17  C   UNL     1     -12.392  13.926  67.517  1.00  0.00    -0.113 C  
HETATM   18  C   UNL     1     -11.550  12.698  67.246  1.00  0.00    -0.364 C  
HETATM   19  O   UNL     1     -11.997  11.561  67.359  1.00  0.00    -0.623 OA 
HETATM   20  N   UNL     1     -10.261  12.911  66.820  1.00  0.00    -0.238 N  
HETATM   21  H   UNL     1      -9.762  12.100  66.455  1.00  0.00     0.000 HD 
HETATM   22  C   UNL     1      -9.570  14.105  66.835  1.00  0.00    -0.270 C  
HETATM   23  O   UNL     1      -8.348  14.127  66.726  1.00  0.00    -0.104 OA 
ENDBRANCH  11  15
TORSDOF 1
ENDMDL
MODEL       69
REMARK 921   NORMALIZED FREE ENERGY PREDICTED BY IDOCK:   -5.44 KCAL/MOL
REMARK 922        TOTAL FREE ENERGY PREDICTED BY IDOCK:   -5.80 KCAL/MOL
REMARK 923 INTER-LIGAND FREE ENERGY PREDICTED BY IDOCK:   -5.92 KCAL/MOL
REMARK 924 INTRA-LIGAND FREE ENERGY PREDICTED BY IDOCK:    0.12 KCAL/MOL
REMARK 927      BINDING AFFINITY PREDICTED BY RF-SCORE:    0.00 PKD
ROOT
HETATM    1  N   UNL     1     -12.520  15.210  63.743  1.00  0.00    -1.007 NA 
HETATM    2  C   UNL     1     -12.011  13.961  64.096  1.00  0.00    -0.428 A  
HETATM    3  H1  UNL     1     -12.256  16.040  64.274  1.00  0.00     0.000 HD 
HETATM    4  H2  UNL     1     -13.538  15.149  63.725  1.00  0.00     0.000 HD 
HETATM    5  C   UNL     1     -12.373  12.819  63.364  1.00  0.00    -0.531 A  
HETATM    6  C   UNL     1     -11.759  11.567  63.585  1.00  0.00    -0.278 A  
HETATM    7  C   UNL     1     -10.727  11.437  64.513  1.00  0.00    -0.391 A  
HETATM    8  C   UNL     1     -10.346  12.579  65.189  1.00  0.00    -0.312 A  
HETATM    9  C   UNL     1     -10.965  13.803  64.991  1.00  0.00    -0.359 A  
HETATM   10  C   UNL     1     -10.320  14.761  65.895  1.00  0.00    -0.320 C  
HETATM   11  N   UNL     1      -9.333  14.080  66.557  1.00  0.00    -0.276 N  
HETATM   12  O   UNL     1     -10.663  15.920  66.036  1.00  0.00    -0.320 OA 
HETATM   13  C   UNL     1      -9.291  12.767  66.178  1.00  0.00    -0.106 C  
HETATM   14  O   UNL     1      -8.558  11.883  66.572  1.00  0.00    -0.183 OA 
ENDROOT
BRANCH  11  15
HETATM   15  C   UNL     1      -8.394  14.650  67.509  1.00  0.00    -0.190 C  
HETATM   16  C   UNL     1      -7.012  14.005  67.510  1.00  0.00    -0.167 C  
HETATM   17  C   UNL     1      -6.098  14.823  68.413  1.00  0.00    -0.100 C  
HETATM   18  C   UNL     1      -6.674  14.962  69.807  1.00  0.00    -0.179 C  
HETATM   19  O   UNL     1      -5.963  15.104  70.796  1.00  0.00    -0.088 OA 
HETATM   20  N   UNL     1      -8.043  14.966  69.914  1.00  0.00    -0.391 N  
HETATM   21  H   UNL     1      -8.429  15.251  70.815  1.00  0.00     0.000 HD 
HETATM   22  C   UNL     1      -8.953  14.625  68.935  1.00  0.00    -0.136 C  
HETATM   23  O   UNL     1     -10.119  14.367  69.219  1.00  0.00    -0.153 OA 
ENDBRANCH  11  15
TORSDOF 1
ENDMDL
MODEL       70
REMARK 921   NORMALIZED FREE ENERGY PREDICTED BY IDOCK:   -5.40 KCAL/MOL
REMARK 922        TOTAL FREE ENERGY PREDICTED BY IDOCK:   -5.76 KCAL/MOL
REMARK 923 INTER-LIGAND FREE ENERGY PREDICTED BY IDOCK:   -5.71 KCAL/MOL
REMARK 924 INTRA-LIGAND FREE ENERGY PREDICTED BY IDOCK:   -0.05 KCAL/MOL
REMARK 927      BINDING AFFINITY PREDICTED BY RF-SCORE:    0.00 PKD
ROOT
HETATM    1  N   UNL     1     -12.768  14.891  70.015  1.00  0.00    -0.580 NA 
HETATM    2  C   UNL     1     -11.679  14.159  69.543  1.00  0.00    -0.312 A  
HETATM    3  H1  UNL     1     -12.709  15.906  70.093  1.00  0.00     0.000 HD 
HETATM    4  H2  UNL     1     -13.039  14.513  70.923  1.00  0.00     0.000 HD 
HETATM    5  C   UNL     1     -11.760  12.762  69.435  1.00  0.00    -0.380 A  
HETATM    6  C   UNL     1     -10.745  12.003  68.814  1.00  0.00    -0.252 A  
HETATM    7  C   UNL     1      -9.642  12.630  68.238  1.00  0.00    -0.208 A  
HETATM    8  C   UNL     1      -9.599  14.008  68.306  1.00  0.00    -0.224 A  
HETATM    9  C   UNL     1     -10.583  14.753  68.937  1.00  0.00    -0.250 A  
HETATM   10  C   UNL     1     -10.186  16.161  68.835  1.00  0.00    -0.245 C  
HETATM   11  N   UNL     1      -9.015  16.194  68.125  1.00  0.00    -0.183 N  
HETATM   12  O   UNL     1     -10.786  17.089  69.346  1.00  0.00    -0.322 OA 
HETATM   13  C   UNL     1      -8.609  14.937  67.773  1.00  0.00    -0.167 C  
HETATM   14  O   UNL     1      -7.617  14.601  67.159  1.00  0.00    -0.181 OA 
ENDROOT
BRANCH  11  15
HETATM   15  C   UNL     1      -8.291  17.390  67.729  1.00  0.00    -0.218 C  
HETATM   16  C   UNL     1      -7.782  18.243  68.887  1.00  0.00    -0.223 C  
HETATM   17  C   UNL     1      -6.894  19.344  68.322  1.00  0.00    -0.309 C  
HETATM   18  C   UNL     1      -7.621  20.162  67.275  1.00  0.00    -0.298 C  
HETATM   19  O   UNL     1      -7.348  21.338  67.059  1.00  0.00    -0.392 OA 
HETATM   20  N   UNL     1      -8.582  19.513  66.538  1.00  0.00    -0.332 N  
HETATM   21  H   UNL     1      -8.931  20.001  65.713  1.00  0.00     0.000 HD 
HETATM   22  C   UNL     1      -9.125  18.271  66.795  1.00  0.00    -0.284 C  
HETATM   23  O   UNL     1     -10.177  17.921  66.266  1.00  0.00    -0.349 OA 
ENDBRANCH  11  15
TORSDOF 1
ENDMDL
MODEL       71
REMARK 921   NORMALIZED FREE ENERGY PREDICTED BY IDOCK:   -5.35 KCAL/MOL
REMARK 922        TOTAL FREE ENERGY PREDICTED BY IDOCK:   -5.71 KCAL/MOL
REMARK 923 INTER-LIGAND FREE ENERGY PREDICTED BY IDOCK:   -5.68 KCAL/MOL
REMARK 924 INTRA-LIGAND FREE ENERGY PREDICTED BY IDOCK:   -0.03 KCAL/MOL
REMARK 927      BINDING AFFINITY PREDICTED BY RF-SCORE:    0.00 PKD
ROOT
HETATM    1  N   UNL     1     -13.451  11.109  72.529  1.00  0.00    -0.360 NA 
HETATM    2  C   UNL     1     -13.181  12.289  71.838  1.00  0.00    -0.376 A  
HETATM    3  H1  UNL     1     -13.175  10.209  72.136  1.00  0.00     0.000 HD 
HETATM    4  H2  UNL     1     -14.450  11.077  72.734  1.00  0.00     0.000 HD 
HETATM    5  C   UNL     1     -13.561  13.527  72.380  1.00  0.00    -0.709 A  
HETATM    6  C   UNL     1     -13.166  14.749  71.795  1.00  0.00    -0.435 A  
HETATM    7  C   UNL     1     -12.336  14.764  70.675  1.00  0.00    -0.401 A  
HETATM    8  C   UNL     1     -11.929  13.540  70.182  1.00  0.00    -0.399 A  
HETATM    9  C   UNL     1     -12.335  12.340  70.741  1.00  0.00    -0.383 A  
HETATM   10  C   UNL     1     -11.734  11.268  69.941  1.00  0.00    -0.352 C  
HETATM   11  N   UNL     1     -10.975  11.872  68.974  1.00  0.00    -0.228 N  
HETATM   12  O   UNL     1     -11.939  10.080  70.107  1.00  0.00    -0.220 OA 
HETATM   13  C   UNL     1     -11.044  13.235  69.064  1.00  0.00    -0.244 C  
HETATM   14  O   UNL     1     -10.514  14.073  68.363  1.00  0.00    -0.239 OA 
ENDROOT
BRANCH  11  15
HETATM   15  C   UNL     1     -10.147  11.194  67.991  1.00  0.00    -0.174 C  
HETATM   16  C   UNL     1     -10.911  10.304  67.015  1.00  0.00    -0.248 C  
HETATM   17  C   UNL     1      -9.942   9.818  65.945  1.00  0.00    -0.345 C  
HETATM   18  C   UNL     1      -8.747   9.116  66.556  1.00  0.00    -0.128 C  
HETATM   19  O   UNL     1      -8.131   8.237  65.962  1.00  0.00    -0.100 OA 
HETATM   20  N   UNL     1      -8.348   9.540  67.800  1.00  0.00    -0.118 N  
HETATM   21  H   UNL     1      -7.439   9.210  68.125  1.00  0.00     0.000 HD 
HETATM   22  C   UNL     1      -9.045  10.366  68.658  1.00  0.00    -0.157 C  
HETATM   23  O   UNL     1      -8.750  10.432  69.848  1.00  0.00    -0.064 OA 
ENDBRANCH  11  15
TORSDOF 1
ENDMDL
MODEL       72
REMARK 921   NORMALIZED FREE ENERGY PREDICTED BY IDOCK:   -5.34 KCAL/MOL
REMARK 922        TOTAL FREE ENERGY PREDICTED BY IDOCK:   -5.69 KCAL/MOL
REMARK 923 INTER-LIGAND FREE ENERGY PREDICTED BY IDOCK:   -5.68 KCAL/MOL
REMARK 924 INTRA-LIGAND FREE ENERGY PREDICTED BY IDOCK:   -0.01 KCAL/MOL
REMARK 927      BINDING AFFINITY PREDICTED BY RF-SCORE:    0.00 PKD
ROOT
HETATM    1  N   UNL     1     -11.548  16.439  63.810  1.00  0.00    -1.515 NA 
HETATM    2  C   UNL     1     -10.940  16.503  65.063  1.00  0.00    -0.210 A  
HETATM    3  H1  UNL     1     -11.628  15.546  63.323  1.00  0.00     0.000 HD 
HETATM    4  H2  UNL     1     -11.081  17.102  63.191  1.00  0.00     0.000 HD 
HETATM    5  C   UNL     1     -10.831  17.732  65.732  1.00  0.00     0.037 A  
HETATM    6  C   UNL     1     -10.370  17.816  67.064  1.00  0.00    -0.344 A  
HETATM    7  C   UNL     1     -10.054  16.663  67.779  1.00  0.00    -0.275 A  
HETATM    8  C   UNL     1     -10.214  15.457  67.125  1.00  0.00    -0.251 A  
HETATM    9  C   UNL     1     -10.642  15.375  65.810  1.00  0.00    -0.361 A  
HETATM   10  C   UNL     1     -10.662  13.953  65.454  1.00  0.00    -0.325 C  
HETATM   11  N   UNL     1     -10.283  13.257  66.571  1.00  0.00    -0.277 N  
HETATM   12  O   UNL     1     -10.921  13.519  64.346  1.00  0.00    -0.378 OA 
HETATM   13  C   UNL     1     -10.004  14.099  67.612  1.00  0.00    -0.233 C  
HETATM   14  O   UNL     1      -9.628  13.825  68.734  1.00  0.00    -0.160 OA 
ENDROOT
BRANCH  11  15
HETATM   15  C   UNL     1     -10.221  11.810  66.696  1.00  0.00    -0.210 C  
HETATM   16  C   UNL     1     -11.043  11.231  67.843  1.00  0.00    -0.325 C  
HETATM   17  C   UNL     1     -11.028   9.712  67.728  1.00  0.00    -0.203 C  
HETATM   18  C   UNL     1      -9.613   9.172  67.699  1.00  0.00    -0.149 C  
HETATM   19  O   UNL     1      -9.333   8.051  68.111  1.00  0.00    -0.140 OA 
HETATM   20  N   UNL     1      -8.652   9.981  67.144  1.00  0.00    -0.128 N  
HETATM   21  H   UNL     1      -7.749   9.549  66.948  1.00  0.00     0.000 HD 
HETATM   22  C   UNL     1      -8.777  11.317  66.824  1.00  0.00    -0.166 C  
HETATM   23  O   UNL     1      -7.785  12.014  66.627  1.00  0.00    -0.067 OA 
ENDBRANCH  11  15
TORSDOF 1
ENDMDL
MODEL       73
REMARK 921   NORMALIZED FREE ENERGY PREDICTED BY IDOCK:   -5.32 KCAL/MOL
REMARK 922        TOTAL FREE ENERGY PREDICTED BY IDOCK:   -5.68 KCAL/MOL
REMARK 923 INTER-LIGAND FREE ENERGY PREDICTED BY IDOCK:   -5.81 KCAL/MOL
REMARK 924 INTRA-LIGAND FREE ENERGY PREDICTED BY IDOCK:    0.13 KCAL/MOL
REMARK 927      BINDING AFFINITY PREDICTED BY RF-SCORE:    0.00 PKD
ROOT
HETATM    1  N   UNL     1      -7.183   9.628  70.276  1.00  0.00    -0.119 NA 
HETATM    2  C   UNL     1      -8.557   9.408  70.368  1.00  0.00    -0.230 A  
HETATM    3  H1  UNL     1      -6.804  10.196  69.519  1.00  0.00     0.000 HD 
HETATM    4  H2  UNL     1      -6.712   8.723  70.266  1.00  0.00     0.000 HD 
HETATM    5  C   UNL     1      -9.078   8.627  71.411  1.00  0.00    -0.295 A  
HETATM    6  C   UNL     1     -10.467   8.512  71.634  1.00  0.00    -0.345 A  
HETATM    7  C   UNL     1     -11.372   9.221  70.846  1.00  0.00    -0.373 A  
HETATM    8  C   UNL     1     -10.844  10.025  69.855  1.00  0.00    -0.328 A  
HETATM    9  C   UNL     1      -9.482  10.119  69.620  1.00  0.00    -0.226 A  
HETATM   10  C   UNL     1      -9.304  11.032  68.487  1.00  0.00    -0.188 C  
HETATM   11  N   UNL     1     -10.552  11.464  68.124  1.00  0.00    -0.180 N  
HETATM   12  O   UNL     1      -8.235  11.287  67.963  1.00  0.00    -0.123 OA 
HETATM   13  C   UNL     1     -11.522  10.902  68.908  1.00  0.00    -0.300 C  
HETATM   14  O   UNL     1     -12.726  11.050  68.853  1.00  0.00    -0.216 OA 
ENDROOT
BRANCH  11  15
HETATM   15  C   UNL     1     -10.851  12.433  67.083  1.00  0.00    -0.245 C  
HETATM   16  C   UNL     1     -12.080  13.296  67.346  1.00  0.00    -0.327 C  
HETATM   17  C   UNL     1     -12.152  14.374  66.272  1.00  0.00    -0.384 C  
HETATM   18  C   UNL     1     -12.152  13.773  64.882  1.00  0.00    -0.403 C  
HETATM   19  O   UNL     1     -12.691  14.329  63.930  1.00  0.00    -0.749 OA 
HETATM   20  N   UNL     1     -11.479  12.587  64.719  1.00  0.00    -0.312 N  
HETATM   21  H   UNL     1     -11.314  12.285  63.758  1.00  0.00     0.000 HD 
HETATM   22  C   UNL     1     -11.001  11.761  65.715  1.00  0.00    -0.301 C  
HETATM   23  O   UNL     1     -10.695  10.596  65.476  1.00  0.00    -0.165 OA 
ENDBRANCH  11  15
TORSDOF 1
ENDMDL
MODEL       74
REMARK 921   NORMALIZED FREE ENERGY PREDICTED BY IDOCK:   -5.32 KCAL/MOL
REMARK 922        TOTAL FREE ENERGY PREDICTED BY IDOCK:   -5.67 KCAL/MOL
REMARK 923 INTER-LIGAND FREE ENERGY PREDICTED BY IDOCK:   -5.53 KCAL/MOL
REMARK 924 INTRA-LIGAND FREE ENERGY PREDICTED BY IDOCK:   -0.14 KCAL/MOL
REMARK 927      BINDING AFFINITY PREDICTED BY RF-SCORE:    0.00 PKD
ROOT
HETATM    1  N   UNL     1      -7.099  15.191  66.983  1.00  0.00    -0.309 NA 
HETATM    2  C   UNL     1      -8.461  15.320  66.712  1.00  0.00    -0.255 A  
HETATM    3  H1  UNL     1      -6.723  14.300  67.305  1.00  0.00     0.000 HD 
HETATM    4  H2  UNL     1      -6.836  15.913  67.655  1.00  0.00     0.000 HD 
HETATM    5  C   UNL     1      -8.980  16.547  66.270  1.00  0.00    -0.359 A  
HETATM    6  C   UNL     1     -10.315  16.677  65.832  1.00  0.00    -0.355 A  
HETATM    7  C   UNL     1     -11.155  15.566  65.778  1.00  0.00    -0.217 A  
HETATM    8  C   UNL     1     -10.617  14.356  66.168  1.00  0.00    -0.298 A  
HETATM    9  C   UNL     1      -9.314  14.231  66.621  1.00  0.00    -0.302 A  
HETATM   10  C   UNL     1      -9.113  12.821  66.969  1.00  0.00    -0.220 C  
HETATM   11  N   UNL     1     -10.281  12.169  66.676  1.00  0.00    -0.200 N  
HETATM   12  O   UNL     1      -8.100  12.368  67.470  1.00  0.00    -0.151 OA 
HETATM   13  C   UNL     1     -11.225  13.030  66.188  1.00  0.00    -0.291 C  
HETATM   14  O   UNL     1     -12.366  12.795  65.845  1.00  0.00    -0.551 OA 
ENDROOT
BRANCH  11  15
HETATM   15  C   UNL     1     -10.516  10.740  66.803  1.00  0.00    -0.251 C  
HETATM   16  C   UNL     1     -10.048  10.129  68.120  1.00  0.00    -0.178 C  
HETATM   17  C   UNL     1     -10.528   8.685  68.179  1.00  0.00    -0.241 C  
HETATM   18  C   UNL     1     -10.060   7.895  66.975  1.00  0.00    -0.277 C  
HETATM   19  O   UNL     1      -9.868   6.684  67.022  1.00  0.00    -0.143 OA 
HETATM   20  N   UNL     1      -9.900   8.590  65.801  1.00  0.00    -0.423 N  
HETATM   21  H   UNL     1      -9.776   8.034  64.955  1.00  0.00     0.000 HD 
HETATM   22  C   UNL     1      -9.889   9.961  65.645  1.00  0.00    -0.298 C  
HETATM   23  O   UNL     1      -9.437  10.475  64.625  1.00  0.00    -0.214 OA 
ENDBRANCH  11  15
TORSDOF 1
ENDMDL
MODEL       75
REMARK 921   NORMALIZED FREE ENERGY PREDICTED BY IDOCK:   -5.23 KCAL/MOL
REMARK 922        TOTAL FREE ENERGY PREDICTED BY IDOCK:   -5.58 KCAL/MOL
REMARK 923 INTER-LIGAND FREE ENERGY PREDICTED BY IDOCK:   -5.53 KCAL/MOL
REMARK 924 INTRA-LIGAND FREE ENERGY PREDICTED BY IDOCK:   -0.05 KCAL/MOL
REMARK 927      BINDING AFFINITY PREDICTED BY RF-SCORE:    0.00 PKD
ROOT
HETATM    1  N   UNL     1     -11.309  12.640  63.001  1.00  0.00    -0.707 NA 
HETATM    2  C   UNL     1     -11.434  12.763  64.385  1.00  0.00    -0.354 A  
HETATM    3  H1  UNL     1     -10.793  11.857  62.601  1.00  0.00     0.000 HD 
HETATM    4  H2  UNL     1     -10.913  13.507  62.637  1.00  0.00     0.000 HD 
HETATM    5  C   UNL     1     -12.145  13.840  64.936  1.00  0.00    -0.428 A  
HETATM    6  C   UNL     1     -12.432  13.915  66.316  1.00  0.00    -0.454 A  
HETATM    7  C   UNL     1     -12.057  12.883  67.176  1.00  0.00    -0.283 A  
HETATM    8  C   UNL     1     -11.403  11.806  66.611  1.00  0.00    -0.381 A  
HETATM    9  C   UNL     1     -11.099  11.743  65.261  1.00  0.00    -0.333 A  
HETATM   10  C   UNL     1     -10.386  10.480  65.040  1.00  0.00    -0.240 C  
HETATM   11  N   UNL     1     -10.330   9.839  66.249  1.00  0.00    -0.207 N  
HETATM   12  O   UNL     1      -9.905  10.132  63.978  1.00  0.00    -0.290 OA 
HETATM   13  C   UNL     1     -10.926  10.576  67.234  1.00  0.00    -0.260 C  
HETATM   14  O   UNL     1     -11.041  10.319  68.415  1.00  0.00    -0.253 OA 
ENDROOT
BRANCH  11  15
HETATM   15  C   UNL     1      -9.767   8.521  66.491  1.00  0.00    -0.260 C  
HETATM   16  C   UNL     1     -10.661   7.579  67.291  1.00  0.00    -0.394 C  
HETATM   17  C   UNL     1     -10.021   6.197  67.298  1.00  0.00    -0.174 C  
HETATM   18  C   UNL     1      -8.605   6.243  67.831  1.00  0.00    -0.115 C  
HETATM   19  O   UNL     1      -8.087   5.285  68.396  1.00  0.00    -0.090 OA 
HETATM   20  N   UNL     1      -7.898   7.401  67.614  1.00  0.00    -0.111 N  
HETATM   21  H   UNL     1      -6.895   7.364  67.796  1.00  0.00     0.000 HD 
HETATM   22  C   UNL     1      -8.401   8.609  67.177  1.00  0.00    -0.107 C  
HETATM   23  O   UNL     1      -7.756   9.646  67.310  1.00  0.00    -0.091 OA 
ENDBRANCH  11  15
TORSDOF 1
ENDMDL
MODEL       76
REMARK 921   NORMALIZED FREE ENERGY PREDICTED BY IDOCK:   -5.23 KCAL/MOL
REMARK 922        TOTAL FREE ENERGY PREDICTED BY IDOCK:   -5.58 KCAL/MOL
REMARK 923 INTER-LIGAND FREE ENERGY PREDICTED BY IDOCK:   -5.49 KCAL/MOL
REMARK 924 INTRA-LIGAND FREE ENERGY PREDICTED BY IDOCK:   -0.08 KCAL/MOL
REMARK 927      BINDING AFFINITY PREDICTED BY RF-SCORE:    0.00 PKD
ROOT
HETATM    1  N   UNL     1      -5.694  17.259  65.933  1.00  0.00    -0.196 NA 
HETATM    2  C   UNL     1      -6.330  18.378  66.469  1.00  0.00    -0.184 A  
HETATM    3  H1  UNL     1      -5.993  16.322  66.202  1.00  0.00     0.000 HD 
HETATM    4  H2  UNL     1      -4.693  17.342  66.112  1.00  0.00     0.000 HD 
HETATM    5  C   UNL     1      -5.919  19.668  66.098  1.00  0.00    -0.179 A  
HETATM    6  C   UNL     1      -6.636  20.819  66.490  1.00  0.00    -0.331 A  
HETATM    7  C   UNL     1      -7.815  20.705  67.223  1.00  0.00    -0.341 A  
HETATM    8  C   UNL     1      -8.235  19.428  67.538  1.00  0.00    -0.321 A  
HETATM    9  C   UNL     1      -7.520  18.299  67.175  1.00  0.00    -0.227 A  
HETATM   10  C   UNL     1      -8.249  17.141  67.702  1.00  0.00    -0.187 C  
HETATM   11  N   UNL     1      -9.373  17.625  68.318  1.00  0.00    -0.281 N  
HETATM   12  O   UNL     1      -7.865  15.988  67.631  1.00  0.00    -0.131 OA 
HETATM   13  C   UNL     1      -9.429  18.990  68.252  1.00  0.00    -0.348 C  
HETATM   14  O   UNL     1     -10.270  19.740  68.702  1.00  0.00    -0.445 OA 
ENDROOT
BRANCH  11  15
HETATM   15  C   UNL     1     -10.422  16.827  68.929  1.00  0.00    -0.332 C  
HETATM   16  C   UNL     1      -9.962  15.938  70.079  1.00  0.00    -0.042 C  
HETATM   17  C   UNL     1     -11.192  15.315  70.729  1.00  0.00    -0.353 C  
HETATM   18  C   UNL     1     -12.035  14.566  69.719  1.00  0.00    -0.332 C  
HETATM   19  O   UNL     1     -12.734  13.609  70.033  1.00  0.00    -0.175 OA 
HETATM   20  N   UNL     1     -12.019  15.036  68.428  1.00  0.00    -0.538 N  
HETATM   21  H   UNL     1     -12.726  14.659  67.796  1.00  0.00     0.000 HD 
HETATM   22  C   UNL     1     -11.147  15.963  67.894  1.00  0.00    -0.317 C  
HETATM   23  O   UNL     1     -11.020  16.081  66.678  1.00  0.00    -0.234 OA 
ENDBRANCH  11  15
TORSDOF 1
ENDMDL
MODEL       77
REMARK 921   NORMALIZED FREE ENERGY PREDICTED BY IDOCK:   -5.21 KCAL/MOL
REMARK 922        TOTAL FREE ENERGY PREDICTED BY IDOCK:   -5.56 KCAL/MOL
REMARK 923 INTER-LIGAND FREE ENERGY PREDICTED BY IDOCK:   -5.52 KCAL/MOL
REMARK 924 INTRA-LIGAND FREE ENERGY PREDICTED BY IDOCK:   -0.04 KCAL/MOL
REMARK 927      BINDING AFFINITY PREDICTED BY RF-SCORE:    0.00 PKD
ROOT
HETATM    1  N   UNL     1     -10.397  10.676  62.690  1.00  0.00    -0.721 NA 
HETATM    2  C   UNL     1     -10.937  11.509  63.669  1.00  0.00    -0.404 A  
HETATM    3  H1  UNL     1      -9.490  10.232  62.836  1.00  0.00     0.000 HD 
HETATM    4  H2  UNL     1     -10.364  11.193  61.811  1.00  0.00     0.000 HD 
HETATM    5  C   UNL     1     -12.185  12.119  63.467  1.00  0.00    -0.670 A  
HETATM    6  C   UNL     1     -12.838  12.836  64.493  1.00  0.00    -0.323 A  
HETATM    7  C   UNL     1     -12.280  12.918  65.767  1.00  0.00    -0.498 A  
HETATM    8  C   UNL     1     -11.076  12.270  65.966  1.00  0.00    -0.347 A  
HETATM    9  C   UNL     1     -10.422  11.587  64.954  1.00  0.00    -0.345 A  
HETATM   10  C   UNL     1      -9.178  11.063  65.524  1.00  0.00    -0.213 C  
HETATM   11  N   UNL     1      -9.164  11.423  66.846  1.00  0.00    -0.172 N  
HETATM   12  O   UNL     1      -8.321  10.471  64.894  1.00  0.00    -0.170 OA 
HETATM   13  C   UNL     1     -10.276  12.145  67.179  1.00  0.00    -0.210 C  
HETATM   14  O   UNL     1     -10.576  12.632  68.250  1.00  0.00    -0.222 OA 
ENDROOT
BRANCH  11  15
HETATM   15  C   UNL     1      -8.145  11.061  67.818  1.00  0.00    -0.116 C  
HETATM   16  C   UNL     1      -8.685  10.589  69.165  1.00  0.00    -0.155 C  
HETATM   17  C   UNL     1      -7.518  10.075  69.998  1.00  0.00    -0.181 C  
HETATM   18  C   UNL     1      -6.435  11.123  70.143  1.00  0.00    -0.103 C  
HETATM   19  O   UNL     1      -5.690  11.163  71.117  1.00  0.00    -0.331 OA 
HETATM   20  N   UNL     1      -6.288  12.011  69.105  1.00  0.00    -0.085 N  
HETATM   21  H   UNL     1      -5.445  12.585  69.112  1.00  0.00     0.000 HD 
HETATM   22  C   UNL     1      -7.160  12.209  68.054  1.00  0.00    -0.096 C  
HETATM   23  O   UNL     1      -7.093  13.221  67.363  1.00  0.00    -0.159 OA 
ENDBRANCH  11  15
TORSDOF 1
ENDMDL
MODEL       78
REMARK 921   NORMALIZED FREE ENERGY PREDICTED BY IDOCK:   -5.20 KCAL/MOL
REMARK 922        TOTAL FREE ENERGY PREDICTED BY IDOCK:   -5.54 KCAL/MOL
REMARK 923 INTER-LIGAND FREE ENERGY PREDICTED BY IDOCK:   -5.39 KCAL/MOL
REMARK 924 INTRA-LIGAND FREE ENERGY PREDICTED BY IDOCK:   -0.15 KCAL/MOL
REMARK 927      BINDING AFFINITY PREDICTED BY RF-SCORE:    0.00 PKD
ROOT
HETATM    1  N   UNL     1      -7.626  12.213  68.930  1.00  0.00    -0.292 NA 
HETATM    2  C   UNL     1      -8.518  12.142  67.861  1.00  0.00    -0.163 A  
HETATM    3  H1  UNL     1      -7.281  13.117  69.252  1.00  0.00     0.000 HD 
HETATM    4  H2  UNL     1      -6.824  11.618  68.719  1.00  0.00     0.000 HD 
HETATM    5  C   UNL     1      -8.993  10.897  67.419  1.00  0.00    -0.136 A  
HETATM    6  C   UNL     1     -10.015  10.791  66.451  1.00  0.00    -0.264 A  
HETATM    7  C   UNL     1     -10.625  11.933  65.935  1.00  0.00    -0.306 A  
HETATM    8  C   UNL     1     -10.183  13.149  66.416  1.00  0.00    -0.286 A  
HETATM    9  C   UNL     1      -9.164  13.256  67.348  1.00  0.00    -0.216 A  
HETATM   10  C   UNL     1      -8.952  14.686  67.591  1.00  0.00    -0.187 C  
HETATM   11  N   UNL     1      -9.870  15.359  66.828  1.00  0.00    -0.238 N  
HETATM   12  O   UNL     1      -8.079  15.147  68.303  1.00  0.00    -0.131 OA 
HETATM   13  C   UNL     1     -10.643  14.497  66.102  1.00  0.00    -0.306 C  
HETATM   14  O   UNL     1     -11.535  14.750  65.317  1.00  0.00    -0.342 OA 
ENDROOT
BRANCH  11  15
HETATM   15  C   UNL     1     -10.066  16.799  66.802  1.00  0.00    -0.294 C  
HETATM   16  C   UNL     1      -8.795  17.614  66.585  1.00  0.00    -0.283 C  
HETATM   17  C   UNL     1      -9.185  19.075  66.396  1.00  0.00    -0.350 C  
HETATM   18  C   UNL     1     -10.010  19.585  67.559  1.00  0.00    -0.380 C  
HETATM   19  O   UNL     1     -10.009  20.765  67.893  1.00  0.00    -0.263 OA 
HETATM   20  N   UNL     1     -10.804  18.668  68.205  1.00  0.00    -0.285 N  
HETATM   21  H   UNL     1     -11.498  19.042  68.853  1.00  0.00     0.000 HD 
HETATM   22  C   UNL     1     -10.763  17.296  68.071  1.00  0.00    -0.367 C  
HETATM   23  O   UNL     1     -11.290  16.565  68.906  1.00  0.00    -0.300 OA 
ENDBRANCH  11  15
TORSDOF 1
ENDMDL
MODEL       79
REMARK 921   NORMALIZED FREE ENERGY PREDICTED BY IDOCK:   -5.20 KCAL/MOL
REMARK 922        TOTAL FREE ENERGY PREDICTED BY IDOCK:   -5.54 KCAL/MOL
REMARK 923 INTER-LIGAND FREE ENERGY PREDICTED BY IDOCK:   -5.40 KCAL/MOL
REMARK 924 INTRA-LIGAND FREE ENERGY PREDICTED BY IDOCK:   -0.15 KCAL/MOL
REMARK 927      BINDING AFFINITY PREDICTED BY RF-SCORE:    0.00 PKD
ROOT
HETATM    1  N   UNL     1      -9.787   7.120  66.173  1.00  0.00    -0.427 NA 
HETATM    2  C   UNL     1     -10.295   7.357  67.449  1.00  0.00    -0.270 A  
HETATM    3  H1  UNL     1      -9.770   7.868  65.480  1.00  0.00     0.000 HD 
HETATM    4  H2  UNL     1     -10.282   6.322  65.773  1.00  0.00     0.000 HD 
HETATM    5  C   UNL     1     -10.318   6.326  68.403  1.00  0.00    -0.237 A  
HETATM    6  C   UNL     1     -10.672   6.564  69.748  1.00  0.00    -0.322 A  
HETATM    7  C   UNL     1     -10.964   7.854  70.187  1.00  0.00    -0.235 A  
HETATM    8  C   UNL     1     -10.888   8.866  69.251  1.00  0.00    -0.113 A  
HETATM    9  C   UNL     1     -10.565   8.630  67.924  1.00  0.00    -0.223 A  
HETATM   10  C   UNL     1     -10.613   9.923  67.234  1.00  0.00    -0.252 C  
HETATM   11  N   UNL     1     -10.924  10.866  68.178  1.00  0.00    -0.228 N  
HETATM   12  O   UNL     1     -10.452  10.077  66.037  1.00  0.00    -0.186 OA 
HETATM   13  C   UNL     1     -11.098  10.301  69.411  1.00  0.00    -0.252 C  
HETATM   14  O   UNL     1     -11.394  10.836  70.460  1.00  0.00    -0.307 OA 
ENDROOT
BRANCH  11  15
HETATM   15  C   UNL     1     -11.016  12.300  67.955  1.00  0.00    -0.224 C  
HETATM   16  C   UNL     1     -11.849  12.706  66.743  1.00  0.00    -0.440 C  
HETATM   17  C   UNL     1     -12.005  14.221  66.752  1.00  0.00    -0.462 C  
HETATM   18  C   UNL     1     -10.661  14.918  66.791  1.00  0.00    -0.312 C  
HETATM   19  O   UNL     1     -10.489  16.034  66.311  1.00  0.00    -0.307 OA 
HETATM   20  N   UNL     1      -9.641  14.260  67.433  1.00  0.00    -0.210 N  
HETATM   21  H   UNL     1      -8.799  14.803  67.629  1.00  0.00     0.000 HD 
HETATM   22  C   UNL     1      -9.631  12.942  67.841  1.00  0.00    -0.215 C  
HETATM   23  O   UNL     1      -8.578  12.376  68.120  1.00  0.00    -0.173 OA 
ENDBRANCH  11  15
TORSDOF 1
ENDMDL
MODEL       80
REMARK 921   NORMALIZED FREE ENERGY PREDICTED BY IDOCK:   -5.19 KCAL/MOL
REMARK 922        TOTAL FREE ENERGY PREDICTED BY IDOCK:   -5.54 KCAL/MOL
REMARK 923 INTER-LIGAND FREE ENERGY PREDICTED BY IDOCK:   -5.47 KCAL/MOL
REMARK 924 INTRA-LIGAND FREE ENERGY PREDICTED BY IDOCK:   -0.07 KCAL/MOL
REMARK 927      BINDING AFFINITY PREDICTED BY RF-SCORE:    0.00 PKD
ROOT
HETATM    1  N   UNL     1      -9.308   3.738  73.467  1.00  0.00    -0.100 NA 
HETATM    2  C   UNL     1      -9.330   3.806  72.075  1.00  0.00    -0.128 A  
HETATM    3  H1  UNL     1      -9.583   4.547  74.024  1.00  0.00     0.000 HD 
HETATM    4  H2  UNL     1      -8.375   3.447  73.760  1.00  0.00     0.000 HD 
HETATM    5  C   UNL     1      -8.951   2.693  71.308  1.00  0.00    -0.154 A  
HETATM    6  C   UNL     1      -9.112   2.665  69.906  1.00  0.00    -0.181 A  
HETATM    7  C   UNL     1      -9.703   3.736  69.238  1.00  0.00    -0.120 A  
HETATM    8  C   UNL     1     -10.117   4.803  70.010  1.00  0.00    -0.308 A  
HETATM    9  C   UNL     1      -9.938   4.842  71.383  1.00  0.00    -0.267 A  
HETATM   10  C   UNL     1     -10.467   6.128  71.849  1.00  0.00    -0.213 C  
HETATM   11  N   UNL     1     -10.965   6.774  70.749  1.00  0.00    -0.248 N  
HETATM   12  O   UNL     1     -10.407   6.528  72.997  1.00  0.00    -0.193 OA 
HETATM   13  C   UNL     1     -10.791   6.034  69.613  1.00  0.00    -0.369 C  
HETATM   14  O   UNL     1     -11.097   6.308  68.470  1.00  0.00    -0.334 OA 
ENDROOT
BRANCH  11  15
HETATM   15  C   UNL     1     -11.645   8.059  70.749  1.00  0.00    -0.242 C  
HETATM   16  C   UNL     1     -10.804   9.228  71.252  1.00  0.00    -0.417 C  
HETATM   17  C   UNL     1     -11.580  10.517  71.017  1.00  0.00    -0.318 C  
HETATM   18  C   UNL     1     -12.948  10.467  71.664  1.00  0.00    -0.476 C  
HETATM   19  O   UNL     1     -13.525  11.478  72.052  1.00  0.00    -0.405 OA 
HETATM   20  N   UNL     1     -13.544   9.233  71.759  1.00  0.00    -0.394 N  
HETATM   21  H   UNL     1     -14.533   9.222  72.012  1.00  0.00     0.000 HD 
HETATM   22  C   UNL     1     -12.949   8.007  71.549  1.00  0.00    -0.303 C  
HETATM   23  O   UNL     1     -13.474   6.973  71.955  1.00  0.00    -0.301 OA 
ENDBRANCH  11  15
TORSDOF 1
ENDMDL
MODEL       81
REMARK 921   NORMALIZED FREE ENERGY PREDICTED BY IDOCK:   -5.18 KCAL/MOL
REMARK 922        TOTAL FREE ENERGY PREDICTED BY IDOCK:   -5.53 KCAL/MOL
REMARK 923 INTER-LIGAND FREE ENERGY PREDICTED BY IDOCK:   -5.47 KCAL/MOL
REMARK 924 INTRA-LIGAND FREE ENERGY PREDICTED BY IDOCK:   -0.06 KCAL/MOL
REMARK 927      BINDING AFFINITY PREDICTED BY RF-SCORE:    0.00 PKD
ROOT
HETATM    1  N   UNL     1      -9.598   4.089  68.239  1.00  0.00    -0.152 NA 
HETATM    2  C   UNL     1      -9.660   3.757  69.592  1.00  0.00    -0.172 A  
HETATM    3  H1  UNL     1     -10.094   4.908  67.888  1.00  0.00     0.000 HD 
HETATM    4  H2  UNL     1      -9.893   3.277  67.695  1.00  0.00     0.000 HD 
HETATM    5  C   UNL     1      -8.977   2.630  70.074  1.00  0.00    -0.162 A  
HETATM    6  C   UNL     1      -8.881   2.351  71.455  1.00  0.00    -0.125 A  
HETATM    7  C   UNL     1      -9.426   3.224  72.394  1.00  0.00    -0.182 A  
HETATM    8  C   UNL     1     -10.051   4.356  71.908  1.00  0.00    -0.245 A  
HETATM    9  C   UNL     1     -10.167   4.618  70.553  1.00  0.00    -0.211 A  
HETATM   10  C   UNL     1     -10.908   5.876  70.421  1.00  0.00    -0.308 C  
HETATM   11  N   UNL     1     -11.166   6.321  71.691  1.00  0.00    -0.273 N  
HETATM   12  O   UNL     1     -11.255   6.370  69.363  1.00  0.00    -0.359 OA 
HETATM   13  C   UNL     1     -10.675   5.458  72.631  1.00  0.00    -0.240 C  
HETATM   14  O   UNL     1     -10.739   5.533  73.841  1.00  0.00    -0.275 OA 
ENDROOT
BRANCH  11  15
HETATM   15  C   UNL     1     -11.826   7.567  72.041  1.00  0.00    -0.294 C  
HETATM   16  C   UNL     1     -13.264   7.692  71.545  1.00  0.00    -0.380 C  
HETATM   17  C   UNL     1     -13.873   8.953  72.144  1.00  0.00    -0.531 C  
HETATM   18  C   UNL     1     -13.042  10.177  71.824  1.00  0.00    -0.463 C  
HETATM   19  O   UNL     1     -13.535  11.297  71.736  1.00  0.00    -0.310 OA 
HETATM   20  N   UNL     1     -11.689   9.988  71.679  1.00  0.00    -0.287 N  
HETATM   21  H   UNL     1     -11.110  10.828  71.658  1.00  0.00     0.000 HD 
HETATM   22  C   UNL     1     -11.029   8.782  71.558  1.00  0.00    -0.307 C  
HETATM   23  O   UNL     1      -9.879   8.733  71.129  1.00  0.00    -0.200 OA 
ENDBRANCH  11  15
TORSDOF 1
ENDMDL
MODEL       82
REMARK 921   NORMALIZED FREE ENERGY PREDICTED BY IDOCK:   -5.17 KCAL/MOL
REMARK 922        TOTAL FREE ENERGY PREDICTED BY IDOCK:   -5.51 KCAL/MOL
REMARK 923 INTER-LIGAND FREE ENERGY PREDICTED BY IDOCK:   -5.38 KCAL/MOL
REMARK 924 INTRA-LIGAND FREE ENERGY PREDICTED BY IDOCK:   -0.13 KCAL/MOL
REMARK 927      BINDING AFFINITY PREDICTED BY RF-SCORE:    0.00 PKD
ROOT
HETATM    1  N   UNL     1     -11.792  13.671  68.192  1.00  0.00    -0.361 NA 
HETATM    2  C   UNL     1     -11.770  13.437  66.817  1.00  0.00    -0.385 A  
HETATM    3  H1  UNL     1     -11.519  12.934  68.841  1.00  0.00     0.000 HD 
HETATM    4  H2  UNL     1     -12.724  13.996  68.447  1.00  0.00     0.000 HD 
HETATM    5  C   UNL     1     -12.145  14.452  65.923  1.00  0.00    -0.358 A  
HETATM    6  C   UNL     1     -11.984  14.312  64.528  1.00  0.00    -0.478 A  
HETATM    7  C   UNL     1     -11.394  13.168  63.992  1.00  0.00    -0.437 A  
HETATM    8  C   UNL     1     -10.983  12.200  64.887  1.00  0.00    -0.355 A  
HETATM    9  C   UNL     1     -11.163  12.325  66.255  1.00  0.00    -0.367 A  
HETATM   10  C   UNL     1     -10.636  11.103  66.871  1.00  0.00    -0.258 C  
HETATM   11  N   UNL     1     -10.139  10.329  65.856  1.00  0.00    -0.256 N  
HETATM   12  O   UNL     1     -10.698  10.843  68.058  1.00  0.00    -0.189 OA 
HETATM   13  C   UNL     1     -10.311  10.930  64.640  1.00  0.00    -0.338 C  
HETATM   14  O   UNL     1     -10.005  10.521  63.538  1.00  0.00    -0.317 OA 
ENDROOT
BRANCH  11  15
HETATM   15  C   UNL     1      -9.462   9.052  66.010  1.00  0.00    -0.256 C  
HETATM   16  C   UNL     1     -10.144   8.077  66.964  1.00  0.00    -0.350 C  
HETATM   17  C   UNL     1      -9.428   6.735  66.875  1.00  0.00    -0.189 C  
HETATM   18  C   UNL     1      -7.946   6.877  67.152  1.00  0.00    -0.113 C  
HETATM   19  O   UNL     1      -7.280   5.963  67.628  1.00  0.00    -0.073 OA 
HETATM   20  N   UNL     1      -7.361   8.069  66.802  1.00  0.00    -0.088 N  
HETATM   21  H   UNL     1      -6.341   8.096  66.806  1.00  0.00     0.000 HD 
HETATM   22  C   UNL     1      -8.006   9.236  66.445  1.00  0.00    -0.107 C  
HETATM   23  O   UNL     1      -7.413  10.311  66.453  1.00  0.00    -0.103 OA 
ENDBRANCH  11  15
TORSDOF 1
ENDMDL
MODEL       83
REMARK 921   NORMALIZED FREE ENERGY PREDICTED BY IDOCK:   -5.16 KCAL/MOL
REMARK 922        TOTAL FREE ENERGY PREDICTED BY IDOCK:   -5.50 KCAL/MOL
REMARK 923 INTER-LIGAND FREE ENERGY PREDICTED BY IDOCK:   -5.49 KCAL/MOL
REMARK 924 INTRA-LIGAND FREE ENERGY PREDICTED BY IDOCK:   -0.01 KCAL/MOL
REMARK 927      BINDING AFFINITY PREDICTED BY RF-SCORE:    0.00 PKD
ROOT
HETATM    1  N   UNL     1      -9.360  16.911  66.037  1.00  0.00    -0.485 NA 
HETATM    2  C   UNL     1     -10.422  16.064  65.724  1.00  0.00    -0.374 A  
HETATM    3  H1  UNL     1      -8.764  16.711  66.840  1.00  0.00     0.000 HD 
HETATM    4  H2  UNL     1      -9.723  17.859  66.133  1.00  0.00     0.000 HD 
HETATM    5  C   UNL     1     -11.242  16.339  64.618  1.00  0.00    -0.264 A  
HETATM    6  C   UNL     1     -12.223  15.427  64.173  1.00  0.00    -0.075 A  
HETATM    7  C   UNL     1     -12.375  14.189  64.795  1.00  0.00    -0.436 A  
HETATM    8  C   UNL     1     -11.528  13.911  65.850  1.00  0.00    -0.328 A  
HETATM    9  C   UNL     1     -10.582  14.815  66.303  1.00  0.00    -0.306 A  
HETATM   10  C   UNL     1      -9.901  14.189  67.441  1.00  0.00    -0.239 C  
HETATM   11  N   UNL     1     -10.442  12.939  67.590  1.00  0.00    -0.222 N  
HETATM   12  O   UNL     1      -9.057  14.733  68.129  1.00  0.00    -0.171 OA 
HETATM   13  C   UNL     1     -11.421  12.706  66.664  1.00  0.00    -0.351 C  
HETATM   14  O   UNL     1     -12.113  11.718  66.519  1.00  0.00    -0.498 OA 
ENDROOT
BRANCH  11  15
HETATM   15  C   UNL     1     -10.025  11.938  68.558  1.00  0.00    -0.192 C  
HETATM   16  C   UNL     1      -9.626  10.594  67.957  1.00  0.00    -0.167 C  
HETATM   17  C   UNL     1      -9.042   9.726  69.064  1.00  0.00    -0.157 C  
HETATM   18  C   UNL     1     -10.007   9.579  70.222  1.00  0.00    -0.259 C  
HETATM   19  O   UNL     1     -10.011   8.590  70.948  1.00  0.00    -0.178 OA 
HETATM   20  N   UNL     1     -10.858  10.632  70.457  1.00  0.00    -0.394 N  
HETATM   21  H   UNL     1     -11.366  10.619  71.342  1.00  0.00     0.000 HD 
HETATM   22  C   UNL     1     -11.099  11.705  69.624  1.00  0.00    -0.108 C  
HETATM   23  O   UNL     1     -12.087  12.416  69.782  1.00  0.00    -0.285 OA 
ENDBRANCH  11  15
TORSDOF 1
ENDMDL
MODEL       84
REMARK 921   NORMALIZED FREE ENERGY PREDICTED BY IDOCK:   -5.13 KCAL/MOL
REMARK 922        TOTAL FREE ENERGY PREDICTED BY IDOCK:   -5.47 KCAL/MOL
REMARK 923 INTER-LIGAND FREE ENERGY PREDICTED BY IDOCK:   -5.45 KCAL/MOL
REMARK 924 INTRA-LIGAND FREE ENERGY PREDICTED BY IDOCK:   -0.02 KCAL/MOL
REMARK 927      BINDING AFFINITY PREDICTED BY RF-SCORE:    0.00 PKD
ROOT
HETATM    1  N   UNL     1      -7.209  15.092  66.906  1.00  0.00    -0.309 NA 
HETATM    2  C   UNL     1      -8.576  14.929  66.681  1.00  0.00    -0.172 A  
HETATM    3  H1  UNL     1      -6.688  14.389  67.429  1.00  0.00     0.000 HD 
HETATM    4  H2  UNL     1      -7.063  15.998  67.350  1.00  0.00     0.000 HD 
HETATM    5  C   UNL     1      -9.293  15.897  65.960  1.00  0.00    -0.385 A  
HETATM    6  C   UNL     1     -10.635  15.694  65.573  1.00  0.00    -0.422 A  
HETATM    7  C   UNL     1     -11.281  14.492  65.855  1.00  0.00    -0.331 A  
HETATM    8  C   UNL     1     -10.548  13.529  66.520  1.00  0.00    -0.281 A  
HETATM    9  C   UNL     1      -9.238  13.736  66.922  1.00  0.00    -0.263 A  
HETATM   10  C   UNL     1      -8.805  12.518  67.615  1.00  0.00    -0.179 C  
HETATM   11  N   UNL     1      -9.852  11.637  67.564  1.00  0.00    -0.186 N  
HETATM   12  O   UNL     1      -7.727  12.380  68.165  1.00  0.00    -0.120 OA 
HETATM   13  C   UNL     1     -10.928  12.178  66.916  1.00  0.00    -0.270 C  
HETATM   14  O   UNL     1     -12.018  11.685  66.707  1.00  0.00    -0.536 OA 
ENDROOT
BRANCH  11  15
HETATM   15  C   UNL     1      -9.848  10.276  68.072  1.00  0.00    -0.150 C  
HETATM   16  C   UNL     1     -10.236   9.210  67.052  1.00  0.00    -0.333 C  
HETATM   17  C   UNL     1     -10.004   7.839  67.674  1.00  0.00    -0.230 C  
HETATM   18  C   UNL     1     -10.753   7.689  68.982  1.00  0.00    -0.119 C  
HETATM   19  O   UNL     1     -11.139   6.599  69.393  1.00  0.00    -0.288 OA 
HETATM   20  N   UNL     1     -10.946   8.831  69.720  1.00  0.00    -0.373 N  
HETATM   21  H   UNL     1     -11.272   8.705  70.679  1.00  0.00     0.000 HD 
HETATM   22  C   UNL     1     -10.745  10.131  69.304  1.00  0.00    -0.231 C  
HETATM   23  O   UNL     1     -11.233  11.073  69.923  1.00  0.00    -0.270 OA 
ENDBRANCH  11  15
TORSDOF 1
ENDMDL
MODEL       85
REMARK 921   NORMALIZED FREE ENERGY PREDICTED BY IDOCK:   -5.11 KCAL/MOL
REMARK 922        TOTAL FREE ENERGY PREDICTED BY IDOCK:   -5.46 KCAL/MOL
REMARK 923 INTER-LIGAND FREE ENERGY PREDICTED BY IDOCK:   -5.36 KCAL/MOL
REMARK 924 INTRA-LIGAND FREE ENERGY PREDICTED BY IDOCK:   -0.10 KCAL/MOL
REMARK 927      BINDING AFFINITY PREDICTED BY RF-SCORE:    0.00 PKD
ROOT
HETATM    1  N   UNL     1     -10.600  11.600  69.257  1.00  0.00    -0.423 NA 
HETATM    2  C   UNL     1     -11.349  10.960  70.244  1.00  0.00    -0.256 A  
HETATM    3  H1  UNL     1      -9.864  11.095  68.763  1.00  0.00     0.000 HD 
HETATM    4  H2  UNL     1     -10.196  12.446  69.660  1.00  0.00     0.000 HD 
HETATM    5  C   UNL     1     -12.362  11.655  70.923  1.00  0.00    -0.436 A  
HETATM    6  C   UNL     1     -13.247  11.003  71.809  1.00  0.00    -0.505 A  
HETATM    7  C   UNL     1     -13.172   9.625  72.000  1.00  0.00    -0.546 A  
HETATM    8  C   UNL     1     -12.204   8.946  71.287  1.00  0.00    -0.351 A  
HETATM    9  C   UNL     1     -11.319   9.587  70.436  1.00  0.00    -0.318 A  
HETATM   10  C   UNL     1     -10.430   8.559  69.887  1.00  0.00    -0.219 C  
HETATM   11  N   UNL     1     -10.843   7.359  70.402  1.00  0.00    -0.239 N  
HETATM   12  O   UNL     1      -9.482   8.780  69.156  1.00  0.00    -0.155 OA 
HETATM   13  C   UNL     1     -11.907   7.519  71.247  1.00  0.00    -0.294 C  
HETATM   14  O   UNL     1     -12.508   6.677  71.882  1.00  0.00    -0.344 OA 
ENDROOT
BRANCH  11  15
HETATM   15  C   UNL     1     -10.287   6.055  70.081  1.00  0.00    -0.224 C  
HETATM   16  C   UNL     1      -8.805   5.895  70.401  1.00  0.00    -0.146 C  
HETATM   17  C   UNL     1      -8.420   4.437  70.188  1.00  0.00    -0.091 C  
HETATM   18  C   UNL     1      -8.764   3.971  68.789  1.00  0.00    -0.098 C  
HETATM   19  O   UNL     1      -8.137   3.081  68.224  1.00  0.00    -0.064 OA 
HETATM   20  N   UNL     1      -9.849   4.561  68.188  1.00  0.00    -0.123 N  
HETATM   21  H   UNL     1     -10.197   4.119  67.337  1.00  0.00     0.000 HD 
HETATM   22  C   UNL     1     -10.519   5.690  68.612  1.00  0.00    -0.207 C  
HETATM   23  O   UNL     1     -11.264   6.304  67.853  1.00  0.00    -0.323 OA 
ENDBRANCH  11  15
TORSDOF 1
ENDMDL
MODEL       86
REMARK 921   NORMALIZED FREE ENERGY PREDICTED BY IDOCK:   -5.08 KCAL/MOL
REMARK 922        TOTAL FREE ENERGY PREDICTED BY IDOCK:   -5.42 KCAL/MOL
REMARK 923 INTER-LIGAND FREE ENERGY PREDICTED BY IDOCK:   -5.37 KCAL/MOL
REMARK 924 INTRA-LIGAND FREE ENERGY PREDICTED BY IDOCK:   -0.05 KCAL/MOL
REMARK 927      BINDING AFFINITY PREDICTED BY RF-SCORE:    0.00 PKD
ROOT
HETATM    1  N   UNL     1      -9.007   6.858  68.869  1.00  0.00    -0.132 NA 
HETATM    2  C   UNL     1      -8.566   8.153  69.136  1.00  0.00    -0.136 A  
HETATM    3  H1  UNL     1      -9.759   6.700  68.199  1.00  0.00     0.000 HD 
HETATM    4  H2  UNL     1      -9.265   6.417  69.752  1.00  0.00     0.000 HD 
HETATM    5  C   UNL     1      -7.530   8.370  70.058  1.00  0.00    -0.063 A  
HETATM    6  C   UNL     1      -6.947   9.643  70.238  1.00  0.00    -0.119 A  
HETATM    7  C   UNL     1      -7.354  10.725  69.460  1.00  0.00    -0.125 A  
HETATM    8  C   UNL     1      -8.338  10.487  68.521  1.00  0.00    -0.129 A  
HETATM    9  C   UNL     1      -8.928   9.244  68.361  1.00  0.00    -0.129 A  
HETATM   10  C   UNL     1      -9.938   9.381  67.306  1.00  0.00    -0.196 C  
HETATM   11  N   UNL     1      -9.879  10.676  66.866  1.00  0.00    -0.182 N  
HETATM   12  O   UNL     1     -10.699   8.498  66.957  1.00  0.00    -0.275 OA 
HETATM   13  C   UNL     1      -8.937  11.394  67.549  1.00  0.00    -0.150 C  
HETATM   14  O   UNL     1      -8.635  12.564  67.429  1.00  0.00    -0.168 OA 
ENDROOT
BRANCH  11  15
HETATM   15  C   UNL     1     -10.660  11.245  65.780  1.00  0.00    -0.248 C  
HETATM   16  C   UNL     1      -9.849  12.008  64.738  1.00  0.00    -0.186 C  
HETATM   17  C   UNL     1     -10.771  12.376  63.583  1.00  0.00    -0.497 C  
HETATM   18  C   UNL     1     -11.978  13.156  64.063  1.00  0.00    -0.460 C  
HETATM   19  O   UNL     1     -12.559  13.966  63.348  1.00  0.00    -0.853 OA 
HETATM   20  N   UNL     1     -12.428  12.883  65.332  1.00  0.00    -0.489 N  
HETATM   21  H   UNL     1     -13.343  13.258  65.581  1.00  0.00     0.000 HD 
HETATM   22  C   UNL     1     -11.774  12.155  66.305  1.00  0.00    -0.320 C  
HETATM   23  O   UNL     1     -12.114  12.230  67.482  1.00  0.00    -0.514 OA 
ENDBRANCH  11  15
TORSDOF 1
ENDMDL
MODEL       87
REMARK 921   NORMALIZED FREE ENERGY PREDICTED BY IDOCK:   -5.06 KCAL/MOL
REMARK 922        TOTAL FREE ENERGY PREDICTED BY IDOCK:   -5.40 KCAL/MOL
REMARK 923 INTER-LIGAND FREE ENERGY PREDICTED BY IDOCK:   -5.45 KCAL/MOL
REMARK 924 INTRA-LIGAND FREE ENERGY PREDICTED BY IDOCK:    0.05 KCAL/MOL
REMARK 927      BINDING AFFINITY PREDICTED BY RF-SCORE:    0.00 PKD
ROOT
HETATM    1  N   UNL     1      -9.582   3.948  67.642  1.00  0.00    -0.179 NA 
HETATM    2  C   UNL     1      -9.626   3.926  69.036  1.00  0.00    -0.138 A  
HETATM    3  H1  UNL     1     -10.074   4.677  67.125  1.00  0.00     0.000 HD 
HETATM    4  H2  UNL     1      -9.894   3.041  67.296  1.00  0.00     0.000 HD 
HETATM    5  C   UNL     1      -8.948   2.923  69.747  1.00  0.00    -0.169 A  
HETATM    6  C   UNL     1      -8.833   2.956  71.153  1.00  0.00    -0.141 A  
HETATM    7  C   UNL     1      -9.353   4.024  71.883  1.00  0.00    -0.192 A  
HETATM    8  C   UNL     1      -9.973   5.028  71.166  1.00  0.00    -0.276 A  
HETATM    9  C   UNL     1     -10.108   4.985  69.788  1.00  0.00    -0.337 A  
HETATM   10  C   UNL     1     -10.837   6.193  69.390  1.00  0.00    -0.353 C  
HETATM   11  N   UNL     1     -11.070   6.912  70.533  1.00  0.00    -0.271 N  
HETATM   12  O   UNL     1     -11.194   6.445  68.254  1.00  0.00    -0.309 OA 
HETATM   13  C   UNL     1     -10.574   6.272  71.635  1.00  0.00    -0.227 C  
HETATM   14  O   UNL     1     -10.618   6.614  72.799  1.00  0.00    -0.210 OA 
ENDROOT
BRANCH  11  15
HETATM   15  C   UNL     1     -11.710   8.214  70.607  1.00  0.00    -0.143 C  
HETATM   16  C   UNL     1     -10.851   9.317  71.216  1.00  0.00    -0.417 C  
HETATM   17  C   UNL     1     -11.581  10.644  71.053  1.00  0.00    -0.222 C  
HETATM   18  C   UNL     1     -12.969  10.591  71.656  1.00  0.00    -0.476 C  
HETATM   19  O   UNL     1     -13.527  11.590  72.099  1.00  0.00    -0.410 OA 
HETATM   20  N   UNL     1     -13.604   9.373  71.645  1.00  0.00    -0.379 N  
HETATM   21  H   UNL     1     -14.599   9.376  71.869  1.00  0.00     0.000 HD 
HETATM   22  C   UNL     1     -13.039   8.146  71.365  1.00  0.00    -0.225 C  
HETATM   23  O   UNL     1     -13.606   7.104  71.680  1.00  0.00    -0.377 OA 
ENDBRANCH  11  15
TORSDOF 1
ENDMDL
MODEL       88
REMARK 921   NORMALIZED FREE ENERGY PREDICTED BY IDOCK:   -5.05 KCAL/MOL
REMARK 922        TOTAL FREE ENERGY PREDICTED BY IDOCK:   -5.39 KCAL/MOL
REMARK 923 INTER-LIGAND FREE ENERGY PREDICTED BY IDOCK:   -5.24 KCAL/MOL
REMARK 924 INTRA-LIGAND FREE ENERGY PREDICTED BY IDOCK:   -0.15 KCAL/MOL
REMARK 927      BINDING AFFINITY PREDICTED BY RF-SCORE:    0.00 PKD
ROOT
HETATM    1  N   UNL     1     -10.234   7.497  71.757  1.00  0.00    -0.187 NA 
HETATM    2  C   UNL     1     -11.192   8.438  71.384  1.00  0.00    -0.261 A  
HETATM    3  H1  UNL     1      -9.532   7.185  71.086  1.00  0.00     0.000 HD 
HETATM    4  H2  UNL     1     -10.716   6.676  72.124  1.00  0.00     0.000 HD 
HETATM    5  C   UNL     1     -12.157   8.868  72.307  1.00  0.00    -0.392 A  
HETATM    6  C   UNL     1     -13.040   9.932  72.022  1.00  0.00    -0.545 A  
HETATM    7  C   UNL     1     -12.945  10.629  70.819  1.00  0.00    -0.396 A  
HETATM    8  C   UNL     1     -11.958  10.229  69.940  1.00  0.00    -0.222 A  
HETATM    9  C   UNL     1     -11.107   9.169  70.209  1.00  0.00    -0.272 A  
HETATM   10  C   UNL     1     -10.224   9.022  69.047  1.00  0.00    -0.205 C  
HETATM   11  N   UNL     1     -10.561  10.013  68.164  1.00  0.00    -0.212 N  
HETATM   12  O   UNL     1      -9.397   8.139  68.912  1.00  0.00    -0.147 OA 
HETATM   13  C   UNL     1     -11.591  10.776  68.639  1.00  0.00    -0.272 C  
HETATM   14  O   UNL     1     -12.146  11.720  68.113  1.00  0.00    -0.556 OA 
ENDROOT
BRANCH  11  15
HETATM   15  C   UNL     1      -9.903  10.288  66.897  1.00  0.00    -0.197 C  
HETATM   16  C   UNL     1      -9.748   9.078  65.981  1.00  0.00    -0.339 C  
HETATM   17  C   UNL     1      -9.219   9.557  64.635  1.00  0.00    -0.247 C  
HETATM   18  C   UNL     1      -7.929  10.336  64.791  1.00  0.00    -0.141 C  
HETATM   19  O   UNL     1      -7.080  10.378  63.906  1.00  0.00    -0.091 OA 
HETATM   20  N   UNL     1      -7.766  11.038  65.960  1.00  0.00    -0.308 N  
HETATM   21  H   UNL     1      -6.998  11.710  65.986  1.00  0.00     0.000 HD 
HETATM   22  C   UNL     1      -8.529  10.932  67.105  1.00  0.00    -0.128 C  
HETATM   23  O   UNL     1      -8.120  11.366  68.178  1.00  0.00    -0.123 OA 
ENDBRANCH  11  15
TORSDOF 1
ENDMDL
MODEL       89
REMARK 921   NORMALIZED FREE ENERGY PREDICTED BY IDOCK:   -5.05 KCAL/MOL
REMARK 922        TOTAL FREE ENERGY PREDICTED BY IDOCK:   -5.38 KCAL/MOL
REMARK 923 INTER-LIGAND FREE ENERGY PREDICTED BY IDOCK:   -5.35 KCAL/MOL
REMARK 924 INTRA-LIGAND FREE ENERGY PREDICTED BY IDOCK:   -0.03 KCAL/MOL
REMARK 927      BINDING AFFINITY PREDICTED BY RF-SCORE:    0.00 PKD
ROOT
HETATM    1  N   UNL     1      -7.588   6.981  65.781  1.00  0.00    -0.090 NA 
HETATM    2  C   UNL     1      -8.785   7.315  66.415  1.00  0.00    -0.142 A  
HETATM    3  H1  UNL     1      -7.151   7.636  65.134  1.00  0.00     0.000 HD 
HETATM    4  H2  UNL     1      -7.717   6.090  65.301  1.00  0.00     0.000 HD 
HETATM    5  C   UNL     1      -9.387   6.414  67.307  1.00  0.00    -0.125 A  
HETATM    6  C   UNL     1     -10.506   6.775  68.087  1.00  0.00    -0.251 A  
HETATM    7  C   UNL     1     -11.023   8.068  68.032  1.00  0.00     0.113 A  
HETATM    8  C   UNL     1     -10.389   8.959  67.188  1.00  0.00    -0.351 A  
HETATM    9  C   UNL     1      -9.306   8.600  66.403  1.00  0.00    -0.271 A  
HETATM   10  C   UNL     1      -8.926   9.784  65.627  1.00  0.00    -0.163 C  
HETATM   11  N   UNL     1      -9.769  10.795  66.008  1.00  0.00    -0.208 N  
HETATM   12  O   UNL     1      -8.055   9.807  64.777  1.00  0.00    -0.131 OA 
HETATM   13  C   UNL     1     -10.669  10.370  66.945  1.00  0.00    -0.207 C  
HETATM   14  O   UNL     1     -11.560  10.993  67.484  1.00  0.00    -0.529 OA 
ENDROOT
BRANCH  11  15
HETATM   15  C   UNL     1      -9.717  12.171  65.541  1.00  0.00    -0.181 C  
HETATM   16  C   UNL     1      -9.861  13.224  66.634  1.00  0.00    -0.276 C  
HETATM   17  C   UNL     1      -9.600  14.594  66.022  1.00  0.00    -0.322 C  
HETATM   18  C   UNL     1     -10.510  14.857  64.841  1.00  0.00    -0.359 C  
HETATM   19  O   UNL     1     -10.853  15.990  64.519  1.00  0.00    -0.588 OA 
HETATM   20  N   UNL     1     -10.906  13.765  64.108  1.00  0.00    -0.568 N  
HETATM   21  H   UNL     1     -11.352  13.955  63.210  1.00  0.00     0.000 HD 
HETATM   22  C   UNL     1     -10.763  12.437  64.455  1.00  0.00    -0.321 C  
HETATM   23  O   UNL     1     -11.415  11.564  63.889  1.00  0.00    -0.379 OA 
ENDBRANCH  11  15
TORSDOF 1
ENDMDL
MODEL       90
REMARK 921   NORMALIZED FREE ENERGY PREDICTED BY IDOCK:   -5.02 KCAL/MOL
REMARK 922        TOTAL FREE ENERGY PREDICTED BY IDOCK:   -5.35 KCAL/MOL
REMARK 923 INTER-LIGAND FREE ENERGY PREDICTED BY IDOCK:   -5.33 KCAL/MOL
REMARK 924 INTRA-LIGAND FREE ENERGY PREDICTED BY IDOCK:   -0.02 KCAL/MOL
REMARK 927      BINDING AFFINITY PREDICTED BY RF-SCORE:    0.00 PKD
ROOT
HETATM    1  N   UNL     1      -7.247   8.713  72.935  1.00  0.00    -0.333 NA 
HETATM    2  C   UNL     1      -8.493   8.088  72.965  1.00  0.00    -0.193 A  
HETATM    3  H1  UNL     1      -7.014   9.357  72.179  1.00  0.00     0.000 HD 
HETATM    4  H2  UNL     1      -6.525   7.993  72.977  1.00  0.00     0.000 HD 
HETATM    5  C   UNL     1      -8.813   7.202  74.005  1.00  0.00    -0.231 A  
HETATM    6  C   UNL     1     -10.113   6.675  74.162  1.00  0.00    -0.390 A  
HETATM    7  C   UNL     1     -11.143   7.063  73.307  1.00  0.00    -0.217 A  
HETATM    8  C   UNL     1     -10.826   7.974  72.319  1.00  0.00    -0.369 A  
HETATM    9  C   UNL     1      -9.545   8.473  72.149  1.00  0.00    -0.382 A  
HETATM   10  C   UNL     1      -9.586   9.379  70.997  1.00  0.00    -0.202 C  
HETATM   11  N   UNL     1     -10.884   9.407  70.559  1.00  0.00    -0.254 N  
HETATM   12  O   UNL     1      -8.616   9.939  70.520  1.00  0.00    -0.127 OA 
HETATM   13  C   UNL     1     -11.682   8.590  71.311  1.00  0.00    -0.284 C  
HETATM   14  O   UNL     1     -12.869   8.365  71.192  1.00  0.00    -0.219 OA 
ENDROOT
BRANCH  11  15
HETATM   15  C   UNL     1     -11.401  10.223  69.474  1.00  0.00    -0.241 C  
HETATM   16  C   UNL     1     -10.448  10.401  68.296  1.00  0.00    -0.221 C  
HETATM   17  C   UNL     1     -11.195  11.112  67.175  1.00  0.00    -0.320 C  
HETATM   18  C   UNL     1     -11.784  12.425  67.646  1.00  0.00    -0.346 C  
HETATM   19  O   UNL     1     -11.965  13.371  66.886  1.00  0.00    -0.382 OA 
HETATM   20  N   UNL     1     -12.156  12.500  68.966  1.00  0.00    -0.213 N  
HETATM   21  H   UNL     1     -12.724  13.303  69.236  1.00  0.00     0.000 HD 
HETATM   22  C   UNL     1     -11.841  11.604  69.968  1.00  0.00    -0.355 C  
HETATM   23  O   UNL     1     -11.954  11.916  71.150  1.00  0.00    -0.051 OA 
ENDBRANCH  11  15
TORSDOF 1
ENDMDL
MODEL       91
REMARK 921   NORMALIZED FREE ENERGY PREDICTED BY IDOCK:   -5.01 KCAL/MOL
REMARK 922        TOTAL FREE ENERGY PREDICTED BY IDOCK:   -5.34 KCAL/MOL
REMARK 923 INTER-LIGAND FREE ENERGY PREDICTED BY IDOCK:   -5.19 KCAL/MOL
REMARK 924 INTRA-LIGAND FREE ENERGY PREDICTED BY IDOCK:   -0.15 KCAL/MOL
REMARK 927      BINDING AFFINITY PREDICTED BY RF-SCORE:    0.00 PKD
ROOT
HETATM    1  N   UNL     1     -12.793  12.777  64.361  1.00  0.00    -0.735 NA 
HETATM    2  C   UNL     1     -12.042  13.052  65.503  1.00  0.00    -0.452 A  
HETATM    3  H1  UNL     1     -12.508  12.031  63.727  1.00  0.00     0.000 HD 
HETATM    4  H2  UNL     1     -12.886  13.639  63.822  1.00  0.00     0.000 HD 
HETATM    5  C   UNL     1     -12.435  14.079  66.376  1.00  0.00    -0.395 A  
HETATM    6  C   UNL     1     -11.799  14.283  67.619  1.00  0.00    -0.420 A  
HETATM    7  C   UNL     1     -10.783  13.430  68.046  1.00  0.00    -0.261 A  
HETATM    8  C   UNL     1     -10.441  12.393  67.200  1.00  0.00    -0.236 A  
HETATM    9  C   UNL     1     -11.047  12.206  65.968  1.00  0.00    -0.354 A  
HETATM   10  C   UNL     1     -10.411  11.039  65.349  1.00  0.00    -0.268 C  
HETATM   11  N   UNL     1      -9.489  10.567  66.246  1.00  0.00    -0.172 N  
HETATM   12  O   UNL     1     -10.649  10.633  64.227  1.00  0.00    -0.298 OA 
HETATM   13  C   UNL     1      -9.459  11.331  67.380  1.00  0.00    -0.165 C  
HETATM   14  O   UNL     1      -8.756  11.208  68.362  1.00  0.00    -0.144 OA 
ENDROOT
BRANCH  11  15
HETATM   15  C   UNL     1      -8.665   9.382  66.078  1.00  0.00    -0.150 C  
HETATM   16  C   UNL     1      -7.916   9.305  64.751  1.00  0.00    -0.123 C  
HETATM   17  C   UNL     1      -6.963   8.118  64.803  1.00  0.00    -0.074 C  
HETATM   18  C   UNL     1      -7.694   6.833  65.131  1.00  0.00    -0.105 C  
HETATM   19  O   UNL     1      -7.296   5.738  64.747  1.00  0.00    -0.063 OA 
HETATM   20  N   UNL     1      -8.811   6.940  65.923  1.00  0.00    -0.264 N  
HETATM   21  H   UNL     1      -9.187   6.070  66.302  1.00  0.00     0.000 HD 
HETATM   22  C   UNL     1      -9.479   8.099  66.262  1.00  0.00    -0.190 C  
HETATM   23  O   UNL     1     -10.622   8.059  66.709  1.00  0.00    -0.320 OA 
ENDBRANCH  11  15
TORSDOF 1
ENDMDL
MODEL       92
REMARK 921   NORMALIZED FREE ENERGY PREDICTED BY IDOCK:   -4.99 KCAL/MOL
REMARK 922        TOTAL FREE ENERGY PREDICTED BY IDOCK:   -5.33 KCAL/MOL
REMARK 923 INTER-LIGAND FREE ENERGY PREDICTED BY IDOCK:   -5.27 KCAL/MOL
REMARK 924 INTRA-LIGAND FREE ENERGY PREDICTED BY IDOCK:   -0.06 KCAL/MOL
REMARK 927      BINDING AFFINITY PREDICTED BY RF-SCORE:    0.00 PKD
ROOT
HETATM    1  N   UNL     1      -8.085   8.901  63.063  1.00  0.00    -0.163 NA 
HETATM    2  C   UNL     1      -8.854   9.901  63.657  1.00  0.00    -0.237 A  
HETATM    3  H1  UNL     1      -7.768   8.103  63.613  1.00  0.00     0.000 HD 
HETATM    4  H2  UNL     1      -7.272   9.337  62.628  1.00  0.00     0.000 HD 
HETATM    5  C   UNL     1      -9.292  10.999  62.899  1.00  0.00    -0.380 A  
HETATM    6  C   UNL     1     -10.202  11.946  63.416  1.00  0.00    -0.478 A  
HETATM    7  C   UNL     1     -10.738  11.790  64.693  1.00  0.00    -0.363 A  
HETATM    8  C   UNL     1     -10.338  10.679  65.409  1.00  0.00    -0.303 A  
HETATM    9  C   UNL     1      -9.427   9.762  64.911  1.00  0.00    -0.331 A  
HETATM   10  C   UNL     1      -9.227   8.748  65.952  1.00  0.00    -0.220 C  
HETATM   11  N   UNL     1     -10.047   9.084  66.997  1.00  0.00    -0.226 N  
HETATM   12  O   UNL     1      -8.433   7.828  65.880  1.00  0.00    -0.129 OA 
HETATM   13  C   UNL     1     -10.745  10.230  66.735  1.00  0.00    -0.146 C  
HETATM   14  O   UNL     1     -11.542  10.814  67.441  1.00  0.00    -0.485 OA 
ENDROOT
BRANCH  11  15
HETATM   15  C   UNL     1     -10.223   8.322  68.222  1.00  0.00    -0.208 C  
HETATM   16  C   UNL     1      -8.960   8.161  69.062  1.00  0.00    -0.144 C  
HETATM   17  C   UNL     1      -9.342   7.512  70.387  1.00  0.00    -0.161 C  
HETATM   18  C   UNL     1     -10.067   6.200  70.174  1.00  0.00    -0.184 C  
HETATM   19  O   UNL     1     -10.023   5.288  70.993  1.00  0.00    -0.180 OA 
HETATM   20  N   UNL     1     -10.823   6.088  69.032  1.00  0.00    -0.324 N  
HETATM   21  H   UNL     1     -11.459   5.292  68.983  1.00  0.00     0.000 HD 
HETATM   22  C   UNL     1     -10.813   6.937  67.945  1.00  0.00    -0.218 C  
HETATM   23  O   UNL     1     -11.285   6.586  66.867  1.00  0.00    -0.387 OA 
ENDBRANCH  11  15
TORSDOF 1
ENDMDL
MODEL       93
REMARK 921   NORMALIZED FREE ENERGY PREDICTED BY IDOCK:   -4.95 KCAL/MOL
REMARK 922        TOTAL FREE ENERGY PREDICTED BY IDOCK:   -5.28 KCAL/MOL
REMARK 923 INTER-LIGAND FREE ENERGY PREDICTED BY IDOCK:   -5.27 KCAL/MOL
REMARK 924 INTRA-LIGAND FREE ENERGY PREDICTED BY IDOCK:   -0.01 KCAL/MOL
REMARK 927      BINDING AFFINITY PREDICTED BY RF-SCORE:    0.00 PKD
ROOT
HETATM    1  N   UNL     1     -12.264  12.812  65.755  1.00  0.00    -0.558 NA 
HETATM    2  C   UNL     1     -11.419  11.895  65.131  1.00  0.00    -0.243 A  
HETATM    3  H1  UNL     1     -12.597  12.640  66.703  1.00  0.00     0.000 HD 
HETATM    4  H2  UNL     1     -13.073  12.965  65.152  1.00  0.00     0.000 HD 
HETATM    5  C   UNL     1     -10.961  12.133  63.826  1.00  0.00    -0.494 A  
HETATM    6  C   UNL     1      -9.981  11.316  63.221  1.00  0.00    -0.428 A  
HETATM    7  C   UNL     1      -9.396  10.267  63.928  1.00  0.00    -0.337 A  
HETATM    8  C   UNL     1      -9.820  10.076  65.228  1.00  0.00    -0.388 A  
HETATM    9  C   UNL     1     -10.799  10.861  65.815  1.00  0.00    -0.120 A  
HETATM   10  C   UNL     1     -11.004  10.348  67.173  1.00  0.00    -0.196 C  
HETATM   11  N   UNL     1     -10.121   9.314  67.345  1.00  0.00    -0.206 N  
HETATM   12  O   UNL     1     -11.847  10.759  67.950  1.00  0.00    -0.553 OA 
HETATM   13  C   UNL     1      -9.377   9.101  66.218  1.00  0.00    -0.216 C  
HETATM   14  O   UNL     1      -8.521   8.263  66.017  1.00  0.00    -0.123 OA 
ENDROOT
BRANCH  11  15
HETATM   15  C   UNL     1      -9.930   8.550  68.566  1.00  0.00    -0.184 C  
HETATM   16  C   UNL     1      -8.497   8.528  69.089  1.00  0.00    -0.125 C  
HETATM   17  C   UNL     1      -8.493   7.855  70.456  1.00  0.00    -0.126 C  
HETATM   18  C   UNL     1      -9.110   6.473  70.396  1.00  0.00    -0.156 C  
HETATM   19  O   UNL     1      -8.783   5.577  71.168  1.00  0.00    -0.127 OA 
HETATM   20  N   UNL     1     -10.093   6.273  69.458  1.00  0.00    -0.169 N  
HETATM   21  H   UNL     1     -10.639   5.415  69.544  1.00  0.00     0.000 HD 
HETATM   22  C   UNL     1     -10.423   7.108  68.411  1.00  0.00    -0.197 C  
HETATM   23  O   UNL     1     -11.093   6.701  67.466  1.00  0.00    -0.321 OA 
ENDBRANCH  11  15
TORSDOF 1
ENDMDL
MODEL       94
REMARK 921   NORMALIZED FREE ENERGY PREDICTED BY IDOCK:   -4.93 KCAL/MOL
REMARK 922        TOTAL FREE ENERGY PREDICTED BY IDOCK:   -5.26 KCAL/MOL
REMARK 923 INTER-LIGAND FREE ENERGY PREDICTED BY IDOCK:   -5.21 KCAL/MOL
REMARK 924 INTRA-LIGAND FREE ENERGY PREDICTED BY IDOCK:   -0.05 KCAL/MOL
REMARK 927      BINDING AFFINITY PREDICTED BY RF-SCORE:    0.00 PKD
ROOT
HETATM    1  N   UNL     1     -13.597   6.849  72.185  1.00  0.00    -0.537 NA 
HETATM    2  C   UNL     1     -13.163   8.087  71.713  1.00  0.00    -0.341 A  
HETATM    3  H1  UNL     1     -13.220   5.988  71.789  1.00  0.00     0.000 HD 
HETATM    4  H2  UNL     1     -14.614   6.817  72.114  1.00  0.00     0.000 HD 
HETATM    5  C   UNL     1     -13.682   9.272  72.258  1.00  0.00    -0.527 A  
HETATM    6  C   UNL     1     -13.155  10.538  71.925  1.00  0.00    -0.567 A  
HETATM    7  C   UNL     1     -12.058  10.648  71.072  1.00  0.00    -0.473 A  
HETATM    8  C   UNL     1     -11.526   9.472  70.583  1.00  0.00    -0.362 A  
HETATM    9  C   UNL     1     -12.057   8.230  70.890  1.00  0.00    -0.149 A  
HETATM   10  C   UNL     1     -11.257   7.232  70.173  1.00  0.00    -0.239 C  
HETATM   11  N   UNL     1     -10.274   7.915  69.507  1.00  0.00    -0.204 N  
HETATM   12  O   UNL     1     -11.490   6.037  70.157  1.00  0.00    -0.356 OA 
HETATM   13  C   UNL     1     -10.374   9.262  69.713  1.00  0.00    -0.218 C  
HETATM   14  O   UNL     1      -9.683  10.155  69.266  1.00  0.00    -0.201 OA 
ENDROOT
BRANCH  11  15
HETATM   15  C   UNL     1      -9.210   7.321  68.714  1.00  0.00    -0.137 C  
HETATM   16  C   UNL     1      -7.812   7.853  69.018  1.00  0.00    -0.110 C  
HETATM   17  C   UNL     1      -6.799   7.012  68.252  1.00  0.00    -0.074 C  
HETATM   18  C   UNL     1      -7.102   6.992  66.768  1.00  0.00    -0.082 C  
HETATM   19  O   UNL     1      -6.224   6.845  65.924  1.00  0.00    -0.037 OA 
HETATM   20  N   UNL     1      -8.422   7.103  66.403  1.00  0.00    -0.123 N  
HETATM   21  H   UNL     1      -8.645   6.897  65.429  1.00  0.00     0.000 HD 
HETATM   22  C   UNL     1      -9.478   7.464  67.214  1.00  0.00    -0.146 C  
HETATM   23  O   UNL     1     -10.547   7.829  66.731  1.00  0.00    -0.331 OA 
ENDBRANCH  11  15
TORSDOF 1
ENDMDL
MODEL       95
REMARK 921   NORMALIZED FREE ENERGY PREDICTED BY IDOCK:   -4.92 KCAL/MOL
REMARK 922        TOTAL FREE ENERGY PREDICTED BY IDOCK:   -5.25 KCAL/MOL
REMARK 923 INTER-LIGAND FREE ENERGY PREDICTED BY IDOCK:   -5.10 KCAL/MOL
REMARK 924 INTRA-LIGAND FREE ENERGY PREDICTED BY IDOCK:   -0.15 KCAL/MOL
REMARK 927      BINDING AFFINITY PREDICTED BY RF-SCORE:    0.00 PKD
ROOT
HETATM    1  N   UNL     1     -11.832  12.324  70.262  1.00  0.00    -0.524 NA 
HETATM    2  C   UNL     1     -12.066  11.086  70.860  1.00  0.00    -0.339 A  
HETATM    3  H1  UNL     1     -11.059  12.439  69.608  1.00  0.00     0.000 HD 
HETATM    4  H2  UNL     1     -11.739  13.024  70.998  1.00  0.00     0.000 HD 
HETATM    5  C   UNL     1     -13.131  10.927  71.760  1.00  0.00    -0.564 A  
HETATM    6  C   UNL     1     -13.499   9.660  72.262  1.00  0.00    -0.488 A  
HETATM    7  C   UNL     1     -12.840   8.508  71.834  1.00  0.00    -0.399 A  
HETATM    8  C   UNL     1     -11.828   8.674  70.910  1.00  0.00    -0.257 A  
HETATM    9  C   UNL     1     -11.449   9.920  70.435  1.00  0.00    -0.372 A  
HETATM   10  C   UNL     1     -10.336   9.704  69.505  1.00  0.00    -0.221 C  
HETATM   11  N   UNL     1     -10.128   8.352  69.440  1.00  0.00    -0.193 N  
HETATM   12  O   UNL     1      -9.709  10.592  68.957  1.00  0.00    -0.194 OA 
HETATM   13  C   UNL     1     -10.992   7.674  70.255  1.00  0.00    -0.252 C  
HETATM   14  O   UNL     1     -11.074   6.479  70.452  1.00  0.00    -0.278 OA 
ENDROOT
BRANCH  11  15
HETATM   15  C   UNL     1      -9.161   7.677  68.591  1.00  0.00    -0.135 C  
HETATM   16  C   UNL     1      -7.731   8.197  68.710  1.00  0.00    -0.107 C  
HETATM   17  C   UNL     1      -6.816   7.278  67.911  1.00  0.00    -0.070 C  
HETATM   18  C   UNL     1      -7.270   7.157  66.471  1.00  0.00    -0.079 C  
HETATM   19  O   UNL     1      -6.487   6.927  65.556  1.00  0.00    -0.044 OA 
HETATM   20  N   UNL     1      -8.619   7.272  66.235  1.00  0.00    -0.136 N  
HETATM   21  H   UNL     1      -8.944   7.000  65.307  1.00  0.00     0.000 HD 
HETATM   22  C   UNL     1      -9.580   7.716  67.119  1.00  0.00    -0.162 C  
HETATM   23  O   UNL     1     -10.687   8.070  66.721  1.00  0.00    -0.289 OA 
ENDBRANCH  11  15
TORSDOF 1
ENDMDL
MODEL       96
REMARK 921   NORMALIZED FREE ENERGY PREDICTED BY IDOCK:   -4.90 KCAL/MOL
REMARK 922        TOTAL FREE ENERGY PREDICTED BY IDOCK:   -5.22 KCAL/MOL
REMARK 923 INTER-LIGAND FREE ENERGY PREDICTED BY IDOCK:   -5.20 KCAL/MOL
REMARK 924 INTRA-LIGAND FREE ENERGY PREDICTED BY IDOCK:   -0.03 KCAL/MOL
REMARK 927      BINDING AFFINITY PREDICTED BY RF-SCORE:    0.00 PKD
ROOT
HETATM    1  N   UNL     1      -7.007  19.482  65.433  1.00  0.00    -0.389 NA 
HETATM    2  C   UNL     1      -8.188  19.184  66.110  1.00  0.00    -0.252 A  
HETATM    3  H1  UNL     1      -6.257  18.793  65.382  1.00  0.00     0.000 HD 
HETATM    4  H2  UNL     1      -6.625  20.347  65.817  1.00  0.00     0.000 HD 
HETATM    5  C   UNL     1      -9.221  20.133  66.178  1.00  0.00    -0.338 A  
HETATM    6  C   UNL     1     -10.489  19.816  66.712  1.00  0.00    -0.610 A  
HETATM    7  C   UNL     1     -10.773  18.523  67.147  1.00  0.00    -0.396 A  
HETATM    8  C   UNL     1      -9.764  17.587  67.027  1.00  0.00    -0.284 A  
HETATM    9  C   UNL     1      -8.512  17.902  66.526  1.00  0.00    -0.284 A  
HETATM   10  C   UNL     1      -7.708  16.677  66.579  1.00  0.00    -0.302 C  
HETATM   11  N   UNL     1      -8.520  15.690  67.070  1.00  0.00    -0.205 N  
HETATM   12  O   UNL     1      -6.529  16.608  66.283  1.00  0.00    -0.176 OA 
HETATM   13  C   UNL     1      -9.769  16.166  67.355  1.00  0.00    -0.233 C  
HETATM   14  O   UNL     1     -10.724  15.573  67.815  1.00  0.00    -0.281 OA 
ENDROOT
BRANCH  11  15
HETATM   15  C   UNL     1      -8.159  14.291  67.234  1.00  0.00    -0.178 C  
HETATM   16  C   UNL     1      -9.226  13.298  66.787  1.00  0.00    -0.237 C  
HETATM   17  C   UNL     1      -8.634  11.895  66.844  1.00  0.00    -0.185 C  
HETATM   18  C   UNL     1      -8.089  11.579  68.221  1.00  0.00    -0.148 C  
HETATM   19  O   UNL     1      -8.042  10.433  68.658  1.00  0.00    -0.105 OA 
HETATM   20  N   UNL     1      -7.603  12.635  68.954  1.00  0.00    -0.305 N  
HETATM   21  H   UNL     1      -7.065  12.402  69.788  1.00  0.00     0.000 HD 
HETATM   22  C   UNL     1      -7.766  13.977  68.680  1.00  0.00    -0.135 C  
HETATM   23  O   UNL     1      -7.564  14.825  69.545  1.00  0.00    -0.158 OA 
ENDBRANCH  11  15
TORSDOF 1
ENDMDL
MODEL       97
REMARK 921   NORMALIZED FREE ENERGY PREDICTED BY IDOCK:   -4.89 KCAL/MOL
REMARK 922        TOTAL FREE ENERGY PREDICTED BY IDOCK:   -5.22 KCAL/MOL
REMARK 923 INTER-LIGAND FREE ENERGY PREDICTED BY IDOCK:   -5.21 KCAL/MOL
REMARK 924 INTRA-LIGAND FREE ENERGY PREDICTED BY IDOCK:   -0.01 KCAL/MOL
REMARK 927      BINDING AFFINITY PREDICTED BY RF-SCORE:    0.00 PKD
ROOT
HETATM    1  N   UNL     1     -10.947  16.567  69.544  1.00  0.00    -0.315 NA 
HETATM    2  C   UNL     1     -11.352  15.320  70.019  1.00  0.00    -0.290 A  
HETATM    3  H1  UNL     1     -10.299  16.632  68.760  1.00  0.00     0.000 HD 
HETATM    4  H2  UNL     1     -10.562  17.099  70.325  1.00  0.00     0.000 HD 
HETATM    5  C   UNL     1     -12.245  15.231  71.098  1.00  0.00    -0.409 A  
HETATM    6  C   UNL     1     -12.802  13.999  71.503  1.00  0.00    -0.440 A  
HETATM    7  C   UNL     1     -12.518  12.827  70.805  1.00  0.00    -0.357 A  
HETATM    8  C   UNL     1     -11.678  12.938  69.714  1.00  0.00    -0.351 A  
HETATM    9  C   UNL     1     -11.111  14.142  69.330  1.00  0.00    -0.286 A  
HETATM   10  C   UNL     1     -10.265  13.865  68.164  1.00  0.00    -0.249 C  
HETATM   11  N   UNL     1     -10.393  12.530  67.888  1.00  0.00    -0.211 N  
HETATM   12  O   UNL     1      -9.557  14.686  67.611  1.00  0.00    -0.209 OA 
HETATM   13  C   UNL     1     -11.230  11.914  68.777  1.00  0.00    -0.259 C  
HETATM   14  O   UNL     1     -11.553  10.745  68.835  1.00  0.00    -0.281 OA 
ENDROOT
BRANCH  11  15
HETATM   15  C   UNL     1      -9.779  11.826  66.774  1.00  0.00    -0.197 C  
HETATM   16  C   UNL     1     -10.756  11.079  65.872  1.00  0.00    -0.226 C  
HETATM   17  C   UNL     1      -9.993  10.557  64.662  1.00  0.00    -0.415 C  
HETATM   18  C   UNL     1      -8.816   9.700  65.075  1.00  0.00    -0.186 C  
HETATM   19  O   UNL     1      -8.383   8.797  64.366  1.00  0.00    -0.163 OA 
HETATM   20  N   UNL     1      -8.216  10.006  66.273  1.00  0.00    -0.121 N  
HETATM   21  H   UNL     1      -7.315   9.563  66.458  1.00  0.00     0.000 HD 
HETATM   22  C   UNL     1      -8.700  10.849  67.251  1.00  0.00    -0.131 C  
HETATM   23  O   UNL     1      -8.250  10.815  68.393  1.00  0.00    -0.116 OA 
ENDBRANCH  11  15
TORSDOF 1
ENDMDL
MODEL       98
REMARK 921   NORMALIZED FREE ENERGY PREDICTED BY IDOCK:   -4.81 KCAL/MOL
REMARK 922        TOTAL FREE ENERGY PREDICTED BY IDOCK:   -5.13 KCAL/MOL
REMARK 923 INTER-LIGAND FREE ENERGY PREDICTED BY IDOCK:   -5.09 KCAL/MOL
REMARK 924 INTRA-LIGAND FREE ENERGY PREDICTED BY IDOCK:   -0.04 KCAL/MOL
REMARK 927      BINDING AFFINITY PREDICTED BY RF-SCORE:    0.00 PKD
ROOT
HETATM    1  N   UNL     1     -10.167  10.699  63.639  1.00  0.00    -0.483 NA 
HETATM    2  C   UNL     1     -10.511  11.234  64.880  1.00  0.00    -0.314 A  
HETATM    3  H1  UNL     1      -9.690   9.800  63.582  1.00  0.00     0.000 HD 
HETATM    4  H2  UNL     1      -9.613  11.391  63.134  1.00  0.00     0.000 HD 
HETATM    5  C   UNL     1     -11.169  12.472  64.957  1.00  0.00    -0.344 A  
HETATM    6  C   UNL     1     -11.676  12.971  66.176  1.00  0.00    -0.445 A  
HETATM    7  C   UNL     1     -11.582  12.217  67.345  1.00  0.00    -0.425 A  
HETATM    8  C   UNL     1     -10.978  10.980  67.245  1.00  0.00    -0.356 A  
HETATM    9  C   UNL     1     -10.458  10.500  66.054  1.00  0.00    -0.226 A  
HETATM   10  C   UNL     1      -9.877   9.184  66.339  1.00  0.00    -0.280 C  
HETATM   11  N   UNL     1     -10.107   8.926  67.665  1.00  0.00    -0.203 N  
HETATM   12  O   UNL     1      -9.268   8.505  65.532  1.00  0.00    -0.152 OA 
HETATM   13  C   UNL     1     -10.768   9.961  68.267  1.00  0.00    -0.234 C  
HETATM   14  O   UNL     1     -11.113  10.073  69.425  1.00  0.00    -0.232 OA 
ENDROOT
BRANCH  11  15
HETATM   15  C   UNL     1      -9.758   7.704  68.370  1.00  0.00    -0.158 C  
HETATM   16  C   UNL     1     -10.902   7.069  69.155  1.00  0.00    -0.223 C  
HETATM   17  C   UNL     1     -10.436   5.716  69.676  1.00  0.00    -0.374 C  
HETATM   18  C   UNL     1      -9.170   5.843  70.497  1.00  0.00    -0.152 C  
HETATM   19  O   UNL     1      -8.895   5.059  71.399  1.00  0.00    -0.130 OA 
HETATM   20  N   UNL     1      -8.309   6.858  70.157  1.00  0.00    -0.133 N  
HETATM   21  H   UNL     1      -7.379   6.826  70.574  1.00  0.00     0.000 HD 
HETATM   22  C   UNL     1      -8.570   7.917  69.311  1.00  0.00    -0.138 C  
HETATM   23  O   UNL     1      -7.857   8.917  69.316  1.00  0.00    -0.091 OA 
ENDBRANCH  11  15
TORSDOF 1
ENDMDL
MODEL       99
REMARK 921   NORMALIZED FREE ENERGY PREDICTED BY IDOCK:   -4.79 KCAL/MOL
REMARK 922        TOTAL FREE ENERGY PREDICTED BY IDOCK:   -5.12 KCAL/MOL
REMARK 923 INTER-LIGAND FREE ENERGY PREDICTED BY IDOCK:   -4.97 KCAL/MOL
REMARK 924 INTRA-LIGAND FREE ENERGY PREDICTED BY IDOCK:   -0.15 KCAL/MOL
REMARK 927      BINDING AFFINITY PREDICTED BY RF-SCORE:    0.00 PKD
ROOT
HETATM    1  N   UNL     1      -8.445  16.219  67.265  1.00  0.00    -0.171 NA 
HETATM    2  C   UNL     1      -9.583  15.883  66.533  1.00  0.00    -0.268 A  
HETATM    3  H1  UNL     1      -8.124  15.614  68.020  1.00  0.00     0.000 HD 
HETATM    4  H2  UNL     1      -8.570  17.161  67.638  1.00  0.00     0.000 HD 
HETATM    5  C   UNL     1     -10.026  16.716  65.494  1.00  0.00    -0.090 A  
HETATM    6  C   UNL     1     -11.072  16.334  64.627  1.00  0.00    -0.259 A  
HETATM    7  C   UNL     1     -11.672  15.082  64.748  1.00  0.00    -0.370 A  
HETATM    8  C   UNL     1     -11.193  14.252  65.743  1.00  0.00    -0.317 A  
HETATM    9  C   UNL     1     -10.183  14.636  66.609  1.00  0.00    -0.275 A  
HETATM   10  C   UNL     1      -9.966  13.520  67.536  1.00  0.00    -0.230 C  
HETATM   11  N   UNL     1     -10.823  12.520  67.161  1.00  0.00    -0.244 N  
HETATM   12  O   UNL     1      -9.197  13.542  68.480  1.00  0.00    -0.180 OA 
HETATM   13  C   UNL     1     -11.585  12.891  66.089  1.00  0.00    -0.372 C  
HETATM   14  O   UNL     1     -12.450  12.261  65.514  1.00  0.00    -0.597 OA 
ENDROOT
BRANCH  11  15
HETATM   15  C   UNL     1     -10.909  11.200  67.763  1.00  0.00    -0.239 C  
HETATM   16  C   UNL     1     -11.119  11.198  69.274  1.00  0.00    -0.318 C  
HETATM   17  C   UNL     1     -11.375   9.765  69.724  1.00  0.00    -0.201 C  
HETATM   18  C   UNL     1     -10.256   8.839  69.293  1.00  0.00    -0.210 C  
HETATM   19  O   UNL     1      -9.967   7.826  69.922  1.00  0.00    -0.186 OA 
HETATM   20  N   UNL     1      -9.600   9.160  68.129  1.00  0.00    -0.142 N  
HETATM   21  H   UNL     1      -8.987   8.444  67.739  1.00  0.00     0.000 HD 
HETATM   22  C   UNL     1      -9.680  10.348  67.433  1.00  0.00    -0.163 C  
HETATM   23  O   UNL     1      -8.835  10.646  66.594  1.00  0.00    -0.138 OA 
ENDBRANCH  11  15
TORSDOF 1
ENDMDL
MODEL      100
REMARK 921   NORMALIZED FREE ENERGY PREDICTED BY IDOCK:   -4.78 KCAL/MOL
REMARK 922        TOTAL FREE ENERGY PREDICTED BY IDOCK:   -5.10 KCAL/MOL
REMARK 923 INTER-LIGAND FREE ENERGY PREDICTED BY IDOCK:   -5.07 KCAL/MOL
REMARK 924 INTRA-LIGAND FREE ENERGY PREDICTED BY IDOCK:   -0.03 KCAL/MOL
REMARK 927      BINDING AFFINITY PREDICTED BY RF-SCORE:    0.00 PKD
ROOT
HETATM    1  N   UNL     1     -13.011  11.218  71.539  1.00  0.00    -0.445 NA 
HETATM    2  C   UNL     1     -12.196  10.090  71.452  1.00  0.00    -0.416 A  
HETATM    3  H1  UNL     1     -12.927  11.965  70.850  1.00  0.00     0.000 HD 
HETATM    4  H2  UNL     1     -12.900  11.623  72.468  1.00  0.00     0.000 HD 
HETATM    5  C   UNL     1     -12.312   9.061  72.400  1.00  0.00    -0.350 A  
HETATM    6  C   UNL     1     -11.625   7.836  72.258  1.00  0.00    -0.390 A  
HETATM    7  C   UNL     1     -10.840   7.589  71.133  1.00  0.00    -0.254 A  
HETATM    8  C   UNL     1     -10.775   8.590  70.184  1.00  0.00    -0.240 A  
HETATM    9  C   UNL     1     -11.429   9.802  70.334  1.00  0.00    -0.347 A  
HETATM   10  C   UNL     1     -11.107  10.613  69.155  1.00  0.00    -0.255 C  
HETATM   11  N   UNL     1     -10.312   9.842  68.348  1.00  0.00    -0.192 N  
HETATM   12  O   UNL     1     -11.456  11.767  68.991  1.00  0.00    -0.245 OA 
HETATM   13  C   UNL     1     -10.078   8.615  68.904  1.00  0.00    -0.202 C  
HETATM   14  O   UNL     1      -9.409   7.698  68.471  1.00  0.00    -0.147 OA 
ENDROOT
BRANCH  11  15
HETATM   15  C   UNL     1      -9.804  10.219  67.040  1.00  0.00    -0.193 C  
HETATM   16  C   UNL     1      -9.908   9.132  65.975  1.00  0.00    -0.342 C  
HETATM   17  C   UNL     1      -9.515   9.733  64.632  1.00  0.00    -0.295 C  
HETATM   18  C   UNL     1      -8.138  10.361  64.686  1.00  0.00    -0.122 C  
HETATM   19  O   UNL     1      -7.417  10.441  63.697  1.00  0.00    -0.121 OA 
HETATM   20  N   UNL     1      -7.743  10.885  65.893  1.00  0.00    -0.294 N  
HETATM   21  H   UNL     1      -6.910  11.474  65.884  1.00  0.00     0.000 HD 
HETATM   22  C   UNL     1      -8.353  10.700  67.116  1.00  0.00    -0.125 C  
HETATM   23  O   UNL     1      -7.757  10.949  68.161  1.00  0.00    -0.097 OA 
ENDBRANCH  11  15
TORSDOF 1
ENDMDL
MODEL      101
REMARK 921   NORMALIZED FREE ENERGY PREDICTED BY IDOCK:   -4.78 KCAL/MOL
REMARK 922        TOTAL FREE ENERGY PREDICTED BY IDOCK:   -5.10 KCAL/MOL
REMARK 923 INTER-LIGAND FREE ENERGY PREDICTED BY IDOCK:   -4.96 KCAL/MOL
REMARK 924 INTRA-LIGAND FREE ENERGY PREDICTED BY IDOCK:   -0.14 KCAL/MOL
REMARK 927      BINDING AFFINITY PREDICTED BY RF-SCORE:    0.00 PKD
ROOT
HETATM    1  N   UNL     1     -11.697  12.882  68.421  1.00  0.00    -0.326 NA 
HETATM    2  C   UNL     1     -11.351  12.055  67.353  1.00  0.00    -0.327 A  
HETATM    3  H1  UNL     1     -11.822  12.490  69.354  1.00  0.00     0.000 HD 
HETATM    4  H2  UNL     1     -12.544  13.392  68.170  1.00  0.00     0.000 HD 
HETATM    5  C   UNL     1     -11.179  12.594  66.069  1.00  0.00    -0.345 A  
HETATM    6  C   UNL     1     -10.673  11.825  64.999  1.00  0.00    -0.344 A  
HETATM    7  C   UNL     1     -10.279  10.503  65.200  1.00  0.00    -0.358 A  
HETATM    8  C   UNL     1     -10.406  10.000  66.480  1.00  0.00    -0.268 A  
HETATM    9  C   UNL     1     -10.924  10.747  67.525  1.00  0.00    -0.372 A  
HETATM   10  C   UNL     1     -10.933   9.881  68.709  1.00  0.00    -0.179 C  
HETATM   11  N   UNL     1     -10.391   8.682  68.327  1.00  0.00    -0.212 N  
HETATM   12  O   UNL     1     -11.393  10.191  69.792  1.00  0.00    -0.248 OA 
HETATM   13  C   UNL     1     -10.049   8.687  67.004  1.00  0.00    -0.272 C  
HETATM   14  O   UNL     1      -9.564   7.794  66.339  1.00  0.00    -0.203 OA 
ENDROOT
BRANCH  11  15
HETATM   15  C   UNL     1     -10.145   7.542  69.195  1.00  0.00    -0.192 C  
HETATM   16  C   UNL     1     -11.362   7.059  69.978  1.00  0.00    -0.293 C  
HETATM   17  C   UNL     1     -10.995   5.762  70.687  1.00  0.00    -0.319 C  
HETATM   18  C   UNL     1      -9.773   5.934  71.564  1.00  0.00    -0.161 C  
HETATM   19  O   UNL     1      -9.589   5.256  72.570  1.00  0.00    -0.148 OA 
HETATM   20  N   UNL     1      -8.844   6.861  71.158  1.00  0.00    -0.142 N  
HETATM   21  H   UNL     1      -7.941   6.841  71.633  1.00  0.00     0.000 HD 
HETATM   22  C   UNL     1      -9.002   7.818  70.176  1.00  0.00    -0.146 C  
HETATM   23  O   UNL     1      -8.242   8.779  70.105  1.00  0.00    -0.102 OA 
ENDBRANCH  11  15
TORSDOF 1
ENDMDL
MODEL      102
REMARK 921   NORMALIZED FREE ENERGY PREDICTED BY IDOCK:   -4.74 KCAL/MOL
REMARK 922        TOTAL FREE ENERGY PREDICTED BY IDOCK:   -5.06 KCAL/MOL
REMARK 923 INTER-LIGAND FREE ENERGY PREDICTED BY IDOCK:   -4.94 KCAL/MOL
REMARK 924 INTRA-LIGAND FREE ENERGY PREDICTED BY IDOCK:   -0.12 KCAL/MOL
REMARK 927      BINDING AFFINITY PREDICTED BY RF-SCORE:    0.00 PKD
ROOT
HETATM    1  N   UNL     1      -6.968  10.786  69.997  1.00  0.00    -0.293 NA 
HETATM    2  C   UNL     1      -8.114  10.331  69.346  1.00  0.00    -0.163 A  
HETATM    3  H1  UNL     1      -6.677  11.759  69.904  1.00  0.00     0.000 HD 
HETATM    4  H2  UNL     1      -6.187  10.188  69.728  1.00  0.00     0.000 HD 
HETATM    5  C   UNL     1      -8.515   8.992  69.475  1.00  0.00    -0.125 A  
HETATM    6  C   UNL     1      -9.749   8.532  68.968  1.00  0.00    -0.170 A  
HETATM    7  C   UNL     1     -10.639   9.414  68.358  1.00  0.00    -0.247 A  
HETATM    8  C   UNL     1     -10.254  10.738  68.283  1.00  0.00    -0.187 A  
HETATM    9  C   UNL     1      -9.033  11.187  68.759  1.00  0.00    -0.136 A  
HETATM   10  C   UNL     1      -8.965  12.625  68.480  1.00  0.00    -0.046 C  
HETATM   11  N   UNL     1     -10.152  12.971  67.889  1.00  0.00    -0.229 N  
HETATM   12  O   UNL     1      -7.997  13.329  68.700  1.00  0.00    -0.123 OA 
HETATM   13  C   UNL     1     -10.973  11.887  67.745  1.00  0.00    -0.228 C  
HETATM   14  O   UNL     1     -12.081  11.831  67.251  1.00  0.00    -0.595 OA 
ENDROOT
BRANCH  11  15
HETATM   15  C   UNL     1     -10.550  14.313  67.497  1.00  0.00    -0.261 C  
HETATM   16  C   UNL     1      -9.465  15.124  66.797  1.00  0.00    -0.260 C  
HETATM   17  C   UNL     1     -10.084  16.419  66.287  1.00  0.00    -0.346 C  
HETATM   18  C   UNL     1     -10.755  17.191  67.403  1.00  0.00    -0.242 C  
HETATM   19  O   UNL     1     -10.861  18.413  67.381  1.00  0.00    -0.403 OA 
HETATM   20  N   UNL     1     -11.286  16.455  68.434  1.00  0.00    -0.361 N  
HETATM   21  H   UNL     1     -11.901  16.951  69.080  1.00  0.00     0.000 HD 
HETATM   22  C   UNL     1     -11.077  15.115  68.690  1.00  0.00    -0.271 C  
HETATM   23  O   UNL     1     -11.340  14.634  69.789  1.00  0.00    -0.259 OA 
ENDBRANCH  11  15
TORSDOF 1
ENDMDL
MODEL      103
REMARK 921   NORMALIZED FREE ENERGY PREDICTED BY IDOCK:   -4.73 KCAL/MOL
REMARK 922        TOTAL FREE ENERGY PREDICTED BY IDOCK:   -5.05 KCAL/MOL
REMARK 923 INTER-LIGAND FREE ENERGY PREDICTED BY IDOCK:   -5.01 KCAL/MOL
REMARK 924 INTRA-LIGAND FREE ENERGY PREDICTED BY IDOCK:   -0.04 KCAL/MOL
REMARK 927      BINDING AFFINITY PREDICTED BY RF-SCORE:    0.00 PKD
ROOT
HETATM    1  N   UNL     1     -10.628  17.681  69.301  1.00  0.00    -0.363 NA 
HETATM    2  C   UNL     1     -10.704  17.355  67.947  1.00  0.00    -0.351 A  
HETATM    3  H1  UNL     1     -10.588  16.944  70.004  1.00  0.00     0.000 HD 
HETATM    4  H2  UNL     1     -11.407  18.300  69.526  1.00  0.00     0.000 HD 
HETATM    5  C   UNL     1     -10.758  18.369  66.978  1.00  0.00    -0.330 A  
HETATM    6  C   UNL     1     -10.673  18.087  65.598  1.00  0.00    -0.049 A  
HETATM    7  C   UNL     1     -10.481  16.780  65.152  1.00  0.00    -0.070 A  
HETATM    8  C   UNL     1     -10.379  15.798  66.118  1.00  0.00    -0.333 A  
HETATM    9  C   UNL     1     -10.486  16.071  67.472  1.00  0.00    -0.297 A  
HETATM   10  C   UNL     1     -10.358  14.793  68.179  1.00  0.00    -0.239 C  
HETATM   11  N   UNL     1     -10.147  13.831  67.226  1.00  0.00    -0.237 N  
HETATM   12  O   UNL     1     -10.478  14.651  69.382  1.00  0.00    -0.227 OA 
HETATM   13  C   UNL     1     -10.143  14.367  65.968  1.00  0.00    -0.322 C  
HETATM   14  O   UNL     1     -10.000  13.805  64.902  1.00  0.00    -0.295 OA 
ENDROOT
BRANCH  11  15
HETATM   15  C   UNL     1      -9.902  12.421  67.478  1.00  0.00    -0.194 C  
HETATM   16  C   UNL     1      -8.738  11.824  66.693  1.00  0.00    -0.186 C  
HETATM   17  C   UNL     1      -8.491  10.408  67.198  1.00  0.00    -0.126 C  
HETATM   18  C   UNL     1      -9.744   9.561  67.112  1.00  0.00    -0.171 C  
HETATM   19  O   UNL     1      -9.701   8.344  66.966  1.00  0.00    -0.171 OA 
HETATM   20  N   UNL     1     -10.944  10.214  67.250  1.00  0.00    -0.237 N  
HETATM   21  H   UNL     1     -11.769   9.629  67.386  1.00  0.00     0.000 HD 
HETATM   22  C   UNL     1     -11.154  11.578  67.224  1.00  0.00    -0.293 C  
HETATM   23  O   UNL     1     -12.279  12.039  67.048  1.00  0.00    -0.516 OA 
ENDBRANCH  11  15
TORSDOF 1
ENDMDL
MODEL      104
REMARK 921   NORMALIZED FREE ENERGY PREDICTED BY IDOCK:   -4.72 KCAL/MOL
REMARK 922        TOTAL FREE ENERGY PREDICTED BY IDOCK:   -5.04 KCAL/MOL
REMARK 923 INTER-LIGAND FREE ENERGY PREDICTED BY IDOCK:   -4.96 KCAL/MOL
REMARK 924 INTRA-LIGAND FREE ENERGY PREDICTED BY IDOCK:   -0.09 KCAL/MOL
REMARK 927      BINDING AFFINITY PREDICTED BY RF-SCORE:    0.00 PKD
ROOT
HETATM    1  N   UNL     1      -9.562   9.839  66.435  1.00  0.00    -0.185 NA 
HETATM    2  C   UNL     1     -10.307  10.266  67.534  1.00  0.00    -0.229 A  
HETATM    3  H1  UNL     1      -9.273  10.506  65.721  1.00  0.00     0.000 HD 
HETATM    4  H2  UNL     1     -10.067   9.078  65.980  1.00  0.00     0.000 HD 
HETATM    5  C   UNL     1     -10.704   9.347  68.518  1.00  0.00    -0.203 A  
HETATM    6  C   UNL     1     -11.317   9.761  69.720  1.00  0.00    -0.201 A  
HETATM    7  C   UNL     1     -11.504  11.115  69.991  1.00  0.00    -0.376 A  
HETATM    8  C   UNL     1     -11.063  12.011  69.036  1.00  0.00    -0.291 A  
HETATM    9  C   UNL     1     -10.484  11.604  67.846  1.00  0.00    -0.217 A  
HETATM   10  C   UNL     1     -10.176  12.818  67.082  1.00  0.00    -0.233 C  
HETATM   11  N   UNL     1     -10.549  13.882  67.860  1.00  0.00    -0.242 N  
HETATM   12  O   UNL     1      -9.723  12.830  65.952  1.00  0.00    -0.258 OA 
HETATM   13  C   UNL     1     -11.085  13.469  69.048  1.00  0.00    -0.250 C  
HETATM   14  O   UNL     1     -11.529  14.139  69.958  1.00  0.00    -0.252 OA 
ENDROOT
BRANCH  11  15
HETATM   15  C   UNL     1     -10.370  15.286  67.528  1.00  0.00    -0.244 C  
HETATM   16  C   UNL     1     -10.662  15.643  66.074  1.00  0.00    -0.322 C  
HETATM   17  C   UNL     1     -10.613  17.158  65.930  1.00  0.00    -0.219 C  
HETATM   18  C   UNL     1      -9.291  17.719  66.410  1.00  0.00    -0.249 C  
HETATM   19  O   UNL     1      -8.818  18.756  65.956  1.00  0.00    -0.479 OA 
HETATM   20  N   UNL     1      -8.657  17.036  67.419  1.00  0.00    -0.195 N  
HETATM   21  H   UNL     1      -7.876  17.511  67.871  1.00  0.00     0.000 HD 
HETATM   22  C   UNL     1      -8.963  15.774  67.885  1.00  0.00    -0.180 C  
HETATM   23  O   UNL     1      -8.158  15.139  68.561  1.00  0.00    -0.133 OA 
ENDBRANCH  11  15
TORSDOF 1
ENDMDL
MODEL      105
REMARK 921   NORMALIZED FREE ENERGY PREDICTED BY IDOCK:   -4.72 KCAL/MOL
REMARK 922        TOTAL FREE ENERGY PREDICTED BY IDOCK:   -5.04 KCAL/MOL
REMARK 923 INTER-LIGAND FREE ENERGY PREDICTED BY IDOCK:   -5.30 KCAL/MOL
REMARK 924 INTRA-LIGAND FREE ENERGY PREDICTED BY IDOCK:    0.26 KCAL/MOL
REMARK 927      BINDING AFFINITY PREDICTED BY RF-SCORE:    0.00 PKD
ROOT
HETATM    1  N   UNL     1      -9.815   9.966  62.948  1.00  0.00    -0.483 NA 
HETATM    2  C   UNL     1      -9.023   9.914  64.095  1.00  0.00    -0.240 A  
HETATM    3  H1  UNL     1     -10.653  10.546  62.930  1.00  0.00     0.000 HD 
HETATM    4  H2  UNL     1     -10.077   9.013  62.696  1.00  0.00     0.000 HD 
HETATM    5  C   UNL     1      -7.869   9.116  64.120  1.00  0.00    -0.128 A  
HETATM    6  C   UNL     1      -6.957   9.160  65.197  1.00  0.00    -0.087 A  
HETATM    7  C   UNL     1      -7.152  10.044  66.256  1.00  0.00    -0.105 A  
HETATM    8  C   UNL     1      -8.265  10.859  66.194  1.00  0.00    -0.168 A  
HETATM    9  C   UNL     1      -9.173  10.800  65.150  1.00  0.00    -0.239 A  
HETATM   10  C   UNL     1     -10.225  11.780  65.441  1.00  0.00    -0.261 C  
HETATM   11  N   UNL     1      -9.880  12.397  66.614  1.00  0.00    -0.218 N  
HETATM   12  O   UNL     1     -11.226  11.943  64.767  1.00  0.00    -0.308 OA 
HETATM   13  C   UNL     1      -8.712  11.896  67.118  1.00  0.00    -0.176 C  
HETATM   14  O   UNL     1      -8.130  12.199  68.139  1.00  0.00    -0.144 OA 
ENDROOT
BRANCH  11  15
HETATM   15  C   UNL     1     -10.604  13.484  67.251  1.00  0.00    -0.263 C  
HETATM   16  C   UNL     1      -9.751  14.394  68.129  1.00  0.00    -0.223 C  
HETATM   17  C   UNL     1     -10.602  15.578  68.569  1.00  0.00    -0.246 C  
HETATM   18  C   UNL     1     -11.869  15.123  69.264  1.00  0.00    -0.320 C  
HETATM   19  O   UNL     1     -12.428  15.807  70.115  1.00  0.00    -0.370 OA 
HETATM   20  N   UNL     1     -12.397  13.919  68.866  1.00  0.00    -0.454 N  
HETATM   21  H   UNL     1     -13.341  13.706  69.188  1.00  0.00     0.000 HD 
HETATM   22  C   UNL     1     -11.786  12.967  68.076  1.00  0.00    -0.347 C  
HETATM   23  O   UNL     1     -12.211  11.815  68.035  1.00  0.00    -0.518 OA 
ENDBRANCH  11  15
TORSDOF 1
ENDMDL
MODEL      106
REMARK 921   NORMALIZED FREE ENERGY PREDICTED BY IDOCK:   -4.70 KCAL/MOL
REMARK 922        TOTAL FREE ENERGY PREDICTED BY IDOCK:   -5.02 KCAL/MOL
REMARK 923 INTER-LIGAND FREE ENERGY PREDICTED BY IDOCK:   -5.25 KCAL/MOL
REMARK 924 INTRA-LIGAND FREE ENERGY PREDICTED BY IDOCK:    0.23 KCAL/MOL
REMARK 927      BINDING AFFINITY PREDICTED BY RF-SCORE:    0.00 PKD
ROOT
HETATM    1  N   UNL     1      -6.354  18.172  67.423  1.00  0.00    -0.171 NA 
HETATM    2  C   UNL     1      -6.532  16.983  68.129  1.00  0.00    -0.146 A  
HETATM    3  H1  UNL     1      -6.843  18.323  66.542  1.00  0.00     0.000 HD 
HETATM    4  H2  UNL     1      -5.355  18.305  67.265  1.00  0.00     0.000 HD 
HETATM    5  C   UNL     1      -5.860  16.775  69.343  1.00  0.00    -0.178 A  
HETATM    6  C   UNL     1      -6.134  15.660  70.165  1.00  0.00    -0.114 A  
HETATM    7  C   UNL     1      -7.128  14.748  69.816  1.00  0.00    -0.132 A  
HETATM    8  C   UNL     1      -7.817  14.993  68.644  1.00  0.00    -0.138 A  
HETATM    9  C   UNL     1      -7.532  16.072  67.824  1.00  0.00    -0.153 A  
HETATM   10  C   UNL     1      -8.436  15.987  66.673  1.00  0.00    -0.288 C  
HETATM   11  N   UNL     1      -9.234  14.892  66.874  1.00  0.00    -0.232 N  
HETATM   12  O   UNL     1      -8.411  16.738  65.715  1.00  0.00    -0.472 OA 
HETATM   13  C   UNL     1      -8.919  14.252  68.041  1.00  0.00    -0.183 C  
HETATM   14  O   UNL     1      -9.411  13.249  68.516  1.00  0.00    -0.182 OA 
ENDROOT
BRANCH  11  15
HETATM   15  C   UNL     1     -10.322  14.459  66.013  1.00  0.00    -0.309 C  
HETATM   16  C   UNL     1     -11.709  14.546  66.641  1.00  0.00    -0.384 C  
HETATM   17  C   UNL     1     -12.745  14.242  65.567  1.00  0.00    -0.399 C  
HETATM   18  C   UNL     1     -12.489  12.900  64.912  1.00  0.00    -0.478 C  
HETATM   19  O   UNL     1     -13.392  12.225  64.430  1.00  0.00    -0.786 OA 
HETATM   20  N   UNL     1     -11.181  12.486  64.840  1.00  0.00    -0.296 N  
HETATM   21  H   UNL     1     -10.989  11.687  64.235  1.00  0.00     0.000 HD 
HETATM   22  C   UNL     1     -10.100  13.034  65.499  1.00  0.00    -0.259 C  
HETATM   23  O   UNL     1      -9.047  12.412  65.609  1.00  0.00     0.047 OA 
ENDBRANCH  11  15
TORSDOF 1
ENDMDL
MODEL      107
REMARK 921   NORMALIZED FREE ENERGY PREDICTED BY IDOCK:   -4.69 KCAL/MOL
REMARK 922        TOTAL FREE ENERGY PREDICTED BY IDOCK:   -5.01 KCAL/MOL
REMARK 923 INTER-LIGAND FREE ENERGY PREDICTED BY IDOCK:   -4.93 KCAL/MOL
REMARK 924 INTRA-LIGAND FREE ENERGY PREDICTED BY IDOCK:   -0.08 KCAL/MOL
REMARK 927      BINDING AFFINITY PREDICTED BY RF-SCORE:    0.00 PKD
ROOT
HETATM    1  N   UNL     1     -11.564   7.146  69.413  1.00  0.00    -0.471 NA 
HETATM    2  C   UNL     1     -10.701   7.217  68.320  1.00  0.00    -0.123 A  
HETATM    3  H1  UNL     1     -11.811   7.992  69.927  1.00  0.00     0.000 HD 
HETATM    4  H2  UNL     1     -11.190   6.465  70.074  1.00  0.00     0.000 HD 
HETATM    5  C   UNL     1     -10.361   6.054  67.612  1.00  0.00    -0.258 A  
HETATM    6  C   UNL     1      -9.624   6.102  66.409  1.00  0.00    -0.162 A  
HETATM    7  C   UNL     1      -9.250   7.325  65.856  1.00  0.00    -0.004 A  
HETATM    8  C   UNL     1      -9.634   8.463  66.536  1.00  0.00    -0.304 A  
HETATM    9  C   UNL     1     -10.336   8.417  67.729  1.00  0.00    -0.297 A  
HETATM   10  C   UNL     1     -10.536   9.803  68.164  1.00  0.00    -0.216 C  
HETATM   11  N   UNL     1      -9.981  10.605  67.203  1.00  0.00    -0.189 N  
HETATM   12  O   UNL     1     -11.055  10.132  69.215  1.00  0.00    -0.225 OA 
HETATM   13  C   UNL     1      -9.426   9.866  66.195  1.00  0.00    -0.200 C  
HETATM   14  O   UNL     1      -8.843  10.249  65.201  1.00  0.00    -0.164 OA 
ENDROOT
BRANCH  11  15
HETATM   15  C   UNL     1     -10.001  12.058  67.188  1.00  0.00    -0.195 C  
HETATM   16  C   UNL     1      -9.780  12.715  68.546  1.00  0.00    -0.131 C  
HETATM   17  C   UNL     1      -9.642  14.218  68.339  1.00  0.00    -0.221 C  
HETATM   18  C   UNL     1     -10.838  14.790  67.607  1.00  0.00    -0.285 C  
HETATM   19  O   UNL     1     -11.207  15.949  67.762  1.00  0.00    -0.326 OA 
HETATM   20  N   UNL     1     -11.475  13.959  66.717  1.00  0.00    -0.336 N  
HETATM   21  H   UNL     1     -12.150  14.396  66.088  1.00  0.00     0.000 HD 
HETATM   22  C   UNL     1     -11.300  12.597  66.583  1.00  0.00    -0.326 C  
HETATM   23  O   UNL     1     -12.125  11.912  65.985  1.00  0.00    -0.500 OA 
ENDBRANCH  11  15
TORSDOF 1
ENDMDL
MODEL      108
REMARK 921   NORMALIZED FREE ENERGY PREDICTED BY IDOCK:   -4.68 KCAL/MOL
REMARK 922        TOTAL FREE ENERGY PREDICTED BY IDOCK:   -5.00 KCAL/MOL
REMARK 923 INTER-LIGAND FREE ENERGY PREDICTED BY IDOCK:   -4.91 KCAL/MOL
REMARK 924 INTRA-LIGAND FREE ENERGY PREDICTED BY IDOCK:   -0.09 KCAL/MOL
REMARK 927      BINDING AFFINITY PREDICTED BY RF-SCORE:    0.00 PKD
ROOT
HETATM    1  N   UNL     1      -7.705   9.379  69.798  1.00  0.00    -0.097 NA 
HETATM    2  C   UNL     1      -7.343  10.719  69.663  1.00  0.00    -0.103 A  
HETATM    3  H1  UNL     1      -8.540   9.024  69.332  1.00  0.00     0.000 HD 
HETATM    4  H2  UNL     1      -7.774   9.164  70.792  1.00  0.00     0.000 HD 
HETATM    5  C   UNL     1      -6.193  11.207  70.303  1.00  0.00    -0.134 A  
HETATM    6  C   UNL     1      -5.704  12.509  70.064  1.00  0.00    -0.140 A  
HETATM    7  C   UNL     1      -6.327  13.342  69.136  1.00  0.00    -0.102 A  
HETATM    8  C   UNL     1      -7.427  12.831  68.477  1.00  0.00    -0.120 A  
HETATM    9  C   UNL     1      -7.923  11.562  68.728  1.00  0.00    -0.107 A  
HETATM   10  C   UNL     1      -9.100  11.384  67.873  1.00  0.00    -0.164 C  
HETATM   11  N   UNL     1      -9.230  12.529  67.132  1.00  0.00    -0.198 N  
HETATM   12  O   UNL     1      -9.828  10.408  67.888  1.00  0.00    -0.151 OA 
HETATM   13  C   UNL     1      -8.256  13.437  67.441  1.00  0.00    -0.183 C  
HETATM   14  O   UNL     1      -8.083  14.552  66.991  1.00  0.00    -0.191 OA 
ENDROOT
BRANCH  11  15
HETATM   15  C   UNL     1     -10.227  12.770  66.102  1.00  0.00    -0.275 C  
HETATM   16  C   UNL     1     -11.673  12.705  66.583  1.00  0.00    -0.464 C  
HETATM   17  C   UNL     1     -12.580  13.159  65.447  1.00  0.00    -0.512 C  
HETATM   18  C   UNL     1     -12.349  12.344  64.191  1.00  0.00    -0.467 C  
HETATM   19  O   UNL     1     -13.233  12.157  63.361  1.00  0.00    -0.689 OA 
HETATM   20  N   UNL     1     -11.081  11.853  63.995  1.00  0.00    -0.360 N  
HETATM   21  H   UNL     1     -10.876  11.476  63.070  1.00  0.00     0.000 HD 
HETATM   22  C   UNL     1     -10.055  11.816  64.917  1.00  0.00    -0.259 C  
HETATM   23  O   UNL     1      -9.080  11.090  64.745  1.00  0.00    -0.196 OA 
ENDBRANCH  11  15
TORSDOF 1
ENDMDL
MODEL      109
REMARK 921   NORMALIZED FREE ENERGY PREDICTED BY IDOCK:   -4.65 KCAL/MOL
REMARK 922        TOTAL FREE ENERGY PREDICTED BY IDOCK:   -4.96 KCAL/MOL
REMARK 923 INTER-LIGAND FREE ENERGY PREDICTED BY IDOCK:   -4.82 KCAL/MOL
REMARK 924 INTRA-LIGAND FREE ENERGY PREDICTED BY IDOCK:   -0.14 KCAL/MOL
REMARK 927      BINDING AFFINITY PREDICTED BY RF-SCORE:    0.00 PKD
ROOT
HETATM    1  N   UNL     1      -8.328   3.454  70.872  1.00  0.00    -0.064 NA 
HETATM    2  C   UNL     1      -9.456   3.895  71.564  1.00  0.00    -0.155 A  
HETATM    3  H1  UNL     1      -7.957   4.000  70.095  1.00  0.00     0.000 HD 
HETATM    4  H2  UNL     1      -8.503   2.504  70.544  1.00  0.00     0.000 HD 
HETATM    5  C   UNL     1      -9.966   3.144  72.634  1.00  0.00    -0.219 A  
HETATM    6  C   UNL     1     -11.002   3.631  73.459  1.00  0.00    -0.333 A  
HETATM    7  C   UNL     1     -11.522   4.910  73.264  1.00  0.00    -0.359 A  
HETATM    8  C   UNL     1     -10.977   5.657  72.239  1.00  0.00    -0.312 A  
HETATM    9  C   UNL     1      -9.977   5.170  71.413  1.00  0.00    -0.252 A  
HETATM   10  C   UNL     1      -9.677   6.222  70.436  1.00  0.00    -0.165 C  
HETATM   11  N   UNL     1     -10.478   7.290  70.744  1.00  0.00    -0.211 N  
HETATM   12  O   UNL     1      -8.895   6.106  69.511  1.00  0.00    -0.128 OA 
HETATM   13  C   UNL     1     -11.280   7.020  71.818  1.00  0.00    -0.246 C  
HETATM   14  O   UNL     1     -12.114   7.729  72.343  1.00  0.00    -0.304 OA 
ENDROOT
BRANCH  11  15
HETATM   15  C   UNL     1     -10.474   8.580  70.075  1.00  0.00    -0.223 C  
HETATM   16  C   UNL     1     -10.495   8.512  68.551  1.00  0.00    -0.205 C  
HETATM   17  C   UNL     1     -10.677   9.923  68.007  1.00  0.00    -0.296 C  
HETATM   18  C   UNL     1      -9.609  10.861  68.530  1.00  0.00    -0.187 C  
HETATM   19  O   UNL     1      -9.232  11.841  67.895  1.00  0.00    -0.168 OA 
HETATM   20  N   UNL     1      -9.104  10.592  69.779  1.00  0.00    -0.397 N  
HETATM   21  H   UNL     1      -8.536  11.322  70.208  1.00  0.00     0.000 HD 
HETATM   22  C   UNL     1      -9.285   9.439  70.515  1.00  0.00    -0.259 C  
HETATM   23  O   UNL     1      -8.552   9.176  71.465  1.00  0.00    -0.339 OA 
ENDBRANCH  11  15
TORSDOF 1
ENDMDL
MODEL      110
REMARK 921   NORMALIZED FREE ENERGY PREDICTED BY IDOCK:   -4.63 KCAL/MOL
REMARK 922        TOTAL FREE ENERGY PREDICTED BY IDOCK:   -4.95 KCAL/MOL
REMARK 923 INTER-LIGAND FREE ENERGY PREDICTED BY IDOCK:   -4.81 KCAL/MOL
REMARK 924 INTRA-LIGAND FREE ENERGY PREDICTED BY IDOCK:   -0.14 KCAL/MOL
REMARK 927      BINDING AFFINITY PREDICTED BY RF-SCORE:    0.00 PKD
ROOT
HETATM    1  N   UNL     1      -7.422  10.012  70.873  1.00  0.00    -0.354 NA 
HETATM    2  C   UNL     1      -7.966   8.903  70.227  1.00  0.00    -0.115 A  
HETATM    3  H1  UNL     1      -7.445  10.929  70.427  1.00  0.00     0.000 HD 
HETATM    4  H2  UNL     1      -6.455   9.798  71.118  1.00  0.00     0.000 HD 
HETATM    5  C   UNL     1      -7.935   7.641  70.841  1.00  0.00    -0.094 A  
HETATM    6  C   UNL     1      -8.614   6.531  70.297  1.00  0.00    -0.136 A  
HETATM    7  C   UNL     1      -9.387   6.666  69.145  1.00  0.00    -0.134 A  
HETATM    8  C   UNL     1      -9.451   7.924  68.579  1.00  0.00    -0.148 A  
HETATM    9  C   UNL     1      -8.765   9.010  69.099  1.00  0.00    -0.135 A  
HETATM   10  C   UNL     1      -9.047  10.154  68.225  1.00  0.00    -0.122 C  
HETATM   11  N   UNL     1      -9.908   9.711  67.256  1.00  0.00    -0.166 N  
HETATM   12  O   UNL     1      -8.547  11.257  68.345  1.00  0.00    -0.143 OA 
HETATM   13  C   UNL     1     -10.195   8.383  67.412  1.00  0.00    -0.260 C  
HETATM   14  O   UNL     1     -10.903   7.672  66.729  1.00  0.00    -0.274 OA 
ENDROOT
BRANCH  11  15
HETATM   15  C   UNL     1     -10.504  10.523  66.209  1.00  0.00    -0.183 C  
HETATM   16  C   UNL     1      -9.507  11.293  65.349  1.00  0.00    -0.251 C  
HETATM   17  C   UNL     1     -10.262  11.938  64.194  1.00  0.00    -0.364 C  
HETATM   18  C   UNL     1     -11.394  12.812  64.691  1.00  0.00    -0.321 C  
HETATM   19  O   UNL     1     -11.795  13.784  64.059  1.00  0.00    -0.413 OA 
HETATM   20  N   UNL     1     -11.991  12.443  65.872  1.00  0.00    -0.416 N  
HETATM   21  H   UNL     1     -12.868  12.909  66.105  1.00  0.00     0.000 HD 
HETATM   22  C   UNL     1     -11.531  11.507  66.776  1.00  0.00    -0.157 C  
HETATM   23  O   UNL     1     -11.965  11.475  67.924  1.00  0.00    -0.618 OA 
ENDBRANCH  11  15
TORSDOF 1
ENDMDL
MODEL      111
REMARK 921   NORMALIZED FREE ENERGY PREDICTED BY IDOCK:   -4.62 KCAL/MOL
REMARK 922        TOTAL FREE ENERGY PREDICTED BY IDOCK:   -4.93 KCAL/MOL
REMARK 923 INTER-LIGAND FREE ENERGY PREDICTED BY IDOCK:   -4.86 KCAL/MOL
REMARK 924 INTRA-LIGAND FREE ENERGY PREDICTED BY IDOCK:   -0.07 KCAL/MOL
REMARK 927      BINDING AFFINITY PREDICTED BY RF-SCORE:    0.00 PKD
ROOT
HETATM    1  N   UNL     1     -12.435  14.324  68.582  1.00  0.00    -0.516 NA 
HETATM    2  C   UNL     1     -11.204  14.239  67.934  1.00  0.00    -0.285 A  
HETATM    3  H1  UNL     1     -12.966  13.478  68.787  1.00  0.00     0.000 HD 
HETATM    4  H2  UNL     1     -13.034  14.959  68.053  1.00  0.00     0.000 HD 
HETATM    5  C   UNL     1     -10.473  15.404  67.652  1.00  0.00    -0.272 A  
HETATM    6  C   UNL     1      -9.156  15.353  67.146  1.00  0.00    -0.236 A  
HETATM    7  C   UNL     1      -8.516  14.130  66.955  1.00  0.00    -0.178 A  
HETATM    8  C   UNL     1      -9.229  12.993  67.284  1.00  0.00    -0.213 A  
HETATM    9  C   UNL     1     -10.529  13.041  67.758  1.00  0.00    -0.232 A  
HETATM   10  C   UNL     1     -10.962  11.655  67.966  1.00  0.00    -0.224 C  
HETATM   11  N   UNL     1      -9.898  10.855  67.644  1.00  0.00    -0.169 N  
HETATM   12  O   UNL     1     -12.081  11.322  68.309  1.00  0.00    -0.619 OA 
HETATM   13  C   UNL     1      -8.824  11.593  67.232  1.00  0.00    -0.164 C  
HETATM   14  O   UNL     1      -7.733  11.210  66.861  1.00  0.00    -0.134 OA 
ENDROOT
BRANCH  11  15
HETATM   15  C   UNL     1      -9.854   9.407  67.760  1.00  0.00    -0.170 C  
HETATM   16  C   UNL     1     -10.878   8.664  66.908  1.00  0.00     0.029 C  
HETATM   17  C   UNL     1     -10.586   7.172  66.992  1.00  0.00    -0.413 C  
HETATM   18  C   UNL     1     -10.568   6.690  68.428  1.00  0.00    -0.242 C  
HETATM   19  O   UNL     1     -10.859   5.538  68.734  1.00  0.00    -0.195 OA 
HETATM   20  N   UNL     1     -10.166   7.594  69.381  1.00  0.00    -0.201 N  
HETATM   21  H   UNL     1      -9.968   7.220  70.310  1.00  0.00     0.000 HD 
HETATM   22  C   UNL     1     -10.000   8.954  69.216  1.00  0.00    -0.192 C  
HETATM   23  O   UNL     1      -9.940   9.704  70.186  1.00  0.00    -0.230 OA 
ENDBRANCH  11  15
TORSDOF 1
ENDMDL
MODEL      112
REMARK 921   NORMALIZED FREE ENERGY PREDICTED BY IDOCK:   -4.62 KCAL/MOL
REMARK 922        TOTAL FREE ENERGY PREDICTED BY IDOCK:   -4.93 KCAL/MOL
REMARK 923 INTER-LIGAND FREE ENERGY PREDICTED BY IDOCK:   -4.87 KCAL/MOL
REMARK 924 INTRA-LIGAND FREE ENERGY PREDICTED BY IDOCK:   -0.06 KCAL/MOL
REMARK 927      BINDING AFFINITY PREDICTED BY RF-SCORE:    0.00 PKD
ROOT
HETATM    1  N   UNL     1     -10.844   4.684  65.823  1.00  0.00    -0.766 NA 
HETATM    2  C   UNL     1      -9.658   5.414  65.885  1.00  0.00    -0.096 A  
HETATM    3  H1  UNL     1     -11.579   4.840  66.513  1.00  0.00     0.000 HD 
HETATM    4  H2  UNL     1     -10.611   3.691  65.820  1.00  0.00     0.000 HD 
HETATM    5  C   UNL     1      -8.647   5.199  64.935  1.00  0.00    -0.151 A  
HETATM    6  C   UNL     1      -7.504   6.024  64.865  1.00  0.00    -0.082 A  
HETATM    7  C   UNL     1      -7.366   7.120  65.715  1.00  0.00    -0.075 A  
HETATM    8  C   UNL     1      -8.392   7.350  66.610  1.00  0.00    -0.124 A  
HETATM    9  C   UNL     1      -9.503   6.527  66.697  1.00  0.00    -0.193 A  
HETATM   10  C   UNL     1     -10.350   7.061  67.767  1.00  0.00    -0.202 C  
HETATM   11  N   UNL     1      -9.730   8.186  68.241  1.00  0.00    -0.157 N  
HETATM   12  O   UNL     1     -11.377   6.540  68.164  1.00  0.00    -0.225 OA 
HETATM   13  C   UNL     1      -8.553   8.420  67.588  1.00  0.00    -0.130 C  
HETATM   14  O   UNL     1      -7.748   9.313  67.762  1.00  0.00    -0.088 OA 
ENDROOT
BRANCH  11  15
HETATM   15  C   UNL     1     -10.246   9.077  69.268  1.00  0.00    -0.205 C  
HETATM   16  C   UNL     1     -10.949   8.378  70.427  1.00  0.00    -0.249 C  
HETATM   17  C   UNL     1     -11.262   9.415  71.498  1.00  0.00    -0.457 C  
HETATM   18  C   UNL     1     -12.072  10.565  70.937  1.00  0.00    -0.383 C  
HETATM   19  O   UNL     1     -12.847  11.217  71.629  1.00  0.00    -0.427 OA 
HETATM   20  N   UNL     1     -11.868  10.881  69.616  1.00  0.00    -0.318 N  
HETATM   21  H   UNL     1     -12.261  11.765  69.292  1.00  0.00     0.000 HD 
HETATM   22  C   UNL     1     -11.189  10.130  68.679  1.00  0.00    -0.168 C  
HETATM   23  O   UNL     1     -11.327  10.345  67.478  1.00  0.00    -0.374 OA 
ENDBRANCH  11  15
TORSDOF 1
ENDMDL
MODEL      113
REMARK 921   NORMALIZED FREE ENERGY PREDICTED BY IDOCK:   -4.61 KCAL/MOL
REMARK 922        TOTAL FREE ENERGY PREDICTED BY IDOCK:   -4.92 KCAL/MOL
REMARK 923 INTER-LIGAND FREE ENERGY PREDICTED BY IDOCK:   -4.80 KCAL/MOL
REMARK 924 INTRA-LIGAND FREE ENERGY PREDICTED BY IDOCK:   -0.12 KCAL/MOL
REMARK 927      BINDING AFFINITY PREDICTED BY RF-SCORE:    0.00 PKD
ROOT
HETATM    1  N   UNL     1     -13.200  10.075  71.003  1.00  0.00    -0.490 NA 
HETATM    2  C   UNL     1     -12.090   9.348  71.430  1.00  0.00    -0.363 A  
HETATM    3  H1  UNL     1     -13.184  10.554  70.103  1.00  0.00     0.000 HD 
HETATM    4  H2  UNL     1     -13.437  10.755  71.726  1.00  0.00     0.000 HD 
HETATM    5  C   UNL     1     -12.113   8.687  72.669  1.00  0.00    -0.267 A  
HETATM    6  C   UNL     1     -11.079   7.813  73.066  1.00  0.00    -0.419 A  
HETATM    7  C   UNL     1     -10.015   7.537  72.209  1.00  0.00    -0.226 A  
HETATM    8  C   UNL     1     -10.031   8.154  70.974  1.00  0.00    -0.220 A  
HETATM    9  C   UNL     1     -11.032   9.031  70.592  1.00  0.00    -0.308 A  
HETATM   10  C   UNL     1     -10.699   9.504  69.245  1.00  0.00    -0.222 C  
HETATM   11  N   UNL     1      -9.545   8.867  68.874  1.00  0.00    -0.158 N  
HETATM   12  O   UNL     1     -11.328  10.346  68.630  1.00  0.00    -0.256 OA 
HETATM   13  C   UNL     1      -9.092   8.038  69.863  1.00  0.00    -0.145 C  
HETATM   14  O   UNL     1      -8.099   7.340  69.877  1.00  0.00    -0.122 OA 
ENDROOT
BRANCH  11  15
HETATM   15  C   UNL     1      -8.880   8.985  67.587  1.00  0.00    -0.124 C  
HETATM   16  C   UNL     1      -8.479  10.405  67.202  1.00  0.00    -0.126 C  
HETATM   17  C   UNL     1      -7.637  10.342  65.934  1.00  0.00    -0.134 C  
HETATM   18  C   UNL     1      -8.367   9.623  64.818  1.00  0.00    -0.151 C  
HETATM   19  O   UNL     1      -8.159   9.871  63.635  1.00  0.00    -0.137 OA 
HETATM   20  N   UNL     1      -9.250   8.638  65.189  1.00  0.00    -0.431 N  
HETATM   21  H   UNL     1      -9.592   8.028  64.446  1.00  0.00     0.000 HD 
HETATM   22  C   UNL     1      -9.725   8.386  66.460  1.00  0.00    -0.260 C  
HETATM   23  O   UNL     1     -10.727   7.698  66.633  1.00  0.00    -0.239 OA 
ENDBRANCH  11  15
TORSDOF 1
ENDMDL
MODEL      114
REMARK 921   NORMALIZED FREE ENERGY PREDICTED BY IDOCK:   -4.59 KCAL/MOL
REMARK 922        TOTAL FREE ENERGY PREDICTED BY IDOCK:   -4.91 KCAL/MOL
REMARK 923 INTER-LIGAND FREE ENERGY PREDICTED BY IDOCK:   -5.00 KCAL/MOL
REMARK 924 INTRA-LIGAND FREE ENERGY PREDICTED BY IDOCK:    0.09 KCAL/MOL
REMARK 927      BINDING AFFINITY PREDICTED BY RF-SCORE:    0.00 PKD
ROOT
HETATM    1  N   UNL     1     -10.317  13.924  69.284  1.00  0.00    -0.435 NA 
HETATM    2  C   UNL     1     -10.975  13.691  68.077  1.00  0.00    -0.250 A  
HETATM    3  H1  UNL     1      -9.702  13.213  69.678  1.00  0.00     0.000 HD 
HETATM    4  H2  UNL     1     -11.014  14.173  69.986  1.00  0.00     0.000 HD 
HETATM    5  C   UNL     1     -11.822  14.670  67.533  1.00  0.00    -0.375 A  
HETATM    6  C   UNL     1     -12.377  14.541  66.242  1.00  0.00    -0.211 A  
HETATM    7  C   UNL     1     -12.058  13.448  65.439  1.00  0.00    -0.457 A  
HETATM    8  C   UNL     1     -11.185  12.518  65.966  1.00  0.00    -0.354 A  
HETATM    9  C   UNL     1     -10.658  12.631  67.242  1.00  0.00    -0.244 A  
HETATM   10  C   UNL     1      -9.807  11.457  67.461  1.00  0.00    -0.178 C  
HETATM   11  N   UNL     1      -9.836  10.724  66.304  1.00  0.00    -0.207 N  
HETATM   12  O   UNL     1      -9.242  11.195  68.507  1.00  0.00    -0.172 OA 
HETATM   13  C   UNL     1     -10.640  11.306  65.364  1.00  0.00    -0.250 C  
HETATM   14  O   UNL     1     -10.904  10.921  64.243  1.00  0.00    -0.309 OA 
ENDROOT
BRANCH  11  15
HETATM   15  C   UNL     1      -9.085   9.506  66.046  1.00  0.00    -0.176 C  
HETATM   16  C   UNL     1      -8.619   9.335  64.604  1.00  0.00    -0.209 C  
HETATM   17  C   UNL     1      -7.698   8.124  64.535  1.00  0.00    -0.121 C  
HETATM   18  C   UNL     1      -8.373   6.881  65.077  1.00  0.00    -0.049 C  
HETATM   19  O   UNL     1      -8.081   5.756  64.687  1.00  0.00    -0.123 OA 
HETATM   20  N   UNL     1      -9.307   7.065  66.068  1.00  0.00    -0.379 N  
HETATM   21  H   UNL     1      -9.616   6.229  66.565  1.00  0.00     0.000 HD 
HETATM   22  C   UNL     1      -9.871   8.260  66.464  1.00  0.00    -0.253 C  
HETATM   23  O   UNL     1     -10.902   8.280  67.131  1.00  0.00    -0.244 OA 
ENDBRANCH  11  15
TORSDOF 1
ENDMDL
MODEL      115
REMARK 921   NORMALIZED FREE ENERGY PREDICTED BY IDOCK:   -4.58 KCAL/MOL
REMARK 922        TOTAL FREE ENERGY PREDICTED BY IDOCK:   -4.89 KCAL/MOL
REMARK 923 INTER-LIGAND FREE ENERGY PREDICTED BY IDOCK:   -4.76 KCAL/MOL
REMARK 924 INTRA-LIGAND FREE ENERGY PREDICTED BY IDOCK:   -0.13 KCAL/MOL
REMARK 927      BINDING AFFINITY PREDICTED BY RF-SCORE:    0.00 PKD
ROOT
HETATM    1  N   UNL     1      -6.155   6.953  72.268  1.00  0.00    -0.041 NA 
HETATM    2  C   UNL     1      -6.970   6.225  71.402  1.00  0.00    -0.076 A  
HETATM    3  H1  UNL     1      -6.414   7.901  72.542  1.00  0.00     0.000 HD 
HETATM    4  H2  UNL     1      -5.212   6.977  71.879  1.00  0.00     0.000 HD 
HETATM    5  C   UNL     1      -6.613   4.921  71.026  1.00  0.00    -0.031 A  
HETATM    6  C   UNL     1      -7.485   4.095  70.284  1.00  0.00    -0.045 A  
HETATM    7  C   UNL     1      -8.761   4.537  69.942  1.00  0.00    -0.108 A  
HETATM    8  C   UNL     1      -9.118   5.803  70.362  1.00  0.00    -0.160 A  
HETATM    9  C   UNL     1      -8.255   6.624  71.068  1.00  0.00    -0.120 A  
HETATM   10  C   UNL     1      -8.963   7.885  71.310  1.00  0.00    -0.135 C  
HETATM   11  N   UNL     1     -10.216   7.747  70.773  1.00  0.00    -0.197 N  
HETATM   12  O   UNL     1      -8.474   8.864  71.844  1.00  0.00    -0.348 OA 
HETATM   13  C   UNL     1     -10.377   6.520  70.193  1.00  0.00    -0.201 C  
HETATM   14  O   UNL     1     -11.347   6.072  69.615  1.00  0.00    -0.411 OA 
ENDROOT
BRANCH  11  15
HETATM   15  C   UNL     1     -11.284   8.730  70.835  1.00  0.00    -0.270 C  
HETATM   16  C   UNL     1     -10.860  10.157  70.502  1.00  0.00    -0.340 C  
HETATM   17  C   UNL     1     -12.109  11.026  70.427  1.00  0.00    -0.463 C  
HETATM   18  C   UNL     1     -12.920  10.945  71.703  1.00  0.00    -0.464 C  
HETATM   19  O   UNL     1     -13.629  11.870  72.087  1.00  0.00    -0.377 OA 
HETATM   20  N   UNL     1     -12.864   9.763  72.400  1.00  0.00    -0.352 N  
HETATM   21  H   UNL     1     -13.551   9.638  73.143  1.00  0.00     0.000 HD 
HETATM   22  C   UNL     1     -11.976   8.725  72.201  1.00  0.00    -0.366 C  
HETATM   23  O   UNL     1     -11.811   7.864  73.060  1.00  0.00    -0.247 OA 
ENDBRANCH  11  15
TORSDOF 1
ENDMDL
MODEL      116
REMARK 921   NORMALIZED FREE ENERGY PREDICTED BY IDOCK:   -4.56 KCAL/MOL
REMARK 922        TOTAL FREE ENERGY PREDICTED BY IDOCK:   -4.87 KCAL/MOL
REMARK 923 INTER-LIGAND FREE ENERGY PREDICTED BY IDOCK:   -4.83 KCAL/MOL
REMARK 924 INTRA-LIGAND FREE ENERGY PREDICTED BY IDOCK:   -0.04 KCAL/MOL
REMARK 927      BINDING AFFINITY PREDICTED BY RF-SCORE:    0.00 PKD
ROOT
HETATM    1  N   UNL     1     -11.049   8.682  67.230  1.00  0.00    -0.289 NA 
HETATM    2  C   UNL     1      -9.895   9.294  67.717  1.00  0.00    -0.171 A  
HETATM    3  H1  UNL     1     -11.870   9.242  67.002  1.00  0.00     0.000 HD 
HETATM    4  H2  UNL     1     -11.328   7.953  67.887  1.00  0.00     0.000 HD 
HETATM    5  C   UNL     1      -8.765   8.523  68.029  1.00  0.00    -0.142 A  
HETATM    6  C   UNL     1      -7.530   9.116  68.369  1.00  0.00    -0.082 A  
HETATM    7  C   UNL     1      -7.380  10.501  68.357  1.00  0.00    -0.086 A  
HETATM    8  C   UNL     1      -8.486  11.247  67.999  1.00  0.00    -0.138 A  
HETATM    9  C   UNL     1      -9.706  10.667  67.688  1.00  0.00    -0.186 A  
HETATM   10  C   UNL     1     -10.637  11.760  67.392  1.00  0.00    -0.224 C  
HETATM   11  N   UNL     1      -9.929  12.927  67.503  1.00  0.00    -0.212 N  
HETATM   12  O   UNL     1     -11.821  11.616  67.150  1.00  0.00    -0.608 OA 
HETATM   13  C   UNL     1      -8.630  12.691  67.860  1.00  0.00    -0.181 C  
HETATM   14  O   UNL     1      -7.738  13.490  68.059  1.00  0.00    -0.115 OA 
ENDROOT
BRANCH  11  15
HETATM   15  C   UNL     1     -10.436  14.263  67.234  1.00  0.00    -0.269 C  
HETATM   16  C   UNL     1      -9.523  15.134  66.377  1.00  0.00    -0.325 C  
HETATM   17  C   UNL     1     -10.268  16.417  66.031  1.00  0.00    -0.373 C  
HETATM   18  C   UNL     1     -10.750  17.132  67.276  1.00  0.00    -0.208 C  
HETATM   19  O   UNL     1     -10.900  18.349  67.314  1.00  0.00    -0.389 OA 
HETATM   20  N   UNL     1     -11.061  16.348  68.360  1.00  0.00    -0.356 N  
HETATM   21  H   UNL     1     -11.564  16.802  69.123  1.00  0.00     0.000 HD 
HETATM   22  C   UNL     1     -10.764  15.011  68.529  1.00  0.00    -0.244 C  
HETATM   23  O   UNL     1     -10.807  14.491  69.640  1.00  0.00    -0.229 OA 
ENDBRANCH  11  15
TORSDOF 1
ENDMDL
MODEL      117
REMARK 921   NORMALIZED FREE ENERGY PREDICTED BY IDOCK:   -4.51 KCAL/MOL
REMARK 922        TOTAL FREE ENERGY PREDICTED BY IDOCK:   -4.82 KCAL/MOL
REMARK 923 INTER-LIGAND FREE ENERGY PREDICTED BY IDOCK:   -4.80 KCAL/MOL
REMARK 924 INTRA-LIGAND FREE ENERGY PREDICTED BY IDOCK:   -0.02 KCAL/MOL
REMARK 927      BINDING AFFINITY PREDICTED BY RF-SCORE:    0.00 PKD
ROOT
HETATM    1  N   UNL     1      -6.730  17.040  66.502  1.00  0.00    -0.235 NA 
HETATM    2  C   UNL     1      -7.896  17.403  67.174  1.00  0.00    -0.202 A  
HETATM    3  H1  UNL     1      -6.515  16.056  66.342  1.00  0.00     0.000 HD 
HETATM    4  H2  UNL     1      -5.937  17.469  66.980  1.00  0.00     0.000 HD 
HETATM    5  C   UNL     1      -8.192  18.757  67.393  1.00  0.00    -0.278 A  
HETATM    6  C   UNL     1      -9.432  19.173  67.923  1.00  0.00    -0.381 A  
HETATM    7  C   UNL     1     -10.432  18.242  68.201  1.00  0.00    -0.359 A  
HETATM    8  C   UNL     1     -10.147  16.918  67.933  1.00  0.00    -0.288 A  
HETATM    9  C   UNL     1      -8.921  16.507  67.436  1.00  0.00    -0.207 A  
HETATM   10  C   UNL     1      -8.977  15.047  67.309  1.00  0.00    -0.199 C  
HETATM   11  N   UNL     1     -10.233  14.662  67.698  1.00  0.00    -0.232 N  
HETATM   12  O   UNL     1      -8.043  14.344  66.969  1.00  0.00    -0.177 OA 
HETATM   13  C   UNL     1     -10.988  15.736  68.080  1.00  0.00    -0.330 C  
HETATM   14  O   UNL     1     -12.130  15.756  68.492  1.00  0.00    -0.233 OA 
ENDROOT
BRANCH  11  15
HETATM   15  C   UNL     1     -10.755  13.306  67.674  1.00  0.00    -0.239 C  
HETATM   16  C   UNL     1     -10.036  12.327  68.596  1.00  0.00    -0.153 C  
HETATM   17  C   UNL     1     -10.808  11.014  68.601  1.00  0.00    -0.256 C  
HETATM   18  C   UNL     1     -10.984  10.467  67.200  1.00  0.00    -0.228 C  
HETATM   19  O   UNL     1     -11.092   9.266  66.975  1.00  0.00     0.017 OA 
HETATM   20  N   UNL     1     -11.063  11.386  66.182  1.00  0.00    -0.247 N  
HETATM   21  H   UNL     1     -11.373  11.037  65.274  1.00  0.00     0.000 HD 
HETATM   22  C   UNL     1     -10.768  12.732  66.255  1.00  0.00    -0.270 C  
HETATM   23  O   UNL     1     -10.575  13.391  65.237  1.00  0.00    -0.301 OA 
ENDBRANCH  11  15
TORSDOF 1
ENDMDL
MODEL      118
REMARK 921   NORMALIZED FREE ENERGY PREDICTED BY IDOCK:   -4.49 KCAL/MOL
REMARK 922        TOTAL FREE ENERGY PREDICTED BY IDOCK:   -4.80 KCAL/MOL
REMARK 923 INTER-LIGAND FREE ENERGY PREDICTED BY IDOCK:   -4.66 KCAL/MOL
REMARK 924 INTRA-LIGAND FREE ENERGY PREDICTED BY IDOCK:   -0.14 KCAL/MOL
REMARK 927      BINDING AFFINITY PREDICTED BY RF-SCORE:    0.00 PKD
ROOT
HETATM    1  N   UNL     1      -9.138   9.091  65.403  1.00  0.00    -0.299 NA 
HETATM    2  C   UNL     1      -8.198   9.122  66.432  1.00  0.00    -0.114 A  
HETATM    3  H1  UNL     1     -10.122   8.925  65.612  1.00  0.00     0.000 HD 
HETATM    4  H2  UNL     1      -8.835   8.405  64.712  1.00  0.00     0.000 HD 
HETATM    5  C   UNL     1      -6.843   9.352  66.145  1.00  0.00    -0.085 A  
HETATM    6  C   UNL     1      -5.888   9.551  67.165  1.00  0.00    -0.052 A  
HETATM    7  C   UNL     1      -6.275   9.575  68.504  1.00  0.00    -0.048 A  
HETATM    8  C   UNL     1      -7.619   9.398  68.770  1.00  0.00    -0.079 A  
HETATM    9  C   UNL     1      -8.553   9.178  67.771  1.00  0.00    -0.121 A  
HETATM   10  C   UNL     1      -9.853   9.008  68.428  1.00  0.00    -0.166 C  
HETATM   11  N   UNL     1      -9.642   9.168  69.773  1.00  0.00    -0.173 N  
HETATM   12  O   UNL     1     -10.889   8.726  67.855  1.00  0.00    -0.151 OA 
HETATM   13  C   UNL     1      -8.324   9.409  70.046  1.00  0.00    -0.180 C  
HETATM   14  O   UNL     1      -7.789   9.581  71.122  1.00  0.00    -0.326 OA 
ENDROOT
BRANCH  11  15
HETATM   15  C   UNL     1     -10.664   9.144  70.805  1.00  0.00    -0.263 C  
HETATM   16  C   UNL     1     -11.521   7.883  70.829  1.00  0.00    -0.273 C  
HETATM   17  C   UNL     1     -12.408   7.925  72.067  1.00  0.00    -0.346 C  
HETATM   18  C   UNL     1     -13.239   9.190  72.112  1.00  0.00    -0.458 C  
HETATM   19  O   UNL     1     -14.331   9.236  72.668  1.00  0.00    -0.497 OA 
HETATM   20  N   UNL     1     -12.693  10.311  71.534  1.00  0.00    -0.414 N  
HETATM   21  H   UNL     1     -13.157  11.198  71.732  1.00  0.00     0.000 HD 
HETATM   22  C   UNL     1     -11.584  10.365  70.716  1.00  0.00    -0.358 C  
HETATM   23  O   UNL     1     -11.365  11.350  70.014  1.00  0.00    -0.260 OA 
ENDBRANCH  11  15
TORSDOF 1
ENDMDL
MODEL      119
REMARK 921   NORMALIZED FREE ENERGY PREDICTED BY IDOCK:   -4.48 KCAL/MOL
REMARK 922        TOTAL FREE ENERGY PREDICTED BY IDOCK:   -4.79 KCAL/MOL
REMARK 923 INTER-LIGAND FREE ENERGY PREDICTED BY IDOCK:   -5.18 KCAL/MOL
REMARK 924 INTRA-LIGAND FREE ENERGY PREDICTED BY IDOCK:    0.39 KCAL/MOL
REMARK 927      BINDING AFFINITY PREDICTED BY RF-SCORE:    0.00 PKD
ROOT
HETATM    1  N   UNL     1     -13.014  13.520  71.506  1.00  0.00    -0.360 NA 
HETATM    2  C   UNL     1     -12.201  13.192  70.422  1.00  0.00    -0.316 A  
HETATM    3  H1  UNL     1     -12.864  14.391  72.015  1.00  0.00     0.000 HD 
HETATM    4  H2  UNL     1     -12.987  12.749  72.173  1.00  0.00     0.000 HD 
HETATM    5  C   UNL     1     -12.407  11.993  69.722  1.00  0.00    -0.112 A  
HETATM    6  C   UNL     1     -11.715  11.700  68.527  1.00  0.00    -0.378 A  
HETATM    7  C   UNL     1     -10.832  12.626  67.973  1.00  0.00    -0.249 A  
HETATM    8  C   UNL     1     -10.677  13.822  68.646  1.00  0.00    -0.270 A  
HETATM    9  C   UNL     1     -11.336  14.100  69.831  1.00  0.00    -0.232 A  
HETATM   10  C   UNL     1     -10.904  15.434  70.260  1.00  0.00    -0.311 C  
HETATM   11  N   UNL     1     -10.043  15.900  69.302  1.00  0.00    -0.232 N  
HETATM   12  O   UNL     1     -11.231  15.968  71.304  1.00  0.00    -0.345 OA 
HETATM   13  C   UNL     1      -9.865  14.984  68.302  1.00  0.00    -0.219 C  
HETATM   14  O   UNL     1      -9.164  15.061  67.314  1.00  0.00    -0.190 OA 
ENDROOT
BRANCH  11  15
HETATM   15  C   UNL     1      -9.416  17.211  69.282  1.00  0.00     0.025 C  
HETATM   16  C   UNL     1      -9.925  18.148  68.191  1.00  0.00    -0.368 C  
HETATM   17  C   UNL     1      -9.317  19.526  68.417  1.00  0.00    -0.431 C  
HETATM   18  C   UNL     1      -7.805  19.464  68.467  1.00  0.00    -0.354 C  
HETATM   19  O   UNL     1      -7.100  20.412  68.135  1.00  0.00    -0.284 OA 
HETATM   20  N   UNL     1      -7.247  18.305  68.949  1.00  0.00    -0.285 N  
HETATM   21  H   UNL     1      -6.251  18.333  69.165  1.00  0.00     0.000 HD 
HETATM   22  C   UNL     1      -7.892  17.105  69.172  1.00  0.00    -0.063 C  
HETATM   23  O   UNL     1      -7.257  16.063  69.306  1.00  0.00    -0.205 OA 
ENDBRANCH  11  15
TORSDOF 1
ENDMDL
MODEL      120
REMARK 921   NORMALIZED FREE ENERGY PREDICTED BY IDOCK:   -4.47 KCAL/MOL
REMARK 922        TOTAL FREE ENERGY PREDICTED BY IDOCK:   -4.77 KCAL/MOL
REMARK 923 INTER-LIGAND FREE ENERGY PREDICTED BY IDOCK:   -4.66 KCAL/MOL
REMARK 924 INTRA-LIGAND FREE ENERGY PREDICTED BY IDOCK:   -0.11 KCAL/MOL
REMARK 927      BINDING AFFINITY PREDICTED BY RF-SCORE:    0.00 PKD
ROOT
HETATM    1  N   UNL     1      -5.612   8.403  71.488  1.00  0.00    -0.034 NA 
HETATM    2  C   UNL     1      -6.130   8.288  70.198  1.00  0.00    -0.031 A  
HETATM    3  H1  UNL     1      -6.219   8.674  72.261  1.00  0.00     0.000 HD 
HETATM    4  H2  UNL     1      -4.820   9.045  71.460  1.00  0.00     0.000 HD 
HETATM    5  C   UNL     1      -5.295   7.914  69.133  1.00  0.00    -0.026 A  
HETATM    6  C   UNL     1      -5.807   7.630  67.849  1.00  0.00    -0.036 A  
HETATM    7  C   UNL     1      -7.180   7.664  67.610  1.00  0.00    -0.087 A  
HETATM    8  C   UNL     1      -7.994   7.983  68.678  1.00  0.00    -0.123 A  
HETATM    9  C   UNL     1      -7.490   8.286  69.933  1.00  0.00    -0.065 A  
HETATM   10  C   UNL     1      -8.637   8.600  70.791  1.00  0.00    -0.171 C  
HETATM   11  N   UNL     1      -9.762   8.436  70.027  1.00  0.00    -0.175 N  
HETATM   12  O   UNL     1      -8.556   8.981  71.945  1.00  0.00    -0.361 OA 
HETATM   13  C   UNL     1      -9.448   8.063  68.750  1.00  0.00    -0.147 C  
HETATM   14  O   UNL     1     -10.192   7.850  67.814  1.00  0.00    -0.190 OA 
ENDROOT
BRANCH  11  15
HETATM   15  C   UNL     1     -11.134   8.580  70.486  1.00  0.00    -0.244 C  
HETATM   16  C   UNL     1     -11.473   9.947  71.073  1.00  0.00    -0.466 C  
HETATM   17  C   UNL     1     -12.973  10.002  71.330  1.00  0.00    -0.517 C  
HETATM   18  C   UNL     1     -13.427   8.862  72.218  1.00  0.00    -0.455 C  
HETATM   19  O   UNL     1     -14.403   8.956  72.955  1.00  0.00    -0.548 OA 
HETATM   20  N   UNL     1     -12.718   7.689  72.130  1.00  0.00    -0.490 N  
HETATM   21  H   UNL     1     -13.135   6.870  72.574  1.00  0.00     0.000 HD 
HETATM   22  C   UNL     1     -11.503   7.498  71.505  1.00  0.00    -0.265 C  
HETATM   23  O   UNL     1     -10.819   6.507  71.745  1.00  0.00    -0.227 OA 
ENDBRANCH  11  15
TORSDOF 1
ENDMDL
MODEL      121
REMARK 921   NORMALIZED FREE ENERGY PREDICTED BY IDOCK:   -4.47 KCAL/MOL
REMARK 922        TOTAL FREE ENERGY PREDICTED BY IDOCK:   -4.77 KCAL/MOL
REMARK 923 INTER-LIGAND FREE ENERGY PREDICTED BY IDOCK:   -4.69 KCAL/MOL
REMARK 924 INTRA-LIGAND FREE ENERGY PREDICTED BY IDOCK:   -0.08 KCAL/MOL
REMARK 927      BINDING AFFINITY PREDICTED BY RF-SCORE:    0.00 PKD
ROOT
HETATM    1  N   UNL     1      -8.314   8.405  64.104  1.00  0.00    -0.337 NA 
HETATM    2  C   UNL     1      -8.911   7.971  65.287  1.00  0.00     0.045 A  
HETATM    3  H1  UNL     1      -8.494   9.345  63.753  1.00  0.00     0.000 HD 
HETATM    4  H2  UNL     1      -8.540   7.737  63.367  1.00  0.00     0.000 HD 
HETATM    5  C   UNL     1      -8.662   6.677  65.770  1.00  0.00    -0.126 A  
HETATM    6  C   UNL     1      -9.115   6.256  67.039  1.00  0.00    -0.125 A  
HETATM    7  C   UNL     1      -9.787   7.140  67.882  1.00  0.00    -0.170 A  
HETATM    8  C   UNL     1      -9.980   8.425  67.415  1.00  0.00    -0.274 A  
HETATM    9  C   UNL     1      -9.558   8.832  66.160  1.00  0.00    -0.323 A  
HETATM   10  C   UNL     1      -9.959  10.234  66.006  1.00  0.00    -0.245 C  
HETATM   11  N   UNL     1     -10.564  10.605  67.178  1.00  0.00    -0.245 N  
HETATM   12  O   UNL     1      -9.811  10.891  64.991  1.00  0.00    -0.239 OA 
HETATM   13  C   UNL     1     -10.605   9.569  68.068  1.00  0.00    -0.230 C  
HETATM   14  O   UNL     1     -11.079   9.543  69.186  1.00  0.00    -0.171 OA 
ENDROOT
BRANCH  11  15
HETATM   15  C   UNL     1     -11.064  11.932  67.497  1.00  0.00    -0.273 C  
HETATM   16  C   UNL     1     -11.781  12.639  66.350  1.00  0.00    -0.466 C  
HETATM   17  C   UNL     1     -12.404  13.921  66.888  1.00  0.00    -0.331 C  
HETATM   18  C   UNL     1     -11.370  14.803  67.556  1.00  0.00    -0.344 C  
HETATM   19  O   UNL     1     -11.483  16.023  67.601  1.00  0.00    -0.182 OA 
HETATM   20  N   UNL     1     -10.309  14.169  68.156  1.00  0.00    -0.234 N  
HETATM   21  H   UNL     1      -9.722  14.739  68.766  1.00  0.00     0.000 HD 
HETATM   22  C   UNL     1      -9.951  12.843  68.021  1.00  0.00    -0.236 C  
HETATM   23  O   UNL     1      -8.831  12.457  68.343  1.00  0.00    -0.182 OA 
ENDBRANCH  11  15
TORSDOF 1
ENDMDL
MODEL      122
REMARK 921   NORMALIZED FREE ENERGY PREDICTED BY IDOCK:   -4.46 KCAL/MOL
REMARK 922        TOTAL FREE ENERGY PREDICTED BY IDOCK:   -4.76 KCAL/MOL
REMARK 923 INTER-LIGAND FREE ENERGY PREDICTED BY IDOCK:   -4.79 KCAL/MOL
REMARK 924 INTRA-LIGAND FREE ENERGY PREDICTED BY IDOCK:    0.02 KCAL/MOL
REMARK 927      BINDING AFFINITY PREDICTED BY RF-SCORE:    0.00 PKD
ROOT
HETATM    1  N   UNL     1     -12.143   7.117  72.395  1.00  0.00    -0.488 NA 
HETATM    2  C   UNL     1     -11.244   6.790  71.381  1.00  0.00    -0.268 A  
HETATM    3  H1  UNL     1     -12.388   8.091  72.570  1.00  0.00     0.000 HD 
HETATM    4  H2  UNL     1     -11.806   6.709  73.267  1.00  0.00     0.000 HD 
HETATM    5  C   UNL     1     -10.907   5.449  71.140  1.00  0.00    -0.188 A  
HETATM    6  C   UNL     1     -10.131   5.064  70.026  1.00  0.00    -0.342 A  
HETATM    7  C   UNL     1      -9.712   6.010  69.092  1.00  0.00    -0.168 A  
HETATM    8  C   UNL     1     -10.093   7.319  69.314  1.00  0.00    -0.183 A  
HETATM    9  C   UNL     1     -10.834   7.702  70.420  1.00  0.00    -0.252 A  
HETATM   10  C   UNL     1     -11.017   9.154  70.332  1.00  0.00    -0.248 C  
HETATM   11  N   UNL     1     -10.415   9.561  69.171  1.00  0.00    -0.205 N  
HETATM   12  O   UNL     1     -11.563   9.837  71.180  1.00  0.00    -0.331 OA 
HETATM   13  C   UNL     1      -9.844   8.510  68.509  1.00  0.00    -0.173 C  
HETATM   14  O   UNL     1      -9.221   8.513  67.467  1.00  0.00    -0.132 OA 
ENDROOT
BRANCH  11  15
HETATM   15  C   UNL     1     -10.403  10.916  68.646  1.00  0.00    -0.191 C  
HETATM   16  C   UNL     1     -11.000  11.067  67.251  1.00  0.00    -0.356 C  
HETATM   17  C   UNL     1     -11.087  12.551  66.921  1.00  0.00    -0.323 C  
HETATM   18  C   UNL     1      -9.739  13.228  67.050  1.00  0.00    -0.238 C  
HETATM   19  O   UNL     1      -9.438  14.217  66.389  1.00  0.00    -0.280 OA 
HETATM   20  N   UNL     1      -8.871  12.711  67.981  1.00  0.00    -0.188 N  
HETATM   21  H   UNL     1      -8.052  13.276  68.205  1.00  0.00     0.000 HD 
HETATM   22  C   UNL     1      -8.991  11.508  68.647  1.00  0.00    -0.112 C  
HETATM   23  O   UNL     1      -8.026  11.004  69.215  1.00  0.00    -0.121 OA 
ENDBRANCH  11  15
TORSDOF 1
ENDMDL
MODEL      123
REMARK 921   NORMALIZED FREE ENERGY PREDICTED BY IDOCK:   -4.44 KCAL/MOL
REMARK 922        TOTAL FREE ENERGY PREDICTED BY IDOCK:   -4.74 KCAL/MOL
REMARK 923 INTER-LIGAND FREE ENERGY PREDICTED BY IDOCK:   -4.62 KCAL/MOL
REMARK 924 INTRA-LIGAND FREE ENERGY PREDICTED BY IDOCK:   -0.12 KCAL/MOL
REMARK 927      BINDING AFFINITY PREDICTED BY RF-SCORE:    0.00 PKD
ROOT
HETATM    1  N   UNL     1      -9.513   6.927  68.945  1.00  0.00    -0.137 NA 
HETATM    2  C   UNL     1      -8.527   7.911  68.993  1.00  0.00    -0.131 A  
HETATM    3  H1  UNL     1     -10.406   7.117  68.491  1.00  0.00     0.000 HD 
HETATM    4  H2  UNL     1      -9.697   6.610  69.898  1.00  0.00     0.000 HD 
HETATM    5  C   UNL     1      -7.297   7.649  69.618  1.00  0.00    -0.089 A  
HETATM    6  C   UNL     1      -6.218   8.556  69.547  1.00  0.00    -0.036 A  
HETATM    7  C   UNL     1      -6.325   9.731  68.805  1.00  0.00    -0.046 A  
HETATM    8  C   UNL     1      -7.523   9.952  68.154  1.00  0.00    -0.080 A  
HETATM    9  C   UNL     1      -8.591   9.074  68.242  1.00  0.00    -0.130 A  
HETATM   10  C   UNL     1      -9.686   9.650  67.454  1.00  0.00    -0.156 C  
HETATM   11  N   UNL     1      -9.213  10.814  66.908  1.00  0.00    -0.155 N  
HETATM   12  O   UNL     1     -10.804   9.177  67.371  1.00  0.00    -0.243 OA 
HETATM   13  C   UNL     1      -7.920  11.053  67.284  1.00  0.00    -0.126 C  
HETATM   14  O   UNL     1      -7.205  11.992  67.000  1.00  0.00    -0.143 OA 
ENDROOT
BRANCH  11  15
HETATM   15  C   UNL     1      -9.938  11.688  66.000  1.00  0.00    -0.228 C  
HETATM   16  C   UNL     1     -11.264  12.213  66.540  1.00  0.00    -0.378 C  
HETATM   17  C   UNL     1     -11.806  13.249  65.563  1.00  0.00    -0.405 C  
HETATM   18  C   UNL     1     -11.934  12.681  64.165  1.00  0.00    -0.426 C  
HETATM   19  O   UNL     1     -12.768  13.093  63.366  1.00  0.00    -0.697 OA 
HETATM   20  N   UNL     1     -11.036  11.703  63.809  1.00  0.00    -0.399 N  
HETATM   21  H   UNL     1     -10.995  11.461  62.819  1.00  0.00     0.000 HD 
HETATM   22  C   UNL     1     -10.185  11.014  64.648  1.00  0.00    -0.330 C  
HETATM   23  O   UNL     1      -9.657   9.965  64.287  1.00  0.00    -0.282 OA 
ENDBRANCH  11  15
TORSDOF 1
ENDMDL
MODEL      124
REMARK 921   NORMALIZED FREE ENERGY PREDICTED BY IDOCK:   -4.42 KCAL/MOL
REMARK 922        TOTAL FREE ENERGY PREDICTED BY IDOCK:   -4.72 KCAL/MOL
REMARK 923 INTER-LIGAND FREE ENERGY PREDICTED BY IDOCK:   -4.71 KCAL/MOL
REMARK 924 INTRA-LIGAND FREE ENERGY PREDICTED BY IDOCK:   -0.01 KCAL/MOL
REMARK 927      BINDING AFFINITY PREDICTED BY RF-SCORE:    0.00 PKD
ROOT
HETATM    1  N   UNL     1      -8.948   9.037  65.012  1.00  0.00    -0.352 NA 
HETATM    2  C   UNL     1      -9.670   9.127  66.201  1.00  0.00    -0.287 A  
HETATM    3  H1  UNL     1      -8.728   9.879  64.480  1.00  0.00     0.000 HD 
HETATM    4  H2  UNL     1      -9.427   8.382  64.394  1.00  0.00     0.000 HD 
HETATM    5  C   UNL     1      -9.972   7.968  66.933  1.00  0.00    -0.338 A  
HETATM    6  C   UNL     1     -10.558   8.028  68.216  1.00  0.00    -0.155 A  
HETATM    7  C   UNL     1     -10.811   9.257  68.823  1.00  0.00    -0.123 A  
HETATM    8  C   UNL     1     -10.463  10.389  68.113  1.00  0.00    -0.221 A  
HETATM    9  C   UNL     1      -9.911  10.331  66.844  1.00  0.00    -0.244 A  
HETATM   10  C   UNL     1      -9.705  11.714  66.402  1.00  0.00    -0.214 C  
HETATM   11  N   UNL     1     -10.106  12.524  67.431  1.00  0.00    -0.209 N  
HETATM   12  O   UNL     1      -9.301  12.037  65.299  1.00  0.00    -0.098 OA 
HETATM   13  C   UNL     1     -10.567  11.794  68.490  1.00  0.00    -0.217 C  
HETATM   14  O   UNL     1     -11.011  12.186  69.551  1.00  0.00    -0.119 OA 
ENDROOT
BRANCH  11  15
HETATM   15  C   UNL     1     -10.022  13.975  67.458  1.00  0.00    -0.236 C  
HETATM   16  C   UNL     1      -9.567  14.566  68.788  1.00  0.00    -0.193 C  
HETATM   17  C   UNL     1      -9.350  16.062  68.603  1.00  0.00    -0.214 C  
HETATM   18  C   UNL     1     -10.591  16.740  68.062  1.00  0.00    -0.347 C  
HETATM   19  O   UNL     1     -10.848  17.916  68.298  1.00  0.00    -0.289 OA 
HETATM   20  N   UNL     1     -11.404  15.989  67.249  1.00  0.00    -0.045 N  
HETATM   21  H   UNL     1     -12.125  16.493  66.733  1.00  0.00     0.000 HD 
HETATM   22  C   UNL     1     -11.349  14.624  67.056  1.00  0.00    -0.355 C  
HETATM   23  O   UNL     1     -12.297  14.019  66.562  1.00  0.00    -0.457 OA 
ENDBRANCH  11  15
TORSDOF 1
ENDMDL
MODEL      125
REMARK 921   NORMALIZED FREE ENERGY PREDICTED BY IDOCK:   -4.41 KCAL/MOL
REMARK 922        TOTAL FREE ENERGY PREDICTED BY IDOCK:   -4.71 KCAL/MOL
REMARK 923 INTER-LIGAND FREE ENERGY PREDICTED BY IDOCK:   -4.68 KCAL/MOL
REMARK 924 INTRA-LIGAND FREE ENERGY PREDICTED BY IDOCK:   -0.03 KCAL/MOL
REMARK 927      BINDING AFFINITY PREDICTED BY RF-SCORE:    0.00 PKD
ROOT
HETATM    1  N   UNL     1     -11.051  12.733  65.169  1.00  0.00    -0.285 NA 
HETATM    2  C   UNL     1     -10.200  12.686  66.272  1.00  0.00    -0.251 A  
HETATM    3  H1  UNL     1     -11.252  13.622  64.713  1.00  0.00     0.000 HD 
HETATM    4  H2  UNL     1     -11.936  12.296  65.428  1.00  0.00     0.000 HD 
HETATM    5  C   UNL     1      -9.923  11.462  66.900  1.00  0.00    -0.235 A  
HETATM    6  C   UNL     1      -8.946  11.348  67.912  1.00  0.00    -0.153 A  
HETATM    7  C   UNL     1      -8.183  12.451  68.289  1.00  0.00    -0.170 A  
HETATM    8  C   UNL     1      -8.430  13.638  67.629  1.00  0.00    -0.183 A  
HETATM    9  C   UNL     1      -9.406  13.757  66.652  1.00  0.00    -0.277 A  
HETATM   10  C   UNL     1      -9.398  15.154  66.206  1.00  0.00    -0.313 C  
HETATM   11  N   UNL     1      -8.405  15.789  66.904  1.00  0.00    -0.224 N  
HETATM   12  O   UNL     1     -10.180  15.630  65.403  1.00  0.00    -0.358 OA 
HETATM   13  C   UNL     1      -7.781  14.936  67.772  1.00  0.00    -0.161 C  
HETATM   14  O   UNL     1      -6.877  15.167  68.548  1.00  0.00    -0.102 OA 
ENDROOT
BRANCH  11  15
HETATM   15  C   UNL     1      -7.998  17.174  66.739  1.00  0.00    -0.235 C  
HETATM   16  C   UNL     1      -6.509  17.377  66.473  1.00  0.00    -0.269 C  
HETATM   17  C   UNL     1      -6.274  18.844  66.140  1.00  0.00    -0.216 C  
HETATM   18  C   UNL     1      -6.796  19.753  67.233  1.00  0.00    -0.210 C  
HETATM   19  O   UNL     1      -6.307  20.856  67.456  1.00  0.00    -0.266 OA 
HETATM   20  N   UNL     1      -7.882  19.304  67.946  1.00  0.00    -0.281 N  
HETATM   21  H   UNL     1      -8.350  19.988  68.543  1.00  0.00     0.000 HD 
HETATM   22  C   UNL     1      -8.406  18.029  67.942  1.00  0.00    -0.248 C  
HETATM   23  O   UNL     1      -9.168  17.658  68.831  1.00  0.00    -0.241 OA 
ENDBRANCH  11  15
TORSDOF 1
ENDMDL
MODEL      126
REMARK 921   NORMALIZED FREE ENERGY PREDICTED BY IDOCK:   -4.41 KCAL/MOL
REMARK 922        TOTAL FREE ENERGY PREDICTED BY IDOCK:   -4.71 KCAL/MOL
REMARK 923 INTER-LIGAND FREE ENERGY PREDICTED BY IDOCK:   -4.62 KCAL/MOL
REMARK 924 INTRA-LIGAND FREE ENERGY PREDICTED BY IDOCK:   -0.09 KCAL/MOL
REMARK 927      BINDING AFFINITY PREDICTED BY RF-SCORE:    0.00 PKD
ROOT
HETATM    1  N   UNL     1      -6.470  13.102  68.487  1.00  0.00    -0.077 NA 
HETATM    2  C   UNL     1      -7.790  13.492  68.261  1.00  0.00    -0.145 A  
HETATM    3  H1  UNL     1      -6.252  12.130  68.702  1.00  0.00     0.000 HD 
HETATM    4  H2  UNL     1      -6.083  13.690  69.226  1.00  0.00     0.000 HD 
HETATM    5  C   UNL     1      -8.090  14.831  67.965  1.00  0.00    -0.140 A  
HETATM    6  C   UNL     1      -9.384  15.235  67.573  1.00  0.00    -0.204 A  
HETATM    7  C   UNL     1     -10.404  14.297  67.419  1.00  0.00    -0.259 A  
HETATM    8  C   UNL     1     -10.082  12.977  67.665  1.00  0.00    -0.217 A  
HETATM    9  C   UNL     1      -8.818  12.582  68.073  1.00  0.00    -0.187 A  
HETATM   10  C   UNL     1      -8.863  11.129  68.263  1.00  0.00    -0.155 C  
HETATM   11  N   UNL     1     -10.128  10.723  67.928  1.00  0.00    -0.169 N  
HETATM   12  O   UNL     1      -7.943  10.456  68.690  1.00  0.00    -0.102 OA 
HETATM   13  C   UNL     1     -10.910  11.781  67.556  1.00  0.00    -0.239 C  
HETATM   14  O   UNL     1     -12.075  11.785  67.216  1.00  0.00    -0.595 OA 
ENDROOT
BRANCH  11  15
HETATM   15  C   UNL     1     -10.606   9.350  67.907  1.00  0.00    -0.237 C  
HETATM   16  C   UNL     1     -10.130   8.489  69.072  1.00  0.00    -0.207 C  
HETATM   17  C   UNL     1     -10.858   7.151  69.011  1.00  0.00    -0.172 C  
HETATM   18  C   UNL     1     -10.662   6.473  67.671  1.00  0.00    -0.307 C  
HETATM   19  O   UNL     1     -10.690   5.253  67.545  1.00  0.00    -0.142 OA 
HETATM   20  N   UNL     1     -10.493   7.292  66.581  1.00  0.00    -0.506 N  
HETATM   21  H   UNL     1     -10.556   6.849  65.663  1.00  0.00     0.000 HD 
HETATM   22  C   UNL     1     -10.247   8.650  66.593  1.00  0.00    -0.273 C  
HETATM   23  O   UNL     1      -9.811   9.221  65.597  1.00  0.00    -0.289 OA 
ENDBRANCH  11  15
TORSDOF 1
ENDMDL
MODEL      127
REMARK 921   NORMALIZED FREE ENERGY PREDICTED BY IDOCK:   -4.39 KCAL/MOL
REMARK 922        TOTAL FREE ENERGY PREDICTED BY IDOCK:   -4.69 KCAL/MOL
REMARK 923 INTER-LIGAND FREE ENERGY PREDICTED BY IDOCK:   -4.66 KCAL/MOL
REMARK 924 INTRA-LIGAND FREE ENERGY PREDICTED BY IDOCK:   -0.04 KCAL/MOL
REMARK 927      BINDING AFFINITY PREDICTED BY RF-SCORE:    0.00 PKD
ROOT
HETATM    1  N   UNL     1      -8.273   6.650  66.044  1.00  0.00    -0.122 NA 
HETATM    2  C   UNL     1      -7.746   6.781  67.328  1.00  0.00    -0.109 A  
HETATM    3  H1  UNL     1      -9.279   6.720  65.893  1.00  0.00     0.000 HD 
HETATM    4  H2  UNL     1      -7.949   5.765  65.652  1.00  0.00     0.000 HD 
HETATM    5  C   UNL     1      -6.361   6.685  67.536  1.00  0.00    -0.044 A  
HETATM    6  C   UNL     1      -5.774   6.970  68.787  1.00  0.00    -0.018 A  
HETATM    7  C   UNL     1      -6.556   7.409  69.854  1.00  0.00    -0.043 A  
HETATM    8  C   UNL     1      -7.910   7.547  69.622  1.00  0.00    -0.119 A  
HETATM    9  C   UNL     1      -8.491   7.244  68.401  1.00  0.00    -0.125 A  
HETATM   10  C   UNL     1      -9.931   7.482  68.540  1.00  0.00    -0.168 C  
HETATM   11  N   UNL     1     -10.137   7.946  69.812  1.00  0.00    -0.195 N  
HETATM   12  O   UNL     1     -10.759   7.248  67.679  1.00  0.00    -0.237 OA 
HETATM   13  C   UNL     1      -8.965   8.014  70.514  1.00  0.00    -0.152 C  
HETATM   14  O   UNL     1      -8.785   8.362  71.663  1.00  0.00    -0.149 OA 
ENDROOT
BRANCH  11  15
HETATM   15  C   UNL     1     -11.409   8.372  70.370  1.00  0.00    -0.172 C  
HETATM   16  C   UNL     1     -11.358   9.676  71.159  1.00  0.00    -0.456 C  
HETATM   17  C   UNL     1     -12.783  10.082  71.514  1.00  0.00    -0.532 C  
HETATM   18  C   UNL     1     -13.503   8.980  72.263  1.00  0.00    -0.475 C  
HETATM   19  O   UNL     1     -14.402   9.214  73.064  1.00  0.00    -0.439 OA 
HETATM   20  N   UNL     1     -13.136   7.689  71.970  1.00  0.00    -0.490 N  
HETATM   21  H   UNL     1     -13.746   6.950  72.322  1.00  0.00     0.000 HD 
HETATM   22  C   UNL     1     -12.030   7.284  71.251  1.00  0.00    -0.324 C  
HETATM   23  O   UNL     1     -11.630   6.125  71.310  1.00  0.00    -0.290 OA 
ENDBRANCH  11  15
TORSDOF 1
ENDMDL
MODEL      128
REMARK 921   NORMALIZED FREE ENERGY PREDICTED BY IDOCK:   -4.38 KCAL/MOL
REMARK 922        TOTAL FREE ENERGY PREDICTED BY IDOCK:   -4.68 KCAL/MOL
REMARK 923 INTER-LIGAND FREE ENERGY PREDICTED BY IDOCK:   -4.65 KCAL/MOL
REMARK 924 INTRA-LIGAND FREE ENERGY PREDICTED BY IDOCK:   -0.03 KCAL/MOL
REMARK 927      BINDING AFFINITY PREDICTED BY RF-SCORE:    0.00 PKD
ROOT
HETATM    1  N   UNL     1     -12.726  14.782  69.793  1.00  0.00    -0.592 NA 
HETATM    2  C   UNL     1     -11.751  14.657  68.805  1.00  0.00    -0.324 A  
HETATM    3  H1  UNL     1     -13.033  13.963  70.318  1.00  0.00     0.000 HD 
HETATM    4  H2  UNL     1     -13.547  15.226  69.381  1.00  0.00     0.000 HD 
HETATM    5  C   UNL     1     -11.329  15.784  68.083  1.00  0.00    -0.337 A  
HETATM    6  C   UNL     1     -10.236  15.731  67.191  1.00  0.00    -0.279 A  
HETATM    7  C   UNL     1      -9.503  14.555  67.036  1.00  0.00    -0.247 A  
HETATM    8  C   UNL     1      -9.898  13.468  67.790  1.00  0.00    -0.233 A  
HETATM    9  C   UNL     1     -10.985  13.512  68.647  1.00  0.00    -0.289 A  
HETATM   10  C   UNL     1     -11.115  12.179  69.244  1.00  0.00    -0.167 C  
HETATM   11  N   UNL     1     -10.089  11.420  68.748  1.00  0.00    -0.206 N  
HETATM   12  O   UNL     1     -12.013  11.839  69.993  1.00  0.00    -0.321 OA 
HETATM   13  C   UNL     1      -9.317  12.133  67.873  1.00  0.00    -0.192 C  
HETATM   14  O   UNL     1      -8.345  11.770  67.244  1.00  0.00    -0.147 OA 
ENDROOT
BRANCH  11  15
HETATM   15  C   UNL     1      -9.789  10.046  69.115  1.00  0.00    -0.205 C  
HETATM   16  C   UNL     1      -8.357   9.806  69.582  1.00  0.00    -0.180 C  
HETATM   17  C   UNL     1      -8.252   8.378  70.104  1.00  0.00    -0.117 C  
HETATM   18  C   UNL     1      -8.698   7.373  69.063  1.00  0.00    -0.133 C  
HETATM   19  O   UNL     1      -8.256   6.229  69.027  1.00  0.00    -0.111 OA 
HETATM   20  N   UNL     1      -9.664   7.785  68.177  1.00  0.00    -0.151 N  
HETATM   21  H   UNL     1     -10.101   7.059  67.609  1.00  0.00     0.000 HD 
HETATM   22  C   UNL     1     -10.107   9.075  67.975  1.00  0.00    -0.190 C  
HETATM   23  O   UNL     1     -10.737   9.374  66.964  1.00  0.00    -0.229 OA 
ENDBRANCH  11  15
TORSDOF 1
ENDMDL
MODEL      129
REMARK 921   NORMALIZED FREE ENERGY PREDICTED BY IDOCK:   -4.38 KCAL/MOL
REMARK 922        TOTAL FREE ENERGY PREDICTED BY IDOCK:   -4.67 KCAL/MOL
REMARK 923 INTER-LIGAND FREE ENERGY PREDICTED BY IDOCK:   -4.57 KCAL/MOL
REMARK 924 INTRA-LIGAND FREE ENERGY PREDICTED BY IDOCK:   -0.10 KCAL/MOL
REMARK 927      BINDING AFFINITY PREDICTED BY RF-SCORE:    0.00 PKD
ROOT
HETATM    1  N   UNL     1      -7.928  11.945  66.479  1.00  0.00    -0.378 NA 
HETATM    2  C   UNL     1      -8.982  12.261  67.337  1.00  0.00    -0.183 A  
HETATM    3  H1  UNL     1      -7.495  11.023  66.517  1.00  0.00     0.000 HD 
HETATM    4  H2  UNL     1      -7.199  12.649  66.594  1.00  0.00     0.000 HD 
HETATM    5  C   UNL     1      -9.578  13.530  67.284  1.00  0.00    -0.235 A  
HETATM    6  C   UNL     1     -10.745  13.836  68.017  1.00  0.00    -0.260 A  
HETATM    7  C   UNL     1     -11.376  12.859  68.786  1.00  0.00    -0.333 A  
HETATM    8  C   UNL     1     -10.807  11.601  68.789  1.00  0.00    -0.262 A  
HETATM    9  C   UNL     1      -9.648  11.307  68.089  1.00  0.00    -0.186 A  
HETATM   10  C   UNL     1      -9.334   9.899  68.352  1.00  0.00    -0.133 C  
HETATM   11  N   UNL     1     -10.329   9.413  69.159  1.00  0.00    -0.205 N  
HETATM   12  O   UNL     1      -8.338   9.324  67.953  1.00  0.00    -0.115 OA 
HETATM   13  C   UNL     1     -11.248  10.381  69.455  1.00  0.00    -0.269 C  
HETATM   14  O   UNL     1     -12.240  10.303  70.151  1.00  0.00    -0.249 OA 
ENDROOT
BRANCH  11  15
HETATM   15  C   UNL     1     -10.460   8.042  69.622  1.00  0.00    -0.224 C  
HETATM   16  C   UNL     1      -9.278   7.526  70.437  1.00  0.00    -0.157 C  
HETATM   17  C   UNL     1      -9.642   6.159  71.001  1.00  0.00    -0.194 C  
HETATM   18  C   UNL     1     -10.055   5.197  69.906  1.00  0.00    -0.272 C  
HETATM   19  O   UNL     1      -9.901   3.985  70.009  1.00  0.00    -0.210 OA 
HETATM   20  N   UNL     1     -10.657   5.742  68.798  1.00  0.00    -0.248 N  
HETATM   21  H   UNL     1     -11.106   5.088  68.155  1.00  0.00     0.000 HD 
HETATM   22  C   UNL     1     -10.719   7.078  68.460  1.00  0.00    -0.179 C  
HETATM   23  O   UNL     1     -11.002   7.427  67.317  1.00  0.00    -0.280 OA 
ENDBRANCH  11  15
TORSDOF 1
ENDMDL
MODEL      130
REMARK 921   NORMALIZED FREE ENERGY PREDICTED BY IDOCK:   -4.35 KCAL/MOL
REMARK 922        TOTAL FREE ENERGY PREDICTED BY IDOCK:   -4.65 KCAL/MOL
REMARK 923 INTER-LIGAND FREE ENERGY PREDICTED BY IDOCK:   -4.53 KCAL/MOL
REMARK 924 INTRA-LIGAND FREE ENERGY PREDICTED BY IDOCK:   -0.12 KCAL/MOL
REMARK 927      BINDING AFFINITY PREDICTED BY RF-SCORE:    0.00 PKD
ROOT
HETATM    1  N   UNL     1      -9.834   3.551  70.994  1.00  0.00    -0.146 NA 
HETATM    2  C   UNL     1      -9.329   4.197  72.122  1.00  0.00    -0.127 A  
HETATM    3  H1  UNL     1     -10.449   4.049  70.351  1.00  0.00     0.000 HD 
HETATM    4  H2  UNL     1     -10.306   2.699  71.297  1.00  0.00     0.000 HD 
HETATM    5  C   UNL     1      -8.482   3.512  73.008  1.00  0.00    -0.082 A  
HETATM    6  C   UNL     1      -7.823   4.171  74.068  1.00  0.00    -0.084 A  
HETATM    7  C   UNL     1      -7.956   5.548  74.239  1.00  0.00    -0.105 A  
HETATM    8  C   UNL     1      -8.751   6.217  73.330  1.00  0.00    -0.126 A  
HETATM    9  C   UNL     1      -9.418   5.568  72.304  1.00  0.00    -0.163 A  
HETATM   10  C   UNL     1     -10.177   6.587  71.573  1.00  0.00    -0.192 C  
HETATM   11  N   UNL     1      -9.903   7.790  72.168  1.00  0.00    -0.177 N  
HETATM   12  O   UNL     1     -10.938   6.357  70.651  1.00  0.00    -0.259 OA 
HETATM   13  C   UNL     1      -9.050   7.641  73.227  1.00  0.00    -0.215 C  
HETATM   14  O   UNL     1      -8.615   8.488  73.980  1.00  0.00    -0.245 OA 
ENDROOT
BRANCH  11  15
HETATM   15  C   UNL     1     -10.391   9.088  71.734  1.00  0.00    -0.337 C  
HETATM   16  C   UNL     1     -11.910   9.215  71.677  1.00  0.00    -0.443 C  
HETATM   17  C   UNL     1     -12.263  10.669  71.390  1.00  0.00    -0.405 C  
HETATM   18  C   UNL     1     -11.592  11.164  70.126  1.00  0.00    -0.323 C  
HETATM   19  O   UNL     1     -12.079  12.051  69.433  1.00  0.00    -0.274 OA 
HETATM   20  N   UNL     1     -10.379  10.605  69.808  1.00  0.00    -0.425 N  
HETATM   21  H   UNL     1      -9.841  11.068  69.075  1.00  0.00     0.000 HD 
HETATM   22  C   UNL     1      -9.810   9.482  70.373  1.00  0.00    -0.271 C  
HETATM   23  O   UNL     1      -8.886   8.895  69.816  1.00  0.00    -0.135 OA 
ENDBRANCH  11  15
TORSDOF 1
ENDMDL
MODEL      131
REMARK 921   NORMALIZED FREE ENERGY PREDICTED BY IDOCK:   -4.35 KCAL/MOL
REMARK 922        TOTAL FREE ENERGY PREDICTED BY IDOCK:   -4.64 KCAL/MOL
REMARK 923 INTER-LIGAND FREE ENERGY PREDICTED BY IDOCK:   -4.66 KCAL/MOL
REMARK 924 INTRA-LIGAND FREE ENERGY PREDICTED BY IDOCK:    0.02 KCAL/MOL
REMARK 927      BINDING AFFINITY PREDICTED BY RF-SCORE:    0.00 PKD
ROOT
HETATM    1  N   UNL     1     -12.628  12.125  63.790  1.00  0.00    -0.671 NA 
HETATM    2  C   UNL     1     -12.070  12.676  64.942  1.00  0.00    -0.438 A  
HETATM    3  H1  UNL     1     -12.197  11.311  63.351  1.00  0.00     0.000 HD 
HETATM    4  H2  UNL     1     -12.712  12.862  63.089  1.00  0.00     0.000 HD 
HETATM    5  C   UNL     1     -12.663  13.796  65.547  1.00  0.00    -0.530 A  
HETATM    6  C   UNL     1     -12.228  14.285  66.797  1.00  0.00    -0.384 A  
HETATM    7  C   UNL     1     -11.217  13.633  67.502  1.00  0.00    -0.316 A  
HETATM    8  C   UNL     1     -10.678  12.503  66.919  1.00  0.00    -0.268 A  
HETATM    9  C   UNL     1     -11.087  12.036  65.680  1.00  0.00    -0.361 A  
HETATM   10  C   UNL     1     -10.278  10.851  65.380  1.00  0.00    -0.277 C  
HETATM   11  N   UNL     1      -9.457  10.646  66.457  1.00  0.00    -0.166 N  
HETATM   12  O   UNL     1     -10.322  10.228  64.335  1.00  0.00    -0.235 OA 
HETATM   13  C   UNL     1      -9.649  11.599  67.419  1.00  0.00    -0.166 C  
HETATM   14  O   UNL     1      -9.084  11.728  68.486  1.00  0.00    -0.190 OA 
ENDROOT
BRANCH  11  15
HETATM   15  C   UNL     1      -8.526   9.543  66.623  1.00  0.00    -0.133 C  
HETATM   16  C   UNL     1      -8.450   8.975  68.037  1.00  0.00    -0.125 C  
HETATM   17  C   UNL     1      -7.585   7.722  68.008  1.00  0.00    -0.120 C  
HETATM   18  C   UNL     1      -6.217   8.005  67.423  1.00  0.00    -0.055 C  
HETATM   19  O   UNL     1      -5.224   7.359  67.742  1.00  0.00    -0.022 OA 
HETATM   20  N   UNL     1      -6.140   8.998  66.477  1.00  0.00    -0.062 N  
HETATM   21  H   UNL     1      -5.270   9.057  65.947  1.00  0.00     0.000 HD 
HETATM   22  C   UNL     1      -7.115   9.924  66.166  1.00  0.00    -0.103 C  
HETATM   23  O   UNL     1      -6.839  10.942  65.538  1.00  0.00    -0.036 OA 
ENDBRANCH  11  15
TORSDOF 1
ENDMDL
MODEL      132
REMARK 921   NORMALIZED FREE ENERGY PREDICTED BY IDOCK:   -4.35 KCAL/MOL
REMARK 922        TOTAL FREE ENERGY PREDICTED BY IDOCK:   -4.64 KCAL/MOL
REMARK 923 INTER-LIGAND FREE ENERGY PREDICTED BY IDOCK:   -4.60 KCAL/MOL
REMARK 924 INTRA-LIGAND FREE ENERGY PREDICTED BY IDOCK:   -0.05 KCAL/MOL
REMARK 927      BINDING AFFINITY PREDICTED BY RF-SCORE:    0.00 PKD
ROOT
HETATM    1  N   UNL     1      -9.911   3.568  70.133  1.00  0.00    -0.076 NA 
HETATM    2  C   UNL     1      -9.296   4.416  71.053  1.00  0.00    -0.149 A  
HETATM    3  H1  UNL     1     -10.662   3.915  69.537  1.00  0.00     0.000 HD 
HETATM    4  H2  UNL     1     -10.251   2.745  70.632  1.00  0.00     0.000 HD 
HETATM    5  C   UNL     1      -8.262   3.937  71.873  1.00  0.00    -0.083 A  
HETATM    6  C   UNL     1      -7.507   4.798  72.699  1.00  0.00    -0.086 A  
HETATM    7  C   UNL     1      -7.735   6.173  72.687  1.00  0.00    -0.102 A  
HETATM    8  C   UNL     1      -8.721   6.636  71.838  1.00  0.00    -0.128 A  
HETATM    9  C   UNL     1      -9.479   5.790  71.046  1.00  0.00    -0.195 A  
HETATM   10  C   UNL     1     -10.433   6.628  70.312  1.00  0.00    -0.209 C  
HETATM   11  N   UNL     1     -10.179   7.926  70.670  1.00  0.00    -0.195 N  
HETATM   12  O   UNL     1     -11.305   6.205  69.575  1.00  0.00    -0.418 OA 
HETATM   13  C   UNL     1      -9.160   8.003  71.580  1.00  0.00    -0.143 C  
HETATM   14  O   UNL     1      -8.691   8.985  72.117  1.00  0.00    -0.368 OA 
ENDROOT
BRANCH  11  15
HETATM   15  C   UNL     1     -10.844   9.104  70.140  1.00  0.00    -0.240 C  
HETATM   16  C   UNL     1      -9.907  10.207  69.660  1.00  0.00    -0.254 C  
HETATM   17  C   UNL     1     -10.739  11.280  68.968  1.00  0.00    -0.257 C  
HETATM   18  C   UNL     1     -11.834  11.803  69.872  1.00  0.00    -0.348 C  
HETATM   19  O   UNL     1     -12.277  12.942  69.771  1.00  0.00    -0.255 OA 
HETATM   20  N   UNL     1     -12.351  10.924  70.793  1.00  0.00    -0.357 N  
HETATM   21  H   UNL     1     -13.210  11.208  71.264  1.00  0.00     0.000 HD 
HETATM   22  C   UNL     1     -11.831   9.696  71.149  1.00  0.00    -0.367 C  
HETATM   23  O   UNL     1     -12.186   9.138  72.184  1.00  0.00    -0.367 OA 
ENDBRANCH  11  15
TORSDOF 1
ENDMDL
MODEL      133
REMARK 921   NORMALIZED FREE ENERGY PREDICTED BY IDOCK:   -4.33 KCAL/MOL
REMARK 922        TOTAL FREE ENERGY PREDICTED BY IDOCK:   -4.63 KCAL/MOL
REMARK 923 INTER-LIGAND FREE ENERGY PREDICTED BY IDOCK:   -4.60 KCAL/MOL
REMARK 924 INTRA-LIGAND FREE ENERGY PREDICTED BY IDOCK:   -0.03 KCAL/MOL
REMARK 927      BINDING AFFINITY PREDICTED BY RF-SCORE:    0.00 PKD
ROOT
HETATM    1  N   UNL     1     -12.035  12.058  69.412  1.00  0.00    -0.296 NA 
HETATM    2  C   UNL     1     -12.134  11.000  70.315  1.00  0.00    -0.362 A  
HETATM    3  H1  UNL     1     -11.457  11.968  68.577  1.00  0.00     0.000 HD 
HETATM    4  H2  UNL     1     -11.736  12.889  69.923  1.00  0.00     0.000 HD 
HETATM    5  C   UNL     1     -12.930  11.124  71.464  1.00  0.00    -0.542 A  
HETATM    6  C   UNL     1     -13.185  10.028  72.316  1.00  0.00    -0.401 A  
HETATM    7  C   UNL     1     -12.689   8.762  72.010  1.00  0.00    -0.444 A  
HETATM    8  C   UNL     1     -11.950   8.643  70.850  1.00  0.00    -0.220 A  
HETATM    9  C   UNL     1     -11.678   9.723  70.026  1.00  0.00    -0.131 A  
HETATM   10  C   UNL     1     -10.853   9.224  68.922  1.00  0.00    -0.099 C  
HETATM   11  N   UNL     1     -10.702   7.876  69.116  1.00  0.00    -0.169 N  
HETATM   12  O   UNL     1     -10.370   9.920  68.048  1.00  0.00    -0.179 OA 
HETATM   13  C   UNL     1     -11.339   7.461  70.253  1.00  0.00    -0.221 C  
HETATM   14  O   UNL     1     -11.396   6.346  70.730  1.00  0.00    -0.311 OA 
ENDROOT
BRANCH  11  15
HETATM   15  C   UNL     1     -10.007   6.959  68.229  1.00  0.00    -0.153 C  
HETATM   16  C   UNL     1     -10.829   5.754  67.783  1.00  0.00    -0.259 C  
HETATM   17  C   UNL     1     -10.040   4.997  66.722  1.00  0.00    -0.270 C  
HETATM   18  C   UNL     1      -8.666   4.607  67.226  1.00  0.00    -0.104 C  
HETATM   19  O   UNL     1      -8.074   3.617  66.808  1.00  0.00    -0.094 OA 
HETATM   20  N   UNL     1      -8.084   5.441  68.149  1.00  0.00    -0.095 N  
HETATM   21  H   UNL     1      -7.093   5.289  68.341  1.00  0.00     0.000 HD 
HETATM   22  C   UNL     1      -8.696   6.463  68.845  1.00  0.00    -0.126 C  
HETATM   23  O   UNL     1      -8.179   6.936  69.854  1.00  0.00    -0.123 OA 
ENDBRANCH  11  15
TORSDOF 1
ENDMDL
MODEL      134
REMARK 921   NORMALIZED FREE ENERGY PREDICTED BY IDOCK:   -4.29 KCAL/MOL
REMARK 922        TOTAL FREE ENERGY PREDICTED BY IDOCK:   -4.58 KCAL/MOL
REMARK 923 INTER-LIGAND FREE ENERGY PREDICTED BY IDOCK:   -4.48 KCAL/MOL
REMARK 924 INTRA-LIGAND FREE ENERGY PREDICTED BY IDOCK:   -0.10 KCAL/MOL
REMARK 927      BINDING AFFINITY PREDICTED BY RF-SCORE:    0.00 PKD
ROOT
HETATM    1  N   UNL     1     -11.547   6.658  68.328  1.00  0.00    -0.442 NA 
HETATM    2  C   UNL     1     -10.482   6.528  67.438  1.00  0.00    -0.252 A  
HETATM    3  H1  UNL     1     -11.757   7.563  68.749  1.00  0.00     0.000 HD 
HETATM    4  H2  UNL     1     -11.426   5.975  69.076  1.00  0.00     0.000 HD 
HETATM    5  C   UNL     1     -10.195   5.283  66.858  1.00  0.00    -0.279 A  
HETATM    6  C   UNL     1      -9.233   5.142  65.835  1.00  0.00    -0.163 A  
HETATM    7  C   UNL     1      -8.566   6.257  65.329  1.00  0.00    -0.068 A  
HETATM    8  C   UNL     1      -8.895   7.482  65.873  1.00  0.00    -0.157 A  
HETATM    9  C   UNL     1      -9.822   7.619  66.894  1.00  0.00    -0.304 A  
HETATM   10  C   UNL     1      -9.884   9.045  67.229  1.00  0.00    -0.196 C  
HETATM   11  N   UNL     1      -9.028   9.692  66.377  1.00  0.00    -0.149 N  
HETATM   12  O   UNL     1     -10.546   9.517  68.136  1.00  0.00    -0.213 OA 
HETATM   13  C   UNL     1      -8.406   8.814  65.534  1.00  0.00    -0.147 C  
HETATM   14  O   UNL     1      -7.581   9.040  64.671  1.00  0.00    -0.101 OA 
ENDROOT
BRANCH  11  15
HETATM   15  C   UNL     1      -8.816  11.128  66.307  1.00  0.00    -0.185 C  
HETATM   16  C   UNL     1      -8.728  11.828  67.659  1.00  0.00    -0.159 C  
HETATM   17  C   UNL     1      -8.322  13.278  67.426  1.00  0.00    -0.193 C  
HETATM   18  C   UNL     1      -9.271  13.974  66.473  1.00  0.00    -0.218 C  
HETATM   19  O   UNL     1      -9.473  15.183  66.519  1.00  0.00    -0.246 OA 
HETATM   20  N   UNL     1      -9.870  13.194  65.514  1.00  0.00    -0.466 N  
HETATM   21  H   UNL     1     -10.351  13.686  64.760  1.00  0.00     0.000 HD 
HETATM   22  C   UNL     1      -9.892  11.815  65.462  1.00  0.00    -0.234 C  
HETATM   23  O   UNL     1     -10.701  11.224  64.752  1.00  0.00    -0.310 OA 
ENDBRANCH  11  15
TORSDOF 1
ENDMDL
MODEL      135
REMARK 921   NORMALIZED FREE ENERGY PREDICTED BY IDOCK:   -4.27 KCAL/MOL
REMARK 922        TOTAL FREE ENERGY PREDICTED BY IDOCK:   -4.57 KCAL/MOL
REMARK 923 INTER-LIGAND FREE ENERGY PREDICTED BY IDOCK:   -4.42 KCAL/MOL
REMARK 924 INTRA-LIGAND FREE ENERGY PREDICTED BY IDOCK:   -0.15 KCAL/MOL
REMARK 927      BINDING AFFINITY PREDICTED BY RF-SCORE:    0.00 PKD
ROOT
HETATM    1  N   UNL     1     -11.567   8.201  72.244  1.00  0.00    -0.348 NA 
HETATM    2  C   UNL     1     -11.687   9.086  71.174  1.00  0.00    -0.302 A  
HETATM    3  H1  UNL     1     -11.296   7.232  72.080  1.00  0.00     0.000 HD 
HETATM    4  H2  UNL     1     -12.444   8.206  72.765  1.00  0.00     0.000 HD 
HETATM    5  C   UNL     1     -12.060  10.421  71.400  1.00  0.00    -0.424 A  
HETATM    6  C   UNL     1     -12.036  11.385  70.370  1.00  0.00    -0.473 A  
HETATM    7  C   UNL     1     -11.589  11.050  69.093  1.00  0.00    -0.389 A  
HETATM    8  C   UNL     1     -11.177   9.746  68.898  1.00  0.00    -0.076 A  
HETATM    9  C   UNL     1     -11.223   8.792  69.901  1.00  0.00    -0.059 A  
HETATM   10  C   UNL     1     -10.741   7.535  69.321  1.00  0.00    -0.176 C  
HETATM   11  N   UNL     1     -10.399   7.802  68.021  1.00  0.00    -0.208 N  
HETATM   12  O   UNL     1     -10.716   6.467  69.904  1.00  0.00    -0.223 OA 
HETATM   13  C   UNL     1     -10.632   9.112  67.703  1.00  0.00    -0.242 C  
HETATM   14  O   UNL     1     -10.459   9.681  66.645  1.00  0.00    -0.221 OA 
ENDROOT
BRANCH  11  15
HETATM   15  C   UNL     1      -9.814   6.861  67.082  1.00  0.00    -0.165 C  
HETATM   16  C   UNL     1     -10.567   5.541  66.945  1.00  0.00    -0.348 C  
HETATM   17  C   UNL     1      -9.947   4.748  65.802  1.00  0.00    -0.225 C  
HETATM   18  C   UNL     1      -8.460   4.548  66.007  1.00  0.00    -0.114 C  
HETATM   19  O   UNL     1      -7.862   3.578  65.553  1.00  0.00    -0.087 OA 
HETATM   20  N   UNL     1      -7.791   5.532  66.695  1.00  0.00    -0.100 N  
HETATM   21  H   UNL     1      -6.772   5.496  66.665  1.00  0.00     0.000 HD 
HETATM   22  C   UNL     1      -8.351   6.563  67.420  1.00  0.00    -0.120 C  
HETATM   23  O   UNL     1      -7.684   7.193  68.237  1.00  0.00    -0.115 OA 
ENDBRANCH  11  15
TORSDOF 1
ENDMDL
MODEL      136
REMARK 921   NORMALIZED FREE ENERGY PREDICTED BY IDOCK:   -4.23 KCAL/MOL
REMARK 922        TOTAL FREE ENERGY PREDICTED BY IDOCK:   -4.52 KCAL/MOL
REMARK 923 INTER-LIGAND FREE ENERGY PREDICTED BY IDOCK:   -4.67 KCAL/MOL
REMARK 924 INTRA-LIGAND FREE ENERGY PREDICTED BY IDOCK:    0.15 KCAL/MOL
REMARK 927      BINDING AFFINITY PREDICTED BY RF-SCORE:    0.00 PKD
ROOT
HETATM    1  N   UNL     1      -7.953  15.373  68.720  1.00  0.00    -0.146 NA 
HETATM    2  C   UNL     1      -9.298  15.010  68.776  1.00  0.00    -0.200 A  
HETATM    3  H1  UNL     1      -7.235  14.661  68.587  1.00  0.00     0.000 HD 
HETATM    4  H2  UNL     1      -7.727  15.904  69.562  1.00  0.00     0.000 HD 
HETATM    5  C   UNL     1     -10.286  15.990  68.959  1.00  0.00    -0.236 A  
HETATM    6  C   UNL     1     -11.661  15.689  68.861  1.00  0.00    -0.396 A  
HETATM    7  C   UNL     1     -12.084  14.404  68.526  1.00  0.00    -0.278 A  
HETATM    8  C   UNL     1     -11.100  13.461  68.299  1.00  0.00    -0.289 A  
HETATM    9  C   UNL     1      -9.750  13.750  68.419  1.00  0.00    -0.219 A  
HETATM   10  C   UNL     1      -9.020  12.511  68.136  1.00  0.00    -0.199 C  
HETATM   11  N   UNL     1      -9.955  11.559  67.828  1.00  0.00    -0.180 N  
HETATM   12  O   UNL     1      -7.812  12.383  68.222  1.00  0.00    -0.136 OA 
HETATM   13  C   UNL     1     -11.224  12.063  67.902  1.00  0.00    -0.264 C  
HETATM   14  O   UNL     1     -12.281  11.498  67.710  1.00  0.00    -0.560 OA 
ENDROOT
BRANCH  11  15
HETATM   15  C   UNL     1      -9.679  10.192  67.419  1.00  0.00    -0.161 C  
HETATM   16  C   UNL     1      -8.374   9.614  67.956  1.00  0.00    -0.117 C  
HETATM   17  C   UNL     1      -8.319   8.134  67.601  1.00  0.00    -0.127 C  
HETATM   18  C   UNL     1      -8.481   7.913  66.112  1.00  0.00    -0.133 C  
HETATM   19  O   UNL     1      -7.989   6.948  65.537  1.00  0.00    -0.111 OA 
HETATM   20  N   UNL     1      -9.249   8.826  65.430  1.00  0.00    -0.414 N  
HETATM   21  H   UNL     1      -9.517   8.576  64.478  1.00  0.00     0.000 HD 
HETATM   22  C   UNL     1      -9.696  10.045  65.895  1.00  0.00    -0.247 C  
HETATM   23  O   UNL     1     -10.103  10.905  65.119  1.00  0.00    -0.256 OA 
ENDBRANCH  11  15
TORSDOF 1
ENDMDL
MODEL      137
REMARK 921   NORMALIZED FREE ENERGY PREDICTED BY IDOCK:   -4.18 KCAL/MOL
REMARK 922        TOTAL FREE ENERGY PREDICTED BY IDOCK:   -4.47 KCAL/MOL
REMARK 923 INTER-LIGAND FREE ENERGY PREDICTED BY IDOCK:   -4.39 KCAL/MOL
REMARK 924 INTRA-LIGAND FREE ENERGY PREDICTED BY IDOCK:   -0.08 KCAL/MOL
REMARK 927      BINDING AFFINITY PREDICTED BY RF-SCORE:    0.00 PKD
ROOT
HETATM    1  N   UNL     1     -13.062  12.339  64.362  1.00  0.00    -0.777 NA 
HETATM    2  C   UNL     1     -12.221  13.446  64.459  1.00  0.00    -0.398 A  
HETATM    3  H1  UNL     1     -12.748  11.426  64.690  1.00  0.00     0.000 HD 
HETATM    4  H2  UNL     1     -13.363  12.247  63.392  1.00  0.00     0.000 HD 
HETATM    5  C   UNL     1     -12.654  14.703  64.009  1.00  0.00     0.105 A  
HETATM    6  C   UNL     1     -11.900  15.875  64.234  1.00  0.00    -0.071 A  
HETATM    7  C   UNL     1     -10.713  15.827  64.962  1.00  0.00    -0.443 A  
HETATM    8  C   UNL     1     -10.324  14.592  65.442  1.00  0.00    -0.405 A  
HETATM    9  C   UNL     1     -11.050  13.437  65.201  1.00  0.00    -0.315 A  
HETATM   10  C   UNL     1     -10.322  12.332  65.834  1.00  0.00    -0.252 C  
HETATM   11  N   UNL     1      -9.226  12.878  66.447  1.00  0.00    -0.188 N  
HETATM   12  O   UNL     1     -10.639  11.159  65.758  1.00  0.00    -0.259 OA 
HETATM   13  C   UNL     1      -9.169  14.231  66.256  1.00  0.00    -0.151 C  
HETATM   14  O   UNL     1      -8.331  15.020  66.643  1.00  0.00    -0.218 OA 
ENDROOT
BRANCH  11  15
HETATM   15  C   UNL     1      -8.252  12.160  67.252  1.00  0.00    -0.180 C  
HETATM   16  C   UNL     1      -7.503  11.054  66.514  1.00  0.00    -0.145 C  
HETATM   17  C   UNL     1      -6.401  10.528  67.424  1.00  0.00    -0.058 C  
HETATM   18  C   UNL     1      -6.953  10.065  68.755  1.00  0.00    -0.062 C  
HETATM   19  O   UNL     1      -6.414   9.183  69.416  1.00  0.00    -0.043 OA 
HETATM   20  N   UNL     1      -8.073  10.711  69.221  1.00  0.00    -0.254 N  
HETATM   21  H   UNL     1      -8.329  10.537  70.193  1.00  0.00     0.000 HD 
HETATM   22  C   UNL     1      -8.888  11.570  68.513  1.00  0.00    -0.139 C  
HETATM   23  O   UNL     1     -10.015  11.845  68.917  1.00  0.00    -0.136 OA 
ENDBRANCH  11  15
TORSDOF 1
ENDMDL
MODEL      138
REMARK 921   NORMALIZED FREE ENERGY PREDICTED BY IDOCK:   -4.18 KCAL/MOL
REMARK 922        TOTAL FREE ENERGY PREDICTED BY IDOCK:   -4.46 KCAL/MOL
REMARK 923 INTER-LIGAND FREE ENERGY PREDICTED BY IDOCK:   -4.42 KCAL/MOL
REMARK 924 INTRA-LIGAND FREE ENERGY PREDICTED BY IDOCK:   -0.04 KCAL/MOL
REMARK 927      BINDING AFFINITY PREDICTED BY RF-SCORE:    0.00 PKD
ROOT
HETATM    1  N   UNL     1     -12.682   7.961  72.631  1.00  0.00    -0.550 NA 
HETATM    2  C   UNL     1     -11.692   7.102  72.156  1.00  0.00    -0.284 A  
HETATM    3  H1  UNL     1     -12.802   8.885  72.216  1.00  0.00     0.000 HD 
HETATM    4  H2  UNL     1     -12.555   8.074  73.637  1.00  0.00     0.000 HD 
HETATM    5  C   UNL     1     -11.528   5.830  72.727  1.00  0.00    -0.304 A  
HETATM    6  C   UNL     1     -10.651   4.873  72.173  1.00  0.00    -0.232 A  
HETATM    7  C   UNL     1      -9.949   5.148  71.001  1.00  0.00    -0.274 A  
HETATM    8  C   UNL     1     -10.158   6.384  70.422  1.00  0.00    -0.221 A  
HETATM    9  C   UNL     1     -11.001   7.333  70.977  1.00  0.00    -0.272 A  
HETATM   10  C   UNL     1     -10.946   8.515  70.111  1.00  0.00    -0.216 C  
HETATM   11  N   UNL     1     -10.110   8.207  69.070  1.00  0.00    -0.200 N  
HETATM   12  O   UNL     1     -11.510   9.569  70.340  1.00  0.00    -0.254 OA 
HETATM   13  C   UNL     1      -9.607   6.942  69.192  1.00  0.00    -0.144 C  
HETATM   14  O   UNL     1      -8.831   6.357  68.464  1.00  0.00    -0.120 OA 
ENDROOT
BRANCH  11  15
HETATM   15  C   UNL     1      -9.810   9.063  67.935  1.00  0.00    -0.171 C  
HETATM   16  C   UNL     1     -10.008   8.410  66.571  1.00  0.00    -0.335 C  
HETATM   17  C   UNL     1      -9.838   9.476  65.496  1.00  0.00    -0.304 C  
HETATM   18  C   UNL     1      -8.499  10.175  65.615  1.00  0.00    -0.153 C  
HETATM   19  O   UNL     1      -7.928  10.662  64.645  1.00  0.00    -0.085 OA 
HETATM   20  N   UNL     1      -7.965  10.281  66.876  1.00  0.00    -0.111 N  
HETATM   21  H   UNL     1      -7.171  10.912  66.984  1.00  0.00     0.000 HD 
HETATM   22  C   UNL     1      -8.387   9.623  68.013  1.00  0.00    -0.117 C  
HETATM   23  O   UNL     1      -7.664   9.549  69.003  1.00  0.00    -0.073 OA 
ENDBRANCH  11  15
TORSDOF 1
ENDMDL
MODEL      139
REMARK 921   NORMALIZED FREE ENERGY PREDICTED BY IDOCK:   -4.13 KCAL/MOL
REMARK 922        TOTAL FREE ENERGY PREDICTED BY IDOCK:   -4.41 KCAL/MOL
REMARK 923 INTER-LIGAND FREE ENERGY PREDICTED BY IDOCK:   -4.26 KCAL/MOL
REMARK 924 INTRA-LIGAND FREE ENERGY PREDICTED BY IDOCK:   -0.15 KCAL/MOL
REMARK 927      BINDING AFFINITY PREDICTED BY RF-SCORE:    0.00 PKD
ROOT
HETATM    1  N   UNL     1     -13.045  10.228  70.381  1.00  0.00    -0.546 NA 
HETATM    2  C   UNL     1     -12.069   9.520  71.081  1.00  0.00    -0.347 A  
HETATM    3  H1  UNL     1     -12.788  10.793  69.572  1.00  0.00     0.000 HD 
HETATM    4  H2  UNL     1     -13.548  10.821  71.042  1.00  0.00     0.000 HD 
HETATM    5  C   UNL     1     -12.423   8.741  72.194  1.00  0.00    -0.460 A  
HETATM    6  C   UNL     1     -11.497   7.886  72.829  1.00  0.00    -0.428 A  
HETATM    7  C   UNL     1     -10.202   7.749  72.334  1.00  0.00    -0.305 A  
HETATM    8  C   UNL     1      -9.882   8.482  71.208  1.00  0.00    -0.279 A  
HETATM    9  C   UNL     1     -10.782   9.340  70.598  1.00  0.00    -0.331 A  
HETATM   10  C   UNL     1     -10.085   9.959  69.466  1.00  0.00    -0.221 C  
HETATM   11  N   UNL     1      -8.827   9.420  69.431  1.00  0.00    -0.149 N  
HETATM   12  O   UNL     1     -10.557  10.824  68.750  1.00  0.00    -0.177 OA 
HETATM   13  C   UNL     1      -8.639   8.523  70.446  1.00  0.00    -0.143 C  
HETATM   14  O   UNL     1      -7.648   7.878  70.720  1.00  0.00    -0.074 OA 
ENDROOT
BRANCH  11  15
HETATM   15  C   UNL     1      -7.807   9.697  68.433  1.00  0.00    -0.085 C  
HETATM   16  C   UNL     1      -7.577  11.177  68.146  1.00  0.00    -0.103 C  
HETATM   17  C   UNL     1      -6.366  11.309  67.232  1.00  0.00    -0.081 C  
HETATM   18  C   UNL     1      -6.533  10.493  65.967  1.00  0.00    -0.127 C  
HETATM   19  O   UNL     1      -5.994  10.807  64.911  1.00  0.00    -0.073 OA 
HETATM   20  N   UNL     1      -7.286   9.348  66.064  1.00  0.00    -0.091 N  
HETATM   21  H   UNL     1      -7.239   8.703  65.274  1.00  0.00     0.000 HD 
HETATM   22  C   UNL     1      -8.099   8.976  67.114  1.00  0.00    -0.106 C  
HETATM   23  O   UNL     1      -8.953   8.105  66.973  1.00  0.00    -0.134 OA 
ENDBRANCH  11  15
TORSDOF 1
ENDMDL
MODEL      140
REMARK 921   NORMALIZED FREE ENERGY PREDICTED BY IDOCK:   -4.11 KCAL/MOL
REMARK 922        TOTAL FREE ENERGY PREDICTED BY IDOCK:   -4.40 KCAL/MOL
REMARK 923 INTER-LIGAND FREE ENERGY PREDICTED BY IDOCK:   -4.25 KCAL/MOL
REMARK 924 INTRA-LIGAND FREE ENERGY PREDICTED BY IDOCK:   -0.14 KCAL/MOL
REMARK 927      BINDING AFFINITY PREDICTED BY RF-SCORE:    0.00 PKD
ROOT
HETATM    1  N   UNL     1      -7.515   4.811  67.574  1.00  0.00    -0.078 NA 
HETATM    2  C   UNL     1      -8.506   4.843  68.554  1.00  0.00    -0.094 A  
HETATM    3  H1  UNL     1      -7.385   5.606  66.950  1.00  0.00     0.000 HD 
HETATM    4  H2  UNL     1      -7.653   3.974  67.006  1.00  0.00     0.000 HD 
HETATM    5  C   UNL     1      -8.685   3.748  69.415  1.00  0.00    -0.127 A  
HETATM    6  C   UNL     1      -9.563   3.804  70.518  1.00  0.00    -0.262 A  
HETATM    7  C   UNL     1     -10.250   4.978  70.820  1.00  0.00    -0.299 A  
HETATM    8  C   UNL     1     -10.027   6.063  69.995  1.00  0.00    -0.227 A  
HETATM    9  C   UNL     1      -9.184   6.003  68.898  1.00  0.00    -0.125 A  
HETATM   10  C   UNL     1      -9.222   7.320  68.255  1.00  0.00    -0.133 C  
HETATM   11  N   UNL     1     -10.048   8.108  69.011  1.00  0.00    -0.200 N  
HETATM   12  O   UNL     1      -8.652   7.602  67.216  1.00  0.00    -0.120 OA 
HETATM   13  C   UNL     1     -10.562   7.417  70.074  1.00  0.00    -0.232 C  
HETATM   14  O   UNL     1     -11.334   7.799  70.930  1.00  0.00    -0.269 OA 
ENDROOT
BRANCH  11  15
HETATM   15  C   UNL     1     -10.331   9.515  68.782  1.00  0.00    -0.208 C  
HETATM   16  C   UNL     1     -10.683   9.871  67.341  1.00  0.00    -0.323 C  
HETATM   17  C   UNL     1     -11.131  11.326  67.299  1.00  0.00    -0.367 C  
HETATM   18  C   UNL     1     -10.081  12.247  67.883  1.00  0.00    -0.200 C  
HETATM   19  O   UNL     1      -9.963  13.414  67.523  1.00  0.00    -0.224 OA 
HETATM   20  N   UNL     1      -9.287  11.730  68.877  1.00  0.00    -0.406 N  
HETATM   21  H   UNL     1      -8.719  12.397  69.401  1.00  0.00     0.000 HD 
HETATM   22  C   UNL     1      -9.174  10.405  69.243  1.00  0.00    -0.184 C  
HETATM   23  O   UNL     1      -8.225  10.016  69.919  1.00  0.00    -0.176 OA 
ENDBRANCH  11  15
TORSDOF 1
ENDMDL
MODEL      141
REMARK 921   NORMALIZED FREE ENERGY PREDICTED BY IDOCK:   -4.10 KCAL/MOL
REMARK 922        TOTAL FREE ENERGY PREDICTED BY IDOCK:   -4.38 KCAL/MOL
REMARK 923 INTER-LIGAND FREE ENERGY PREDICTED BY IDOCK:   -4.38 KCAL/MOL
REMARK 924 INTRA-LIGAND FREE ENERGY PREDICTED BY IDOCK:   -0.00 KCAL/MOL
REMARK 927      BINDING AFFINITY PREDICTED BY RF-SCORE:    0.00 PKD
ROOT
HETATM    1  N   UNL     1      -9.987   4.992  68.038  1.00  0.00    -0.148 NA 
HETATM    2  C   UNL     1      -9.578   5.925  68.989  1.00  0.00    -0.129 A  
HETATM    3  H1  UNL     1     -10.535   5.288  67.231  1.00  0.00     0.000 HD 
HETATM    4  H2  UNL     1     -10.494   4.247  68.516  1.00  0.00     0.000 HD 
HETATM    5  C   UNL     1      -8.823   5.518  70.100  1.00  0.00    -0.147 A  
HETATM    6  C   UNL     1      -8.254   6.448  70.996  1.00  0.00    -0.122 A  
HETATM    7  C   UNL     1      -8.385   7.818  70.775  1.00  0.00    -0.116 A  
HETATM    8  C   UNL     1      -9.088   8.205  69.651  1.00  0.00    -0.151 A  
HETATM    9  C   UNL     1      -9.667   7.293  68.784  1.00  0.00    -0.151 A  
HETATM   10  C   UNL     1     -10.345   8.066  67.738  1.00  0.00    -0.231 C  
HETATM   11  N   UNL     1     -10.111   9.389  68.007  1.00  0.00    -0.181 N  
HETATM   12  O   UNL     1     -11.021   7.584  66.848  1.00  0.00    -0.292 OA 
HETATM   13  C   UNL     1      -9.359   9.543  69.138  1.00  0.00    -0.163 C  
HETATM   14  O   UNL     1      -8.983  10.568  69.669  1.00  0.00    -0.103 OA 
ENDROOT
BRANCH  11  15
HETATM   15  C   UNL     1     -10.542  10.514  67.194  1.00  0.00    -0.264 C  
HETATM   16  C   UNL     1      -9.419  11.435  66.728  1.00  0.00    -0.197 C  
HETATM   17  C   UNL     1      -9.998  12.444  65.745  1.00  0.00    -0.270 C  
HETATM   18  C   UNL     1     -11.159  13.205  66.350  1.00  0.00    -0.289 C  
HETATM   19  O   UNL     1     -11.446  14.346  66.001  1.00  0.00    -0.337 OA 
HETATM   20  N   UNL     1     -11.916  12.542  67.285  1.00  0.00    -0.305 N  
HETATM   21  H   UNL     1     -12.801  12.976  67.547  1.00  0.00     0.000 HD 
HETATM   22  C   UNL     1     -11.605  11.352  67.910  1.00  0.00    -0.266 C  
HETATM   23  O   UNL     1     -12.185  11.008  68.936  1.00  0.00    -0.519 OA 
ENDBRANCH  11  15
TORSDOF 1
ENDMDL
MODEL      142
REMARK 921   NORMALIZED FREE ENERGY PREDICTED BY IDOCK:   -4.10 KCAL/MOL
REMARK 922        TOTAL FREE ENERGY PREDICTED BY IDOCK:   -4.38 KCAL/MOL
REMARK 923 INTER-LIGAND FREE ENERGY PREDICTED BY IDOCK:   -4.23 KCAL/MOL
REMARK 924 INTRA-LIGAND FREE ENERGY PREDICTED BY IDOCK:   -0.15 KCAL/MOL
REMARK 927      BINDING AFFINITY PREDICTED BY RF-SCORE:    0.00 PKD
ROOT
HETATM    1  N   UNL     1     -10.078   4.422  70.869  1.00  0.00    -0.173 NA 
HETATM    2  C   UNL     1      -9.116   5.291  71.382  1.00  0.00    -0.145 A  
HETATM    3  H1  UNL     1     -10.874   4.788  70.347  1.00  0.00     0.000 HD 
HETATM    4  H2  UNL     1     -10.432   3.846  71.634  1.00  0.00     0.000 HD 
HETATM    5  C   UNL     1      -8.020   4.787  72.100  1.00  0.00    -0.106 A  
HETATM    6  C   UNL     1      -6.945   5.612  72.495  1.00  0.00    -0.083 A  
HETATM    7  C   UNL     1      -6.916   6.959  72.136  1.00  0.00    -0.066 A  
HETATM    8  C   UNL     1      -7.976   7.430  71.387  1.00  0.00    -0.096 A  
HETATM    9  C   UNL     1      -9.043   6.627  71.020  1.00  0.00    -0.156 A  
HETATM   10  C   UNL     1      -9.977   7.471  70.267  1.00  0.00    -0.192 C  
HETATM   11  N   UNL     1      -9.412   8.717  70.190  1.00  0.00    -0.161 N  
HETATM   12  O   UNL     1     -11.062   7.107  69.853  1.00  0.00    -0.259 OA 
HETATM   13  C   UNL     1      -8.209   8.761  70.837  1.00  0.00    -0.161 C  
HETATM   14  O   UNL     1      -7.453   9.701  70.979  1.00  0.00    -0.327 OA 
ENDROOT
BRANCH  11  15
HETATM   15  C   UNL     1      -9.961   9.860  69.479  1.00  0.00    -0.222 C  
HETATM   16  C   UNL     1     -11.426  10.158  69.781  1.00  0.00    -0.288 C  
HETATM   17  C   UNL     1     -11.796  11.477  69.115  1.00  0.00    -0.406 C  
HETATM   18  C   UNL     1     -11.505  11.451  67.629  1.00  0.00    -0.273 C  
HETATM   19  O   UNL     1     -12.141  12.125  66.826  1.00  0.00    -0.609 OA 
HETATM   20  N   UNL     1     -10.456  10.665  67.218  1.00  0.00    -0.231 N  
HETATM   21  H   UNL     1     -10.138  10.795  66.257  1.00  0.00     0.000 HD 
HETATM   22  C   UNL     1      -9.786   9.718  67.965  1.00  0.00    -0.148 C  
HETATM   23  O   UNL     1      -9.085   8.868  67.423  1.00  0.00    -0.131 OA 
ENDBRANCH  11  15
TORSDOF 1
ENDMDL
MODEL      143
REMARK 921   NORMALIZED FREE ENERGY PREDICTED BY IDOCK:   -4.10 KCAL/MOL
REMARK 922        TOTAL FREE ENERGY PREDICTED BY IDOCK:   -4.38 KCAL/MOL
REMARK 923 INTER-LIGAND FREE ENERGY PREDICTED BY IDOCK:   -4.23 KCAL/MOL
REMARK 924 INTRA-LIGAND FREE ENERGY PREDICTED BY IDOCK:   -0.15 KCAL/MOL
REMARK 927      BINDING AFFINITY PREDICTED BY RF-SCORE:    0.00 PKD
ROOT
HETATM    1  N   UNL     1     -10.158   8.465  65.984  1.00  0.00    -0.412 NA 
HETATM    2  C   UNL     1      -9.367   9.158  66.900  1.00  0.00    -0.156 A  
HETATM    3  H1  UNL     1     -10.562   7.563  66.234  1.00  0.00     0.000 HD 
HETATM    4  H2  UNL     1      -9.625   8.352  65.122  1.00  0.00     0.000 HD 
HETATM    5  C   UNL     1      -8.812  10.400  66.556  1.00  0.00    -0.150 A  
HETATM    6  C   UNL     1      -8.144  11.205  67.504  1.00  0.00    -0.119 A  
HETATM    7  C   UNL     1      -8.057  10.809  68.837  1.00  0.00    -0.145 A  
HETATM    8  C   UNL     1      -8.652   9.608  69.172  1.00  0.00    -0.146 A  
HETATM    9  C   UNL     1      -9.287   8.806  68.239  1.00  0.00    -0.143 A  
HETATM   10  C   UNL     1      -9.763   7.615  68.949  1.00  0.00    -0.156 C  
HETATM   11  N   UNL     1      -9.426   7.777  70.267  1.00  0.00    -0.160 N  
HETATM   12  O   UNL     1     -10.304   6.661  68.420  1.00  0.00    -0.166 OA 
HETATM   13  C   UNL     1      -8.761   8.954  70.471  1.00  0.00    -0.186 C  
HETATM   14  O   UNL     1      -8.307   9.403  71.504  1.00  0.00    -0.270 OA 
ENDROOT
BRANCH  11  15
HETATM   15  C   UNL     1      -9.756   6.866  71.351  1.00  0.00    -0.174 C  
HETATM   16  C   UNL     1      -9.427   5.402  71.079  1.00  0.00    -0.205 C  
HETATM   17  C   UNL     1      -9.653   4.611  72.362  1.00  0.00    -0.192 C  
HETATM   18  C   UNL     1     -11.059   4.801  72.891  1.00  0.00    -0.224 C  
HETATM   19  O   UNL     1     -11.629   3.941  73.555  1.00  0.00    -0.195 OA 
HETATM   20  N   UNL     1     -11.662   6.008  72.631  1.00  0.00    -0.494 N  
HETATM   21  H   UNL     1     -12.520   6.209  73.146  1.00  0.00     0.000 HD 
HETATM   22  C   UNL     1     -11.230   6.977  71.749  1.00  0.00    -0.246 C  
HETATM   23  O   UNL     1     -11.989   7.864  71.368  1.00  0.00    -0.291 OA 
ENDBRANCH  11  15
TORSDOF 1
ENDMDL
MODEL      144
REMARK 921   NORMALIZED FREE ENERGY PREDICTED BY IDOCK:   -4.10 KCAL/MOL
REMARK 922        TOTAL FREE ENERGY PREDICTED BY IDOCK:   -4.38 KCAL/MOL
REMARK 923 INTER-LIGAND FREE ENERGY PREDICTED BY IDOCK:   -4.34 KCAL/MOL
REMARK 924 INTRA-LIGAND FREE ENERGY PREDICTED BY IDOCK:   -0.04 KCAL/MOL
REMARK 927      BINDING AFFINITY PREDICTED BY RF-SCORE:    0.00 PKD
ROOT
HETATM    1  N   UNL     1      -9.516  15.650  66.144  1.00  0.00    -0.313 NA 
HETATM    2  C   UNL     1     -10.303  14.583  65.713  1.00  0.00    -0.331 A  
HETATM    3  H1  UNL     1      -8.826  15.514  66.882  1.00  0.00     0.000 HD 
HETATM    4  H2  UNL     1     -10.134  16.415  66.418  1.00  0.00     0.000 HD 
HETATM    5  C   UNL     1     -11.253  14.771  64.696  1.00  0.00    -0.350 A  
HETATM    6  C   UNL     1     -11.952  13.688  64.121  1.00  0.00    -0.488 A  
HETATM    7  C   UNL     1     -11.682  12.379  64.516  1.00  0.00    -0.427 A  
HETATM    8  C   UNL     1     -10.710  12.205  65.481  1.00  0.00    -0.321 A  
HETATM    9  C   UNL     1     -10.040  13.268  66.063  1.00  0.00    -0.301 A  
HETATM   10  C   UNL     1      -9.116  12.703  67.052  1.00  0.00    -0.215 C  
HETATM   11  N   UNL     1      -9.250  11.341  66.989  1.00  0.00    -0.163 N  
HETATM   12  O   UNL     1      -8.418  13.359  67.803  1.00  0.00    -0.155 OA 
HETATM   13  C   UNL     1     -10.186  10.974  66.063  1.00  0.00    -0.252 C  
HETATM   14  O   UNL     1     -10.565   9.860  65.763  1.00  0.00    -0.060 OA 
ENDROOT
BRANCH  11  15
HETATM   15  C   UNL     1      -8.480  10.372  67.750  1.00  0.00    -0.114 C  
HETATM   16  C   UNL     1      -7.851   9.258  66.919  1.00  0.00    -0.098 C  
HETATM   17  C   UNL     1      -6.934   8.442  67.821  1.00  0.00    -0.075 C  
HETATM   18  C   UNL     1      -7.674   7.914  69.032  1.00  0.00    -0.101 C  
HETATM   19  O   UNL     1      -7.344   6.877  69.599  1.00  0.00    -0.081 OA 
HETATM   20  N   UNL     1      -8.715   8.676  69.504  1.00  0.00    -0.137 N  
HETATM   21  H   UNL     1      -9.084   8.426  70.422  1.00  0.00     0.000 HD 
HETATM   22  C   UNL     1      -9.315   9.744  68.869  1.00  0.00    -0.158 C  
HETATM   23  O   UNL     1     -10.416  10.152  69.228  1.00  0.00    -0.196 OA 
ENDBRANCH  11  15
TORSDOF 1
ENDMDL
MODEL      145
REMARK 921   NORMALIZED FREE ENERGY PREDICTED BY IDOCK:   -4.10 KCAL/MOL
REMARK 922        TOTAL FREE ENERGY PREDICTED BY IDOCK:   -4.38 KCAL/MOL
REMARK 923 INTER-LIGAND FREE ENERGY PREDICTED BY IDOCK:   -4.42 KCAL/MOL
REMARK 924 INTRA-LIGAND FREE ENERGY PREDICTED BY IDOCK:    0.04 KCAL/MOL
REMARK 927      BINDING AFFINITY PREDICTED BY RF-SCORE:    0.00 PKD
ROOT
HETATM    1  N   UNL     1      -9.336   5.875  65.439  1.00  0.00    -0.359 NA 
HETATM    2  C   UNL     1      -8.432   6.933  65.529  1.00  0.00    -0.116 A  
HETATM    3  H1  UNL     1     -10.236   5.927  65.916  1.00  0.00     0.000 HD 
HETATM    4  H2  UNL     1      -8.862   5.022  65.737  1.00  0.00     0.000 HD 
HETATM    5  C   UNL     1      -7.193   6.861  64.873  1.00  0.00    -0.078 A  
HETATM    6  C   UNL     1      -6.321   7.969  64.805  1.00  0.00    -0.049 A  
HETATM    7  C   UNL     1      -6.690   9.197  65.351  1.00  0.00    -0.073 A  
HETATM    8  C   UNL     1      -7.932   9.267  65.950  1.00  0.00    -0.106 A  
HETATM    9  C   UNL     1      -8.779   8.175  66.039  1.00  0.00    -0.182 A  
HETATM   10  C   UNL     1      -9.978   8.618  66.757  1.00  0.00    -0.273 C  
HETATM   11  N   UNL     1      -9.809   9.950  67.029  1.00  0.00    -0.181 N  
HETATM   12  O   UNL     1     -10.902   7.893  67.077  1.00  0.00    -0.305 OA 
HETATM   13  C   UNL     1      -8.605  10.404  66.568  1.00  0.00    -0.130 C  
HETATM   14  O   UNL     1      -8.128  11.518  66.651  1.00  0.00    -0.159 OA 
ENDROOT
BRANCH  11  15
HETATM   15  C   UNL     1     -10.779  10.819  67.675  1.00  0.00    -0.258 C  
HETATM   16  C   UNL     1     -10.832  12.240  67.124  1.00  0.00    -0.282 C  
HETATM   17  C   UNL     1     -12.009  12.962  67.765  1.00  0.00    -0.336 C  
HETATM   18  C   UNL     1     -11.924  12.930  69.277  1.00  0.00    -0.260 C  
HETATM   19  O   UNL     1     -12.411  13.811  69.978  1.00  0.00    -0.330 OA 
HETATM   20  N   UNL     1     -11.310  11.837  69.840  1.00  0.00    -0.491 N  
HETATM   21  H   UNL     1     -11.423  11.719  70.847  1.00  0.00     0.000 HD 
HETATM   22  C   UNL     1     -10.557  10.882  69.189  1.00  0.00    -0.220 C  
HETATM   23  O   UNL     1      -9.809  10.136  69.813  1.00  0.00    -0.232 OA 
ENDBRANCH  11  15
TORSDOF 1
ENDMDL
MODEL      146
REMARK 921   NORMALIZED FREE ENERGY PREDICTED BY IDOCK:   -4.10 KCAL/MOL
REMARK 922        TOTAL FREE ENERGY PREDICTED BY IDOCK:   -4.38 KCAL/MOL
REMARK 923 INTER-LIGAND FREE ENERGY PREDICTED BY IDOCK:   -4.23 KCAL/MOL
REMARK 924 INTRA-LIGAND FREE ENERGY PREDICTED BY IDOCK:   -0.15 KCAL/MOL
REMARK 927      BINDING AFFINITY PREDICTED BY RF-SCORE:    0.00 PKD
ROOT
HETATM    1  N   UNL     1      -9.816   5.897  65.814  1.00  0.00    -0.369 NA 
HETATM    2  C   UNL     1      -9.920   5.821  67.203  1.00  0.00    -0.159 A  
HETATM    3  H1  UNL     1      -9.905   6.797  65.342  1.00  0.00     0.000 HD 
HETATM    4  H2  UNL     1     -10.492   5.251  65.406  1.00  0.00     0.000 HD 
HETATM    5  C   UNL     1      -9.798   4.583  67.853  1.00  0.00    -0.162 A  
HETATM    6  C   UNL     1      -9.736   4.484  69.259  1.00  0.00    -0.260 A  
HETATM    7  C   UNL     1      -9.744   5.629  70.053  1.00  0.00    -0.227 A  
HETATM    8  C   UNL     1      -9.814   6.843  69.398  1.00  0.00    -0.161 A  
HETATM    9  C   UNL     1      -9.900   6.941  68.019  1.00  0.00    -0.153 A  
HETATM   10  C   UNL     1      -9.987   8.369  67.695  1.00  0.00    -0.190 C  
HETATM   11  N   UNL     1      -9.913   9.051  68.880  1.00  0.00    -0.183 N  
HETATM   12  O   UNL     1     -10.147   8.817  66.574  1.00  0.00    -0.274 OA 
HETATM   13  C   UNL     1      -9.804   8.196  69.942  1.00  0.00    -0.186 C  
HETATM   14  O   UNL     1      -9.734   8.457  71.126  1.00  0.00    -0.167 OA 
ENDROOT
BRANCH  11  15
HETATM   15  C   UNL     1      -9.897  10.496  69.034  1.00  0.00    -0.212 C  
HETATM   16  C   UNL     1     -11.028  11.228  68.318  1.00  0.00    -0.275 C  
HETATM   17  C   UNL     1     -10.985  12.696  68.724  1.00  0.00    -0.289 C  
HETATM   18  C   UNL     1      -9.629  13.310  68.444  1.00  0.00    -0.185 C  
HETATM   19  O   UNL     1      -9.490  14.504  68.200  1.00  0.00    -0.196 OA 
HETATM   20  N   UNL     1      -8.542  12.473  68.520  1.00  0.00    -0.338 N  
HETATM   21  H   UNL     1      -7.624  12.917  68.525  1.00  0.00     0.000 HD 
HETATM   22  C   UNL     1      -8.560  11.095  68.589  1.00  0.00    -0.151 C  
HETATM   23  O   UNL     1      -7.552  10.438  68.344  1.00  0.00    -0.088 OA 
ENDBRANCH  11  15
TORSDOF 1
ENDMDL
MODEL      147
REMARK 921   NORMALIZED FREE ENERGY PREDICTED BY IDOCK:   -4.09 KCAL/MOL
REMARK 922        TOTAL FREE ENERGY PREDICTED BY IDOCK:   -4.38 KCAL/MOL
REMARK 923 INTER-LIGAND FREE ENERGY PREDICTED BY IDOCK:   -4.36 KCAL/MOL
REMARK 924 INTRA-LIGAND FREE ENERGY PREDICTED BY IDOCK:   -0.01 KCAL/MOL
REMARK 927      BINDING AFFINITY PREDICTED BY RF-SCORE:    0.00 PKD
ROOT
HETATM    1  N   UNL     1      -9.910   5.722  68.155  1.00  0.00    -0.128 NA 
HETATM    2  C   UNL     1      -9.241   6.365  67.115  1.00  0.00    -0.123 A  
HETATM    3  H1  UNL     1     -10.441   6.265  68.836  1.00  0.00     0.000 HD 
HETATM    4  H2  UNL     1      -9.239   5.142  68.659  1.00  0.00     0.000 HD 
HETATM    5  C   UNL     1      -8.510   5.618  66.177  1.00  0.00    -0.128 A  
HETATM    6  C   UNL     1      -7.954   6.210  65.023  1.00  0.00    -0.123 A  
HETATM    7  C   UNL     1      -8.160   7.561  64.750  1.00  0.00    -0.112 A  
HETATM    8  C   UNL     1      -8.923   8.273  65.654  1.00  0.00    -0.157 A  
HETATM    9  C   UNL     1      -9.448   7.699  66.800  1.00  0.00    -0.244 A  
HETATM   10  C   UNL     1     -10.165   8.756  67.520  1.00  0.00    -0.246 C  
HETATM   11  N   UNL     1     -10.066   9.891  66.761  1.00  0.00    -0.218 N  
HETATM   12  O   UNL     1     -10.690   8.619  68.610  1.00  0.00    -0.164 OA 
HETATM   13  C   UNL     1      -9.338   9.671  65.625  1.00  0.00    -0.237 C  
HETATM   14  O   UNL     1      -9.043  10.454  64.745  1.00  0.00    -0.182 OA 
ENDROOT
BRANCH  11  15
HETATM   15  C   UNL     1     -10.683  11.173  67.058  1.00  0.00    -0.268 C  
HETATM   16  C   UNL     1     -11.299  11.882  65.856  1.00  0.00    -0.365 C  
HETATM   17  C   UNL     1     -12.061  13.104  66.354  1.00  0.00    -0.447 C  
HETATM   18  C   UNL     1     -11.171  14.017  67.172  1.00  0.00    -0.313 C  
HETATM   19  O   UNL     1     -11.365  15.226  67.242  1.00  0.00    -0.332 OA 
HETATM   20  N   UNL     1     -10.153  13.422  67.876  1.00  0.00    -0.232 N  
HETATM   21  H   UNL     1      -9.681  14.001  68.571  1.00  0.00     0.000 HD 
HETATM   22  C   UNL     1      -9.700  12.126  67.744  1.00  0.00    -0.197 C  
HETATM   23  O   UNL     1      -8.605  11.792  68.188  1.00  0.00    -0.147 OA 
ENDBRANCH  11  15
TORSDOF 1
ENDMDL
MODEL      148
REMARK 921   NORMALIZED FREE ENERGY PREDICTED BY IDOCK:   -4.08 KCAL/MOL
REMARK 922        TOTAL FREE ENERGY PREDICTED BY IDOCK:   -4.37 KCAL/MOL
REMARK 923 INTER-LIGAND FREE ENERGY PREDICTED BY IDOCK:   -4.32 KCAL/MOL
REMARK 924 INTRA-LIGAND FREE ENERGY PREDICTED BY IDOCK:   -0.05 KCAL/MOL
REMARK 927      BINDING AFFINITY PREDICTED BY RF-SCORE:    0.00 PKD
ROOT
HETATM    1  N   UNL     1     -10.110  10.701  62.643  1.00  0.00    -0.763 NA 
HETATM    2  C   UNL     1     -10.312  11.004  63.989  1.00  0.00    -0.371 A  
HETATM    3  H1  UNL     1      -9.484   9.942  62.376  1.00  0.00     0.000 HD 
HETATM    4  H2  UNL     1      -9.810  11.551  62.165  1.00  0.00     0.000 HD 
HETATM    5  C   UNL     1     -11.174  12.048  64.357  1.00  0.00    -0.406 A  
HETATM    6  C   UNL     1     -11.530  12.282  65.703  1.00  0.00    -0.416 A  
HETATM    7  C   UNL     1     -11.069  11.442  66.715  1.00  0.00    -0.343 A  
HETATM    8  C   UNL     1     -10.261  10.388  66.333  1.00  0.00    -0.292 A  
HETATM    9  C   UNL     1      -9.892  10.172  65.016  1.00  0.00    -0.392 A  
HETATM   10  C   UNL     1      -9.019   8.994  65.002  1.00  0.00    -0.147 C  
HETATM   11  N   UNL     1      -8.937   8.545  66.294  1.00  0.00    -0.157 N  
HETATM   12  O   UNL     1      -8.451   8.563  64.015  1.00  0.00    -0.135 OA 
HETATM   13  C   UNL     1      -9.663   9.333  67.143  1.00  0.00    -0.172 C  
HETATM   14  O   UNL     1      -9.798   9.234  68.346  1.00  0.00    -0.148 OA 
ENDROOT
BRANCH  11  15
HETATM   15  C   UNL     1      -8.226   7.359  66.742  1.00  0.00    -0.121 C  
HETATM   16  C   UNL     1      -9.024   6.444  67.665  1.00  0.00    -0.113 C  
HETATM   17  C   UNL     1      -8.222   5.170  67.893  1.00  0.00    -0.098 C  
HETATM   18  C   UNL     1      -6.839   5.473  68.431  1.00  0.00    -0.059 C  
HETATM   19  O   UNL     1      -6.228   4.683  69.143  1.00  0.00    -0.028 OA 
HETATM   20  N   UNL     1      -6.272   6.664  68.048  1.00  0.00    -0.034 N  
HETATM   21  H   UNL     1      -5.278   6.781  68.247  1.00  0.00     0.000 HD 
HETATM   22  C   UNL     1      -6.904   7.720  67.424  1.00  0.00    -0.069 C  
HETATM   23  O   UNL     1      -6.395   8.837  67.406  1.00  0.00    -0.055 OA 
ENDBRANCH  11  15
TORSDOF 1
ENDMDL
MODEL      149
REMARK 921   NORMALIZED FREE ENERGY PREDICTED BY IDOCK:   -4.06 KCAL/MOL
REMARK 922        TOTAL FREE ENERGY PREDICTED BY IDOCK:   -4.34 KCAL/MOL
REMARK 923 INTER-LIGAND FREE ENERGY PREDICTED BY IDOCK:   -4.30 KCAL/MOL
REMARK 924 INTRA-LIGAND FREE ENERGY PREDICTED BY IDOCK:   -0.04 KCAL/MOL
REMARK 927      BINDING AFFINITY PREDICTED BY RF-SCORE:    0.00 PKD
ROOT
HETATM    1  N   UNL     1      -8.793   6.564  65.046  1.00  0.00    -0.352 NA 
HETATM    2  C   UNL     1      -7.988   7.162  66.015  1.00  0.00    -0.112 A  
HETATM    3  H1  UNL     1      -9.807   6.555  65.156  1.00  0.00     0.000 HD 
HETATM    4  H2  UNL     1      -8.475   5.604  64.911  1.00  0.00     0.000 HD 
HETATM    5  C   UNL     1      -6.593   7.175  65.864  1.00  0.00    -0.052 A  
HETATM    6  C   UNL     1      -5.756   7.906  66.734  1.00  0.00    -0.036 A  
HETATM    7  C   UNL     1      -6.301   8.686  67.753  1.00  0.00    -0.057 A  
HETATM    8  C   UNL     1      -7.677   8.704  67.859  1.00  0.00    -0.102 A  
HETATM    9  C   UNL     1      -8.498   7.968  67.020  1.00  0.00    -0.120 A  
HETATM   10  C   UNL     1      -9.879   8.212  67.449  1.00  0.00    -0.184 C  
HETATM   11  N   UNL     1      -9.821   9.101  68.490  1.00  0.00    -0.159 N  
HETATM   12  O   UNL     1     -10.859   7.666  66.977  1.00  0.00    -0.334 OA 
HETATM   13  C   UNL     1      -8.530   9.442  68.784  1.00  0.00    -0.122 C  
HETATM   14  O   UNL     1      -8.117  10.186  69.649  1.00  0.00    -0.156 OA 
ENDROOT
BRANCH  11  15
HETATM   15  C   UNL     1     -10.960   9.676  69.186  1.00  0.00    -0.151 C  
HETATM   16  C   UNL     1     -10.942  11.197  69.297  1.00  0.00    -0.300 C  
HETATM   17  C   UNL     1     -12.274  11.654  69.877  1.00  0.00    -0.310 C  
HETATM   18  C   UNL     1     -12.564  10.980  71.201  1.00  0.00    -0.418 C  
HETATM   19  O   UNL     1     -13.251  11.511  72.068  1.00  0.00    -0.509 OA 
HETATM   20  N   UNL     1     -12.059   9.715  71.377  1.00  0.00    -0.361 N  
HETATM   21  H   UNL     1     -12.412   9.189  72.177  1.00  0.00     0.000 HD 
HETATM   22  C   UNL     1     -11.124   9.079  70.586  1.00  0.00    -0.265 C  
HETATM   23  O   UNL     1     -10.519   8.091  70.996  1.00  0.00    -0.202 OA 
ENDBRANCH  11  15
TORSDOF 1
ENDMDL
MODEL      150
REMARK 921   NORMALIZED FREE ENERGY PREDICTED BY IDOCK:   -4.03 KCAL/MOL
REMARK 922        TOTAL FREE ENERGY PREDICTED BY IDOCK:   -4.31 KCAL/MOL
REMARK 923 INTER-LIGAND FREE ENERGY PREDICTED BY IDOCK:   -4.24 KCAL/MOL
REMARK 924 INTRA-LIGAND FREE ENERGY PREDICTED BY IDOCK:   -0.07 KCAL/MOL
REMARK 927      BINDING AFFINITY PREDICTED BY RF-SCORE:    0.00 PKD
ROOT
HETATM    1  N   UNL     1      -5.860  15.679  68.900  1.00  0.00    -0.102 NA 
HETATM    2  C   UNL     1      -6.869  16.123  68.047  1.00  0.00    -0.126 A  
HETATM    3  H1  UNL     1      -5.916  14.753  69.323  1.00  0.00     0.000 HD 
HETATM    4  H2  UNL     1      -5.744  16.367  69.645  1.00  0.00     0.000 HD 
HETATM    5  C   UNL     1      -6.792  17.398  67.465  1.00  0.00    -0.173 A  
HETATM    6  C   UNL     1      -7.704  17.822  66.475  1.00  0.00    -0.298 A  
HETATM    7  C   UNL     1      -8.691  16.958  66.004  1.00  0.00    -0.193 A  
HETATM    8  C   UNL     1      -8.724  15.690  66.549  1.00  0.00    -0.342 A  
HETATM    9  C   UNL     1      -7.845  15.281  67.538  1.00  0.00    -0.198 A  
HETATM   10  C   UNL     1      -8.200  13.901  67.884  1.00  0.00    -0.164 C  
HETATM   11  N   UNL     1      -9.240  13.541  67.069  1.00  0.00    -0.239 N  
HETATM   12  O   UNL     1      -7.677  13.252  68.772  1.00  0.00    -0.111 OA 
HETATM   13  C   UNL     1      -9.602  14.567  66.240  1.00  0.00    -0.304 C  
HETATM   14  O   UNL     1     -10.487  14.598  65.409  1.00  0.00    -0.327 OA 
ENDROOT
BRANCH  11  15
HETATM   15  C   UNL     1      -9.875  12.235  67.021  1.00  0.00    -0.205 C  
HETATM   16  C   UNL     1     -10.531  11.793  68.325  1.00  0.00    -0.224 C  
HETATM   17  C   UNL     1     -11.305  10.507  68.065  1.00  0.00    -0.319 C  
HETATM   18  C   UNL     1     -10.415   9.435  67.472  1.00  0.00    -0.280 C  
HETATM   19  O   UNL     1     -10.630   8.239  67.643  1.00  0.00    -0.241 OA 
HETATM   20  N   UNL     1      -9.369   9.859  66.689  1.00  0.00    -0.153 N  
HETATM   21  H   UNL     1      -8.893   9.145  66.137  1.00  0.00     0.000 HD 
HETATM   22  C   UNL     1      -8.895  11.149  66.568  1.00  0.00    -0.171 C  
HETATM   23  O   UNL     1      -7.784  11.370  66.094  1.00  0.00    -0.067 OA 
ENDBRANCH  11  15
TORSDOF 1
ENDMDL
MODEL      151
REMARK 921   NORMALIZED FREE ENERGY PREDICTED BY IDOCK:   -4.01 KCAL/MOL
REMARK 922        TOTAL FREE ENERGY PREDICTED BY IDOCK:   -4.29 KCAL/MOL
REMARK 923 INTER-LIGAND FREE ENERGY PREDICTED BY IDOCK:   -4.25 KCAL/MOL
REMARK 924 INTRA-LIGAND FREE ENERGY PREDICTED BY IDOCK:   -0.04 KCAL/MOL
REMARK 927      BINDING AFFINITY PREDICTED BY RF-SCORE:    0.00 PKD
ROOT
HETATM    1  N   UNL     1      -8.132   9.635  62.982  1.00  0.00    -0.134 NA 
HETATM    2  C   UNL     1      -8.914  10.551  63.684  1.00  0.00    -0.218 A  
HETATM    3  H1  UNL     1      -7.556   8.961  63.485  1.00  0.00     0.000 HD 
HETATM    4  H2  UNL     1      -7.533  10.152  62.337  1.00  0.00     0.000 HD 
HETATM    5  C   UNL     1      -9.707  11.479  62.991  1.00  0.00    -0.382 A  
HETATM    6  C   UNL     1     -10.632  12.312  63.656  1.00  0.00    -0.501 A  
HETATM    7  C   UNL     1     -10.824  12.202  65.032  1.00  0.00    -0.344 A  
HETATM    8  C   UNL     1     -10.074  11.250  65.694  1.00  0.00    -0.295 A  
HETATM    9  C   UNL     1      -9.148  10.449  65.046  1.00  0.00    -0.237 A  
HETATM   10  C   UNL     1      -8.533   9.593  66.066  1.00  0.00    -0.124 C  
HETATM   11  N   UNL     1      -9.139   9.895  67.256  1.00  0.00    -0.135 N  
HETATM   12  O   UNL     1      -7.622   8.813  65.858  1.00  0.00    -0.087 OA 
HETATM   13  C   UNL     1     -10.077  10.878  67.104  1.00  0.00    -0.198 C  
HETATM   14  O   UNL     1     -10.784  11.393  67.946  1.00  0.00    -0.182 OA 
ENDROOT
BRANCH  11  15
HETATM   15  C   UNL     1      -8.887   9.244  68.531  1.00  0.00    -0.129 C  
HETATM   16  C   UNL     1     -10.133   8.727  69.244  1.00  0.00    -0.206 C  
HETATM   17  C   UNL     1      -9.694   7.915  70.456  1.00  0.00    -0.174 C  
HETATM   18  C   UNL     1      -8.797   8.724  71.370  1.00  0.00    -0.225 C  
HETATM   19  O   UNL     1      -8.736   8.515  72.577  1.00  0.00    -0.275 OA 
HETATM   20  N   UNL     1      -8.012   9.683  70.778  1.00  0.00    -0.103 N  
HETATM   21  H   UNL     1      -7.275  10.089  71.356  1.00  0.00     0.000 HD 
HETATM   22  C   UNL     1      -8.114  10.157  69.487  1.00  0.00    -0.170 C  
HETATM   23  O   UNL     1      -7.579  11.212  69.158  1.00  0.00    -0.132 OA 
ENDBRANCH  11  15
TORSDOF 1
ENDMDL
MODEL      152
REMARK 921   NORMALIZED FREE ENERGY PREDICTED BY IDOCK:   -3.99 KCAL/MOL
REMARK 922        TOTAL FREE ENERGY PREDICTED BY IDOCK:   -4.26 KCAL/MOL
REMARK 923 INTER-LIGAND FREE ENERGY PREDICTED BY IDOCK:   -4.17 KCAL/MOL
REMARK 924 INTRA-LIGAND FREE ENERGY PREDICTED BY IDOCK:   -0.10 KCAL/MOL
REMARK 927      BINDING AFFINITY PREDICTED BY RF-SCORE:    0.00 PKD
ROOT
HETATM    1  N   UNL     1      -5.924   5.553  70.419  1.00  0.00    -0.024 NA 
HETATM    2  C   UNL     1      -6.362   6.032  69.184  1.00  0.00    -0.041 A  
HETATM    3  H1  UNL     1      -6.411   5.819  71.274  1.00  0.00     0.000 HD 
HETATM    4  H2  UNL     1      -4.937   5.789  70.523  1.00  0.00     0.000 HD 
HETATM    5  C   UNL     1      -5.692   5.665  68.007  1.00  0.00    -0.012 A  
HETATM    6  C   UNL     1      -6.194   5.995  66.730  1.00  0.00    -0.029 A  
HETATM    7  C   UNL     1      -7.412   6.660  66.597  1.00  0.00    -0.079 A  
HETATM    8  C   UNL     1      -8.086   6.970  67.762  1.00  0.00    -0.114 A  
HETATM    9  C   UNL     1      -7.581   6.669  69.017  1.00  0.00    -0.101 A  
HETATM   10  C   UNL     1      -8.547   7.171  69.999  1.00  0.00    -0.141 C  
HETATM   11  N   UNL     1      -9.589   7.712  69.293  1.00  0.00    -0.159 N  
HETATM   12  O   UNL     1      -8.388   7.141  71.206  1.00  0.00    -0.112 OA 
HETATM   13  C   UNL     1      -9.379   7.620  67.945  1.00  0.00    -0.139 C  
HETATM   14  O   UNL     1     -10.084   8.008  67.036  1.00  0.00    -0.222 OA 
ENDROOT
BRANCH  11  15
HETATM   15  C   UNL     1     -10.804   8.273  69.859  1.00  0.00    -0.213 C  
HETATM   16  C   UNL     1     -10.585   9.451  70.803  1.00  0.00    -0.371 C  
HETATM   17  C   UNL     1     -11.943  10.041  71.161  1.00  0.00    -0.484 C  
HETATM   18  C   UNL     1     -12.866   8.994  71.747  1.00  0.00    -0.374 C  
HETATM   19  O   UNL     1     -13.755   9.278  72.543  1.00  0.00    -0.467 OA 
HETATM   20  N   UNL     1     -12.695   7.702  71.311  1.00  0.00    -0.465 N  
HETATM   21  H   UNL     1     -13.431   7.038  71.551  1.00  0.00     0.000 HD 
HETATM   22  C   UNL     1     -11.633   7.208  70.582  1.00  0.00    -0.314 C  
HETATM   23  O   UNL     1     -11.426   6.000  70.510  1.00  0.00    -0.304 OA 
ENDBRANCH  11  15
TORSDOF 1
ENDMDL
MODEL      153
REMARK 921   NORMALIZED FREE ENERGY PREDICTED BY IDOCK:   -3.97 KCAL/MOL
REMARK 922        TOTAL FREE ENERGY PREDICTED BY IDOCK:   -4.24 KCAL/MOL
REMARK 923 INTER-LIGAND FREE ENERGY PREDICTED BY IDOCK:   -4.12 KCAL/MOL
REMARK 924 INTRA-LIGAND FREE ENERGY PREDICTED BY IDOCK:   -0.12 KCAL/MOL
REMARK 927      BINDING AFFINITY PREDICTED BY RF-SCORE:    0.00 PKD
ROOT
HETATM    1  N   UNL     1      -9.554   4.892  64.428  1.00  0.00    -0.353 NA 
HETATM    2  C   UNL     1      -9.414   3.805  65.290  1.00  0.00    -0.168 A  
HETATM    3  H1  UNL     1      -9.924   5.777  64.774  1.00  0.00     0.000 HD 
HETATM    4  H2  UNL     1     -10.117   4.598  63.629  1.00  0.00     0.000 HD 
HETATM    5  C   UNL     1      -8.905   2.587  64.813  1.00  0.00    -0.116 A  
HETATM    6  C   UNL     1      -8.597   1.517  65.682  1.00  0.00    -0.105 A  
HETATM    7  C   UNL     1      -8.745   1.658  67.060  1.00  0.00    -0.122 A  
HETATM    8  C   UNL     1      -9.199   2.879  67.520  1.00  0.00    -0.233 A  
HETATM    9  C   UNL     1      -9.524   3.921  66.667  1.00  0.00    -0.217 A  
HETATM   10  C   UNL     1      -9.991   5.030  67.504  1.00  0.00    -0.167 C  
HETATM   11  N   UNL     1      -9.890   4.616  68.806  1.00  0.00    -0.157 N  
HETATM   12  O   UNL     1     -10.428   6.084  67.078  1.00  0.00    -0.205 OA 
HETATM   13  C   UNL     1      -9.416   3.336  68.887  1.00  0.00    -0.121 C  
HETATM   14  O   UNL     1      -9.220   2.658  69.875  1.00  0.00    -0.115 OA 
ENDROOT
BRANCH  11  15
HETATM   15  C   UNL     1     -10.186   5.418  69.981  1.00  0.00    -0.279 C  
HETATM   16  C   UNL     1     -11.465   6.243  69.888  1.00  0.00    -0.459 C  
HETATM   17  C   UNL     1     -11.734   6.872  71.249  1.00  0.00    -0.371 C  
HETATM   18  C   UNL     1     -10.552   7.689  71.727  1.00  0.00    -0.214 C  
HETATM   19  O   UNL     1     -10.682   8.652  72.475  1.00  0.00    -0.307 OA 
HETATM   20  N   UNL     1      -9.307   7.275  71.318  1.00  0.00    -0.155 N  
HETATM   21  H   UNL     1      -8.508   7.699  71.790  1.00  0.00     0.000 HD 
HETATM   22  C   UNL     1      -9.022   6.347  70.338  1.00  0.00    -0.155 C  
HETATM   23  O   UNL     1      -7.901   6.278  69.842  1.00  0.00    -0.105 OA 
ENDBRANCH  11  15
TORSDOF 1
ENDMDL
MODEL      154
REMARK 921   NORMALIZED FREE ENERGY PREDICTED BY IDOCK:   -3.95 KCAL/MOL
REMARK 922        TOTAL FREE ENERGY PREDICTED BY IDOCK:   -4.22 KCAL/MOL
REMARK 923 INTER-LIGAND FREE ENERGY PREDICTED BY IDOCK:   -4.13 KCAL/MOL
REMARK 924 INTRA-LIGAND FREE ENERGY PREDICTED BY IDOCK:   -0.09 KCAL/MOL
REMARK 927      BINDING AFFINITY PREDICTED BY RF-SCORE:    0.00 PKD
ROOT
HETATM    1  N   UNL     1     -10.283   4.102  66.301  1.00  0.00    -0.412 NA 
HETATM    2  C   UNL     1      -9.045   4.672  66.595  1.00  0.00    -0.119 A  
HETATM    3  H1  UNL     1     -11.134   4.661  66.368  1.00  0.00     0.000 HD 
HETATM    4  H2  UNL     1     -10.398   3.269  66.878  1.00  0.00     0.000 HD 
HETATM    5  C   UNL     1      -7.874   3.903  66.502  1.00  0.00    -0.089 A  
HETATM    6  C   UNL     1      -6.592   4.479  66.633  1.00  0.00    -0.050 A  
HETATM    7  C   UNL     1      -6.447   5.854  66.811  1.00  0.00    -0.050 A  
HETATM    8  C   UNL     1      -7.605   6.605  66.851  1.00  0.00    -0.095 A  
HETATM    9  C   UNL     1      -8.864   6.038  66.747  1.00  0.00    -0.120 A  
HETATM   10  C   UNL     1      -9.837   7.129  66.860  1.00  0.00    -0.208 C  
HETATM   11  N   UNL     1      -9.120   8.289  66.989  1.00  0.00    -0.140 N  
HETATM   12  O   UNL     1     -11.046   6.981  66.884  1.00  0.00    -0.359 OA 
HETATM   13  C   UNL     1      -7.775   8.047  66.986  1.00  0.00    -0.100 C  
HETATM   14  O   UNL     1      -6.859   8.836  67.097  1.00  0.00    -0.065 OA 
ENDROOT
BRANCH  11  15
HETATM   15  C   UNL     1      -9.674   9.630  67.069  1.00  0.00    -0.181 C  
HETATM   16  C   UNL     1     -10.921   9.757  67.939  1.00  0.00    -0.246 C  
HETATM   17  C   UNL     1     -11.267  11.234  68.073  1.00  0.00    -0.351 C  
HETATM   18  C   UNL     1     -11.436  11.891  66.719  1.00  0.00    -0.316 C  
HETATM   19  O   UNL     1     -12.172  12.857  66.549  1.00  0.00    -0.441 OA 
HETATM   20  N   UNL     1     -10.689  11.381  65.686  1.00  0.00    -0.261 N  
HETATM   21  H   UNL     1     -10.654  11.937  64.830  1.00  0.00     0.000 HD 
HETATM   22  C   UNL     1      -9.980  10.197  65.680  1.00  0.00    -0.279 C  
HETATM   23  O   UNL     1      -9.608   9.690  64.625  1.00  0.00    -0.247 OA 
ENDBRANCH  11  15
TORSDOF 1
ENDMDL
MODEL      155
REMARK 921   NORMALIZED FREE ENERGY PREDICTED BY IDOCK:   -3.90 KCAL/MOL
REMARK 922        TOTAL FREE ENERGY PREDICTED BY IDOCK:   -4.17 KCAL/MOL
REMARK 923 INTER-LIGAND FREE ENERGY PREDICTED BY IDOCK:   -4.13 KCAL/MOL
REMARK 924 INTRA-LIGAND FREE ENERGY PREDICTED BY IDOCK:   -0.05 KCAL/MOL
REMARK 927      BINDING AFFINITY PREDICTED BY RF-SCORE:    0.00 PKD
ROOT
HETATM    1  N   UNL     1      -9.289   6.919  72.815  1.00  0.00    -0.135 NA 
HETATM    2  C   UNL     1     -10.307   7.632  72.183  1.00  0.00    -0.221 A  
HETATM    3  H1  UNL     1      -8.467   6.623  72.289  1.00  0.00     0.000 HD 
HETATM    4  H2  UNL     1      -9.700   6.098  73.259  1.00  0.00     0.000 HD 
HETATM    5  C   UNL     1     -11.438   8.040  72.908  1.00  0.00    -0.329 A  
HETATM    6  C   UNL     1     -12.410   8.898  72.351  1.00  0.00    -0.385 A  
HETATM    7  C   UNL     1     -12.249   9.412  71.065  1.00  0.00    -0.354 A  
HETATM    8  C   UNL     1     -11.107   9.044  70.382  1.00  0.00    -0.279 A  
HETATM    9  C   UNL     1     -10.164   8.182  70.919  1.00  0.00    -0.216 A  
HETATM   10  C   UNL     1      -9.121   8.002  69.905  1.00  0.00    -0.145 C  
HETATM   11  N   UNL     1      -9.467   8.784  68.835  1.00  0.00    -0.145 N  
HETATM   12  O   UNL     1      -8.171   7.249  70.013  1.00  0.00    -0.127 OA 
HETATM   13  C   UNL     1     -10.646   9.440  69.057  1.00  0.00    -0.213 C  
HETATM   14  O   UNL     1     -11.248  10.196  68.321  1.00  0.00    -0.255 OA 
ENDROOT
BRANCH  11  15
HETATM   15  C   UNL     1      -8.688   8.965  67.622  1.00  0.00    -0.124 C  
HETATM   16  C   UNL     1      -8.461  10.418  67.217  1.00  0.00    -0.122 C  
HETATM   17  C   UNL     1      -7.482  10.447  66.050  1.00  0.00    -0.134 C  
HETATM   18  C   UNL     1      -7.968   9.593  64.897  1.00  0.00    -0.124 C  
HETATM   19  O   UNL     1      -7.668   9.835  63.732  1.00  0.00    -0.124 OA 
HETATM   20  N   UNL     1      -8.731   8.496  65.216  1.00  0.00    -0.292 N  
HETATM   21  H   UNL     1      -8.893   7.820  64.469  1.00  0.00     0.000 HD 
HETATM   22  C   UNL     1      -9.303   8.212  66.439  1.00  0.00    -0.210 C  
HETATM   23  O   UNL     1     -10.205   7.385  66.536  1.00  0.00    -0.194 OA 
ENDBRANCH  11  15
TORSDOF 1
ENDMDL
MODEL      156
REMARK 921   NORMALIZED FREE ENERGY PREDICTED BY IDOCK:   -3.85 KCAL/MOL
REMARK 922        TOTAL FREE ENERGY PREDICTED BY IDOCK:   -4.12 KCAL/MOL
REMARK 923 INTER-LIGAND FREE ENERGY PREDICTED BY IDOCK:   -4.13 KCAL/MOL
REMARK 924 INTRA-LIGAND FREE ENERGY PREDICTED BY IDOCK:    0.01 KCAL/MOL
REMARK 927      BINDING AFFINITY PREDICTED BY RF-SCORE:    0.00 PKD
ROOT
HETATM    1  N   UNL     1      -8.632   7.183  65.452  1.00  0.00    -0.313 NA 
HETATM    2  C   UNL     1      -8.053   6.375  66.430  1.00  0.00    -0.112 A  
HETATM    3  H1  UNL     1      -9.491   7.695  65.652  1.00  0.00     0.000 HD 
HETATM    4  H2  UNL     1      -8.781   6.619  64.615  1.00  0.00     0.000 HD 
HETATM    5  C   UNL     1      -6.870   5.671  66.155  1.00  0.00    -0.058 A  
HETATM    6  C   UNL     1      -6.167   4.974  67.160  1.00  0.00    -0.035 A  
HETATM    7  C   UNL     1      -6.605   5.005  68.483  1.00  0.00    -0.049 A  
HETATM    8  C   UNL     1      -7.741   5.743  68.749  1.00  0.00    -0.090 A  
HETATM    9  C   UNL     1      -8.446   6.408  67.759  1.00  0.00    -0.117 A  
HETATM   10  C   UNL     1      -9.596   7.048  68.406  1.00  0.00    -0.135 C  
HETATM   11  N   UNL     1      -9.505   6.768  69.744  1.00  0.00    -0.145 N  
HETATM   12  O   UNL     1     -10.471   7.658  67.819  1.00  0.00    -0.211 OA 
HETATM   13  C   UNL     1      -8.413   5.993  70.019  1.00  0.00    -0.131 C  
HETATM   14  O   UNL     1      -8.042   5.551  71.088  1.00  0.00    -0.107 OA 
ENDROOT
BRANCH  11  15
HETATM   15  C   UNL     1     -10.402   7.254  70.780  1.00  0.00    -0.202 C  
HETATM   16  C   UNL     1     -11.838   6.752  70.671  1.00  0.00    -0.442 C  
HETATM   17  C   UNL     1     -12.598   7.190  71.916  1.00  0.00    -0.328 C  
HETATM   18  C   UNL     1     -12.521   8.690  72.114  1.00  0.00    -0.389 C  
HETATM   19  O   UNL     1     -13.406   9.319  72.686  1.00  0.00    -0.430 OA 
HETATM   20  N   UNL     1     -11.387   9.318  71.661  1.00  0.00    -0.381 N  
HETATM   21  H   UNL     1     -11.248  10.282  71.964  1.00  0.00     0.000 HD 
HETATM   22  C   UNL     1     -10.415   8.784  70.841  1.00  0.00    -0.221 C  
HETATM   23  O   UNL     1      -9.618   9.510  70.253  1.00  0.00    -0.233 OA 
ENDBRANCH  11  15
TORSDOF 1
ENDMDL
MODEL      157
REMARK 921   NORMALIZED FREE ENERGY PREDICTED BY IDOCK:   -3.84 KCAL/MOL
REMARK 922        TOTAL FREE ENERGY PREDICTED BY IDOCK:   -4.11 KCAL/MOL
REMARK 923 INTER-LIGAND FREE ENERGY PREDICTED BY IDOCK:   -3.98 KCAL/MOL
REMARK 924 INTRA-LIGAND FREE ENERGY PREDICTED BY IDOCK:   -0.13 KCAL/MOL
REMARK 927      BINDING AFFINITY PREDICTED BY RF-SCORE:    0.00 PKD
ROOT
HETATM    1  N   UNL     1     -10.747   5.153  68.183  1.00  0.00     0.070 NA 
HETATM    2  C   UNL     1     -10.147   5.890  69.204  1.00  0.00    -0.190 A  
HETATM    3  H1  UNL     1     -11.150   5.628  67.376  1.00  0.00     0.000 HD 
HETATM    4  H2  UNL     1     -11.463   4.555  68.597  1.00  0.00     0.000 HD 
HETATM    5  C   UNL     1      -9.592   5.236  70.315  1.00  0.00    -0.241 A  
HETATM    6  C   UNL     1      -8.837   5.928  71.286  1.00  0.00    -0.137 A  
HETATM    7  C   UNL     1      -8.576   7.289  71.144  1.00  0.00    -0.130 A  
HETATM    8  C   UNL     1      -9.086   7.910  70.021  1.00  0.00    -0.152 A  
HETATM    9  C   UNL     1      -9.847   7.237  69.079  1.00  0.00    -0.165 A  
HETATM   10  C   UNL     1     -10.232   8.217  68.058  1.00  0.00    -0.214 C  
HETATM   11  N   UNL     1      -9.658   9.409  68.415  1.00  0.00    -0.145 N  
HETATM   12  O   UNL     1     -10.967   7.985  67.116  1.00  0.00    -0.191 OA 
HETATM   13  C   UNL     1      -8.953   9.294  69.580  1.00  0.00    -0.160 C  
HETATM   14  O   UNL     1      -8.339  10.148  70.187  1.00  0.00    -0.125 OA 
ENDROOT
BRANCH  11  15
HETATM   15  C   UNL     1      -9.722  10.647  67.657  1.00  0.00    -0.165 C  
HETATM   16  C   UNL     1     -11.133  11.136  67.346  1.00  0.00    -0.370 C  
HETATM   17  C   UNL     1     -11.037  12.521  66.720  1.00  0.00    -0.323 C  
HETATM   18  C   UNL     1     -10.142  12.518  65.499  1.00  0.00    -0.265 C  
HETATM   19  O   UNL     1     -10.296  13.309  64.574  1.00  0.00    -0.397 OA 
HETATM   20  N   UNL     1      -9.110  11.611  65.488  1.00  0.00    -0.401 N  
HETATM   21  H   UNL     1      -8.400  11.737  64.767  1.00  0.00     0.000 HD 
HETATM   22  C   UNL     1      -8.932  10.548  66.349  1.00  0.00    -0.159 C  
HETATM   23  O   UNL     1      -8.163   9.632  66.069  1.00  0.00    -0.117 OA 
ENDBRANCH  11  15
TORSDOF 1
ENDMDL
MODEL      158
REMARK 921   NORMALIZED FREE ENERGY PREDICTED BY IDOCK:   -3.84 KCAL/MOL
REMARK 922        TOTAL FREE ENERGY PREDICTED BY IDOCK:   -4.11 KCAL/MOL
REMARK 923 INTER-LIGAND FREE ENERGY PREDICTED BY IDOCK:   -4.07 KCAL/MOL
REMARK 924 INTRA-LIGAND FREE ENERGY PREDICTED BY IDOCK:   -0.04 KCAL/MOL
REMARK 927      BINDING AFFINITY PREDICTED BY RF-SCORE:    0.00 PKD
ROOT
HETATM    1  N   UNL     1      -7.484   3.005  72.616  1.00  0.00    -0.048 NA 
HETATM    2  C   UNL     1      -8.822   3.355  72.788  1.00  0.00    -0.085 A  
HETATM    3  H1  UNL     1      -6.939   3.417  71.858  1.00  0.00     0.000 HD 
HETATM    4  H2  UNL     1      -7.425   1.989  72.539  1.00  0.00     0.000 HD 
HETATM    5  C   UNL     1      -9.572   2.788  73.831  1.00  0.00    -0.119 A  
HETATM    6  C   UNL     1     -10.875   3.232  74.139  1.00  0.00    -0.215 A  
HETATM    7  C   UNL     1     -11.446   4.295  73.440  1.00  0.00    -0.267 A  
HETATM    8  C   UNL     1     -10.679   4.876  72.450  1.00  0.00    -0.240 A  
HETATM    9  C   UNL     1      -9.409   4.425  72.131  1.00  0.00    -0.174 A  
HETATM   10  C   UNL     1      -8.923   5.257  71.026  1.00  0.00    -0.138 C  
HETATM   11  N   UNL     1      -9.901   6.180  70.763  1.00  0.00    -0.183 N  
HETATM   12  O   UNL     1      -7.866   5.091  70.445  1.00  0.00    -0.070 OA 
HETATM   13  C   UNL     1     -10.980   6.011  71.585  1.00  0.00    -0.272 C  
HETATM   14  O   UNL     1     -12.020   6.637  71.615  1.00  0.00    -0.318 OA 
ENDROOT
BRANCH  11  15
HETATM   15  C   UNL     1      -9.823   7.250  69.783  1.00  0.00    -0.177 C  
HETATM   16  C   UNL     1     -10.307   8.609  70.279  1.00  0.00    -0.217 C  
HETATM   17  C   UNL     1      -9.991   9.652  69.215  1.00  0.00    -0.197 C  
HETATM   18  C   UNL     1     -10.590   9.278  67.876  1.00  0.00    -0.231 C  
HETATM   19  O   UNL     1     -10.914  10.121  67.046  1.00  0.00    -0.209 OA 
HETATM   20  N   UNL     1     -10.715   7.937  67.605  1.00  0.00    -0.469 N  
HETATM   21  H   UNL     1     -10.932   7.684  66.641  1.00  0.00     0.000 HD 
HETATM   22  C   UNL     1     -10.578   6.895  68.499  1.00  0.00    -0.212 C  
HETATM   23  O   UNL     1     -11.007   5.775  68.233  1.00  0.00    -0.229 OA 
ENDBRANCH  11  15
TORSDOF 1
ENDMDL
MODEL      159
REMARK 921   NORMALIZED FREE ENERGY PREDICTED BY IDOCK:   -3.82 KCAL/MOL
REMARK 922        TOTAL FREE ENERGY PREDICTED BY IDOCK:   -4.09 KCAL/MOL
REMARK 923 INTER-LIGAND FREE ENERGY PREDICTED BY IDOCK:   -4.12 KCAL/MOL
REMARK 924 INTRA-LIGAND FREE ENERGY PREDICTED BY IDOCK:    0.03 KCAL/MOL
REMARK 927      BINDING AFFINITY PREDICTED BY RF-SCORE:    0.00 PKD
ROOT
HETATM    1  N   UNL     1      -7.115   2.658  69.251  1.00  0.00    -0.044 NA 
HETATM    2  C   UNL     1      -7.869   3.284  68.259  1.00  0.00    -0.059 A  
HETATM    3  H1  UNL     1      -7.053   3.067  70.183  1.00  0.00     0.000 HD 
HETATM    4  H2  UNL     1      -6.169   2.520  68.896  1.00  0.00     0.000 HD 
HETATM    5  C   UNL     1      -7.956   2.720  66.977  1.00  0.00    -0.075 A  
HETATM    6  C   UNL     1      -8.833   3.230  65.996  1.00  0.00    -0.138 A  
HETATM    7  C   UNL     1      -9.686   4.292  66.291  1.00  0.00    -0.225 A  
HETATM    8  C   UNL     1      -9.627   4.805  67.572  1.00  0.00    -0.190 A  
HETATM    9  C   UNL     1      -8.749   4.321  68.528  1.00  0.00    -0.121 A  
HETATM   10  C   UNL     1      -8.950   5.121  69.740  1.00  0.00    -0.110 C  
HETATM   11  N   UNL     1      -9.953   6.013  69.466  1.00  0.00    -0.169 N  
HETATM   12  O   UNL     1      -8.291   5.015  70.758  1.00  0.00    -0.102 OA 
HETATM   13  C   UNL     1     -10.407   5.875  68.184  1.00  0.00    -0.210 C  
HETATM   14  O   UNL     1     -11.270   6.507  67.609  1.00  0.00    -0.324 OA 
ENDROOT
BRANCH  11  15
HETATM   15  C   UNL     1     -10.527   6.966  70.401  1.00  0.00    -0.206 C  
HETATM   16  C   UNL     1     -12.029   6.816  70.626  1.00  0.00    -0.418 C  
HETATM   17  C   UNL     1     -12.442   7.749  71.758  1.00  0.00    -0.348 C  
HETATM   18  C   UNL     1     -12.038   9.180  71.473  1.00  0.00    -0.351 C  
HETATM   19  O   UNL     1     -12.659  10.137  71.925  1.00  0.00    -0.396 OA 
HETATM   20  N   UNL     1     -10.907   9.367  70.715  1.00  0.00    -0.277 N  
HETATM   21  H   UNL     1     -10.528  10.314  70.686  1.00  0.00     0.000 HD 
HETATM   22  C   UNL     1     -10.229   8.410  69.988  1.00  0.00    -0.202 C  
HETATM   23  O   UNL     1      -9.430   8.731  69.114  1.00  0.00    -0.155 OA 
ENDBRANCH  11  15
TORSDOF 1
ENDMDL
MODEL      160
REMARK 921   NORMALIZED FREE ENERGY PREDICTED BY IDOCK:   -3.81 KCAL/MOL
REMARK 922        TOTAL FREE ENERGY PREDICTED BY IDOCK:   -4.07 KCAL/MOL
REMARK 923 INTER-LIGAND FREE ENERGY PREDICTED BY IDOCK:   -3.92 KCAL/MOL
REMARK 924 INTRA-LIGAND FREE ENERGY PREDICTED BY IDOCK:   -0.15 KCAL/MOL
REMARK 927      BINDING AFFINITY PREDICTED BY RF-SCORE:    0.00 PKD
ROOT
HETATM    1  N   UNL     1      -8.783   3.720  71.617  1.00  0.00    -0.095 NA 
HETATM    2  C   UNL     1      -9.797   4.553  71.148  1.00  0.00    -0.193 A  
HETATM    3  H1  UNL     1      -8.227   3.170  70.962  1.00  0.00     0.000 HD 
HETATM    4  H2  UNL     1      -9.182   3.087  72.311  1.00  0.00     0.000 HD 
HETATM    5  C   UNL     1     -10.562   5.310  72.049  1.00  0.00    -0.279 A  
HETATM    6  C   UNL     1     -11.486   6.283  71.608  1.00  0.00    -0.351 A  
HETATM    7  C   UNL     1     -11.631   6.559  70.250  1.00  0.00    -0.473 A  
HETATM    8  C   UNL     1     -10.836   5.843  69.377  1.00  0.00    -0.422 A  
HETATM    9  C   UNL     1      -9.947   4.871  69.807  1.00  0.00    -0.314 A  
HETATM   10  C   UNL     1      -9.311   4.312  68.610  1.00  0.00    -0.152 C  
HETATM   11  N   UNL     1      -9.817   4.995  67.535  1.00  0.00    -0.158 N  
HETATM   12  O   UNL     1      -8.525   3.382  68.612  1.00  0.00    -0.074 OA 
HETATM   13  C   UNL     1     -10.734   5.930  67.925  1.00  0.00    -0.255 C  
HETATM   14  O   UNL     1     -11.383   6.693  67.239  1.00  0.00    -0.324 OA 
ENDROOT
BRANCH  11  15
HETATM   15  C   UNL     1      -9.422   4.816  66.148  1.00  0.00    -0.163 C  
HETATM   16  C   UNL     1      -9.377   3.366  65.676  1.00  0.00    -0.147 C  
HETATM   17  C   UNL     1      -9.134   3.356  64.173  1.00  0.00    -0.122 C  
HETATM   18  C   UNL     1      -7.881   4.123  63.807  1.00  0.00    -0.087 C  
HETATM   19  O   UNL     1      -7.215   3.852  62.813  1.00  0.00    -0.042 OA 
HETATM   20  N   UNL     1      -7.539   5.176  64.620  1.00  0.00    -0.076 N  
HETATM   21  H   UNL     1      -6.817   5.807  64.271  1.00  0.00     0.000 HD 
HETATM   22  C   UNL     1      -8.069   5.473  65.859  1.00  0.00    -0.110 C  
HETATM   23  O   UNL     1      -7.491   6.239  66.625  1.00  0.00    -0.086 OA 
ENDBRANCH  11  15
TORSDOF 1
ENDMDL
MODEL      161
REMARK 921   NORMALIZED FREE ENERGY PREDICTED BY IDOCK:   -3.80 KCAL/MOL
REMARK 922        TOTAL FREE ENERGY PREDICTED BY IDOCK:   -4.07 KCAL/MOL
REMARK 923 INTER-LIGAND FREE ENERGY PREDICTED BY IDOCK:   -4.06 KCAL/MOL
REMARK 924 INTRA-LIGAND FREE ENERGY PREDICTED BY IDOCK:   -0.00 KCAL/MOL
REMARK 927      BINDING AFFINITY PREDICTED BY RF-SCORE:    0.00 PKD
ROOT
HETATM    1  N   UNL     1      -5.902   7.608  66.126  1.00  0.00    -0.036 NA 
HETATM    2  C   UNL     1      -7.124   6.947  66.012  1.00  0.00    -0.073 A  
HETATM    3  H1  UNL     1      -5.823   8.444  66.705  1.00  0.00     0.000 HD 
HETATM    4  H2  UNL     1      -5.571   7.834  65.188  1.00  0.00     0.000 HD 
HETATM    5  C   UNL     1      -7.232   5.796  65.214  1.00  0.00    -0.070 A  
HETATM    6  C   UNL     1      -8.403   5.008  65.199  1.00  0.00    -0.138 A  
HETATM    7  C   UNL     1      -9.482   5.324  66.023  1.00  0.00    -0.169 A  
HETATM    8  C   UNL     1      -9.343   6.429  66.840  1.00  0.00    -0.150 A  
HETATM    9  C   UNL     1      -8.204   7.218  66.838  1.00  0.00    -0.117 A  
HETATM   10  C   UNL     1      -8.431   8.302  67.799  1.00  0.00    -0.131 C  
HETATM   11  N   UNL     1      -9.667   8.092  68.350  1.00  0.00    -0.154 N  
HETATM   12  O   UNL     1      -7.661   9.224  67.998  1.00  0.00    -0.088 OA 
HETATM   13  C   UNL     1     -10.267   6.982  67.823  1.00  0.00    -0.180 C  
HETATM   14  O   UNL     1     -11.361   6.518  68.070  1.00  0.00    -0.234 OA 
ENDROOT
BRANCH  11  15
HETATM   15  C   UNL     1     -10.279   8.889  69.400  1.00  0.00    -0.209 C  
HETATM   16  C   UNL     1     -11.019   8.085  70.465  1.00  0.00    -0.247 C  
HETATM   17  C   UNL     1     -11.438   9.034  71.580  1.00  0.00    -0.431 C  
HETATM   18  C   UNL     1     -12.262  10.187  71.048  1.00  0.00    -0.374 C  
HETATM   19  O   UNL     1     -13.104  10.760  71.733  1.00  0.00    -0.458 OA 
HETATM   20  N   UNL     1     -11.994  10.601  69.766  1.00  0.00    -0.395 N  
HETATM   21  H   UNL     1     -12.404  11.490  69.478  1.00  0.00     0.000 HD 
HETATM   22  C   UNL     1     -11.229   9.943  68.825  1.00  0.00    -0.072 C  
HETATM   23  O   UNL     1     -11.305  10.234  67.635  1.00  0.00    -0.335 OA 
ENDBRANCH  11  15
TORSDOF 1
ENDMDL
MODEL      162
REMARK 921   NORMALIZED FREE ENERGY PREDICTED BY IDOCK:   -3.79 KCAL/MOL
REMARK 922        TOTAL FREE ENERGY PREDICTED BY IDOCK:   -4.05 KCAL/MOL
REMARK 923 INTER-LIGAND FREE ENERGY PREDICTED BY IDOCK:   -4.01 KCAL/MOL
REMARK 924 INTRA-LIGAND FREE ENERGY PREDICTED BY IDOCK:   -0.04 KCAL/MOL
REMARK 927      BINDING AFFINITY PREDICTED BY RF-SCORE:    0.00 PKD
ROOT
HETATM    1  N   UNL     1      -6.431  11.724  69.488  1.00  0.00    -0.118 NA 
HETATM    2  C   UNL     1      -7.537  11.300  68.754  1.00  0.00    -0.130 A  
HETATM    3  H1  UNL     1      -6.290  11.391  70.442  1.00  0.00     0.000 HD 
HETATM    4  H2  UNL     1      -6.424  12.744  69.499  1.00  0.00     0.000 HD 
HETATM    5  C   UNL     1      -7.731  11.757  67.441  1.00  0.00    -0.151 A  
HETATM    6  C   UNL     1      -8.743  11.231  66.610  1.00  0.00    -0.174 A  
HETATM    7  C   UNL     1      -9.559  10.193  67.057  1.00  0.00    -0.209 A  
HETATM    8  C   UNL     1      -9.325   9.718  68.332  1.00  0.00    -0.135 A  
HETATM    9  C   UNL     1      -8.348  10.250  69.157  1.00  0.00    -0.154 A  
HETATM   10  C   UNL     1      -8.414   9.520  70.427  1.00  0.00    -0.201 C  
HETATM   11  N   UNL     1      -9.393   8.572  70.290  1.00  0.00    -0.159 N  
HETATM   12  O   UNL     1      -7.743   9.777  71.410  1.00  0.00    -0.098 OA 
HETATM   13  C   UNL     1      -9.978   8.633  69.056  1.00  0.00    -0.192 C  
HETATM   14  O   UNL     1     -10.881   7.957  68.606  1.00  0.00    -0.087 OA 
ENDROOT
BRANCH  11  15
HETATM   15  C   UNL     1      -9.762   7.577  71.283  1.00  0.00    -0.164 C  
HETATM   16  C   UNL     1      -9.781   6.139  70.772  1.00  0.00    -0.205 C  
HETATM   17  C   UNL     1      -9.998   5.208  71.958  1.00  0.00    -0.240 C  
HETATM   18  C   UNL     1     -11.254   5.567  72.723  1.00  0.00    -0.305 C  
HETATM   19  O   UNL     1     -11.899   4.733  73.349  1.00  0.00    -0.218 OA 
HETATM   20  N   UNL     1     -11.622   6.891  72.724  1.00  0.00    -0.489 N  
HETATM   21  H   UNL     1     -12.346   7.162  73.390  1.00  0.00     0.000 HD 
HETATM   22  C   UNL     1     -11.117   7.893  71.921  1.00  0.00    -0.267 C  
HETATM   23  O   UNL     1     -11.719   8.955  71.785  1.00  0.00    -0.314 OA 
ENDBRANCH  11  15
TORSDOF 1
ENDMDL
MODEL      163
REMARK 921   NORMALIZED FREE ENERGY PREDICTED BY IDOCK:   -3.77 KCAL/MOL
REMARK 922        TOTAL FREE ENERGY PREDICTED BY IDOCK:   -4.03 KCAL/MOL
REMARK 923 INTER-LIGAND FREE ENERGY PREDICTED BY IDOCK:   -4.00 KCAL/MOL
REMARK 924 INTRA-LIGAND FREE ENERGY PREDICTED BY IDOCK:   -0.04 KCAL/MOL
REMARK 927      BINDING AFFINITY PREDICTED BY RF-SCORE:    0.00 PKD
ROOT
HETATM    1  N   UNL     1      -6.116   6.922  67.191  1.00  0.00    -0.028 NA 
HETATM    2  C   UNL     1      -7.238   6.134  67.444  1.00  0.00    -0.076 A  
HETATM    3  H1  UNL     1      -6.197   7.938  67.171  1.00  0.00     0.000 HD 
HETATM    4  H2  UNL     1      -5.700   6.615  66.311  1.00  0.00     0.000 HD 
HETATM    5  C   UNL     1      -7.126   4.735  67.472  1.00  0.00    -0.065 A  
HETATM    6  C   UNL     1      -8.195   3.910  67.882  1.00  0.00    -0.095 A  
HETATM    7  C   UNL     1      -9.393   4.469  68.325  1.00  0.00    -0.190 A  
HETATM    8  C   UNL     1      -9.472   5.848  68.340  1.00  0.00    -0.130 A  
HETATM    9  C   UNL     1      -8.432   6.658  67.915  1.00  0.00    -0.119 A  
HETATM   10  C   UNL     1      -8.887   8.045  68.046  1.00  0.00    -0.128 C  
HETATM   11  N   UNL     1     -10.151   8.001  68.572  1.00  0.00    -0.194 N  
HETATM   12  O   UNL     1      -8.250   9.021  67.693  1.00  0.00    -0.108 OA 
HETATM   13  C   UNL     1     -10.562   6.713  68.777  1.00  0.00    -0.236 C  
HETATM   14  O   UNL     1     -11.622   6.311  69.211  1.00  0.00    -0.363 OA 
ENDROOT
BRANCH  11  15
HETATM   15  C   UNL     1     -10.967   9.149  68.930  1.00  0.00     0.017 C  
HETATM   16  C   UNL     1     -10.846  10.340  67.985  1.00  0.00    -0.325 C  
HETATM   17  C   UNL     1     -11.889  11.378  68.382  1.00  0.00    -0.344 C  
HETATM   18  C   UNL     1     -11.751  11.776  69.836  1.00  0.00    -0.323 C  
HETATM   19  O   UNL     1     -12.085  12.883  70.246  1.00  0.00    -0.347 OA 
HETATM   20  N   UNL     1     -11.271  10.819  70.698  1.00  0.00    -0.404 N  
HETATM   21  H   UNL     1     -11.360  11.018  71.695  1.00  0.00     0.000 HD 
HETATM   22  C   UNL     1     -10.681   9.619  70.359  1.00  0.00    -0.298 C  
HETATM   23  O   UNL     1     -10.019   8.989  71.179  1.00  0.00    -0.242 OA 
ENDBRANCH  11  15
TORSDOF 1
ENDMDL
MODEL      164
REMARK 921   NORMALIZED FREE ENERGY PREDICTED BY IDOCK:   -3.72 KCAL/MOL
REMARK 922        TOTAL FREE ENERGY PREDICTED BY IDOCK:   -3.98 KCAL/MOL
REMARK 923 INTER-LIGAND FREE ENERGY PREDICTED BY IDOCK:   -3.94 KCAL/MOL
REMARK 924 INTRA-LIGAND FREE ENERGY PREDICTED BY IDOCK:   -0.05 KCAL/MOL
REMARK 927      BINDING AFFINITY PREDICTED BY RF-SCORE:    0.00 PKD
ROOT
HETATM    1  N   UNL     1      -5.532  10.522  68.815  1.00  0.00    -0.041 NA 
HETATM    2  C   UNL     1      -6.590  10.464  67.909  1.00  0.00    -0.061 A  
HETATM    3  H1  UNL     1      -5.699  10.364  69.809  1.00  0.00     0.000 HD 
HETATM    4  H2  UNL     1      -5.064  11.421  68.706  1.00  0.00     0.000 HD 
HETATM    5  C   UNL     1      -6.360  10.680  66.541  1.00  0.00    -0.102 A  
HETATM    6  C   UNL     1      -7.368  10.473  65.575  1.00  0.00    -0.106 A  
HETATM    7  C   UNL     1      -8.622   9.994  65.949  1.00  0.00    -0.150 A  
HETATM    8  C   UNL     1      -8.819   9.738  67.291  1.00  0.00    -0.139 A  
HETATM    9  C   UNL     1      -7.839   9.964  68.244  1.00  0.00    -0.085 A  
HETATM   10  C   UNL     1      -8.414   9.609  69.545  1.00  0.00    -0.159 C  
HETATM   11  N   UNL     1      -9.686   9.158  69.307  1.00  0.00    -0.161 N  
HETATM   12  O   UNL     1      -7.852   9.754  70.615  1.00  0.00    -0.277 OA 
HETATM   13  C   UNL     1      -9.991   9.205  67.976  1.00  0.00    -0.178 C  
HETATM   14  O   UNL     1     -11.027   8.898  67.420  1.00  0.00    -0.125 OA 
ENDROOT
BRANCH  11  15
HETATM   15  C   UNL     1     -10.608   8.640  70.304  1.00  0.00    -0.223 C  
HETATM   16  C   UNL     1     -11.238   7.295  69.955  1.00  0.00    -0.234 C  
HETATM   17  C   UNL     1     -12.022   6.802  71.164  1.00  0.00    -0.421 C  
HETATM   18  C   UNL     1     -13.046   7.822  71.617  1.00  0.00    -0.345 C  
HETATM   19  O   UNL     1     -14.084   7.498  72.184  1.00  0.00    -0.215 OA 
HETATM   20  N   UNL     1     -12.740   9.144  71.403  1.00  0.00    -0.341 N  
HETATM   21  H   UNL     1     -13.329   9.831  71.876  1.00  0.00     0.000 HD 
HETATM   22  C   UNL     1     -11.721   9.643  70.617  1.00  0.00    -0.280 C  
HETATM   23  O   UNL     1     -11.724  10.815  70.251  1.00  0.00    -0.295 OA 
ENDBRANCH  11  15
TORSDOF 1
ENDMDL
MODEL      165
REMARK 921   NORMALIZED FREE ENERGY PREDICTED BY IDOCK:   -3.67 KCAL/MOL
REMARK 922        TOTAL FREE ENERGY PREDICTED BY IDOCK:   -3.92 KCAL/MOL
REMARK 923 INTER-LIGAND FREE ENERGY PREDICTED BY IDOCK:   -4.21 KCAL/MOL
REMARK 924 INTRA-LIGAND FREE ENERGY PREDICTED BY IDOCK:    0.29 KCAL/MOL
REMARK 927      BINDING AFFINITY PREDICTED BY RF-SCORE:    0.00 PKD
ROOT
HETATM    1  N   UNL     1      -8.187   3.653  70.340  1.00  0.00    -0.056 NA 
HETATM    2  C   UNL     1      -9.264   4.327  70.914  1.00  0.00    -0.137 A  
HETATM    3  H1  UNL     1      -7.728   4.031  69.512  1.00  0.00     0.000 HD 
HETATM    4  H2  UNL     1      -8.477   2.696  70.139  1.00  0.00     0.000 HD 
HETATM    5  C   UNL     1      -9.895   3.807  72.055  1.00  0.00    -0.243 A  
HETATM    6  C   UNL     1     -10.879   4.534  72.759  1.00  0.00    -0.239 A  
HETATM    7  C   UNL     1     -11.222   5.827  72.366  1.00  0.00    -0.343 A  
HETATM    8  C   UNL     1     -10.557   6.345  71.273  1.00  0.00    -0.275 A  
HETATM    9  C   UNL     1      -9.609   5.623  70.567  1.00  0.00    -0.221 A  
HETATM   10  C   UNL     1      -9.149   6.479  69.468  1.00  0.00    -0.140 C  
HETATM   11  N   UNL     1      -9.810   7.672  69.590  1.00  0.00    -0.179 N  
HETATM   12  O   UNL     1      -8.365   6.134  68.602  1.00  0.00    -0.113 OA 
HETATM   13  C   UNL     1     -10.667   7.662  70.655  1.00  0.00    -0.231 C  
HETATM   14  O   UNL     1     -11.414   8.538  71.040  1.00  0.00    -0.265 OA 
ENDROOT
BRANCH  11  15
HETATM   15  C   UNL     1      -9.619   8.843  68.750  1.00  0.00    -0.157 C  
HETATM   16  C   UNL     1      -9.974  10.170  69.412  1.00  0.00    -0.247 C  
HETATM   17  C   UNL     1      -9.548  11.301  68.485  1.00  0.00    -0.199 C  
HETATM   18  C   UNL     1     -10.167  11.156  67.111  1.00  0.00    -0.200 C  
HETATM   19  O   UNL     1     -10.400  12.123  66.393  1.00  0.00    -0.213 OA 
HETATM   20  N   UNL     1     -10.419   9.877  66.677  1.00  0.00    -0.200 N  
HETATM   21  H   UNL     1     -10.650   9.768  65.689  1.00  0.00     0.000 HD 
HETATM   22  C   UNL     1     -10.392   8.724  67.434  1.00  0.00    -0.280 C  
HETATM   23  O   UNL     1     -10.925   7.694  67.031  1.00  0.00    -0.277 OA 
ENDBRANCH  11  15
TORSDOF 1
ENDMDL
MODEL      166
REMARK 921   NORMALIZED FREE ENERGY PREDICTED BY IDOCK:   -3.65 KCAL/MOL
REMARK 922        TOTAL FREE ENERGY PREDICTED BY IDOCK:   -3.91 KCAL/MOL
REMARK 923 INTER-LIGAND FREE ENERGY PREDICTED BY IDOCK:   -3.78 KCAL/MOL
REMARK 924 INTRA-LIGAND FREE ENERGY PREDICTED BY IDOCK:   -0.13 KCAL/MOL
REMARK 927      BINDING AFFINITY PREDICTED BY RF-SCORE:    0.00 PKD
ROOT
HETATM    1  N   UNL     1      -5.607   6.470  65.370  1.00  0.00    -0.024 NA 
HETATM    2  C   UNL     1      -6.841   6.068  65.881  1.00  0.00    -0.057 A  
HETATM    3  H1  UNL     1      -5.523   7.354  64.869  1.00  0.00     0.000 HD 
HETATM    4  H2  UNL     1      -5.249   5.725  64.772  1.00  0.00     0.000 HD 
HETATM    5  C   UNL     1      -6.956   4.851  66.572  1.00  0.00    -0.067 A  
HETATM    6  C   UNL     1      -8.143   4.485  67.242  1.00  0.00    -0.101 A  
HETATM    7  C   UNL     1      -9.233   5.352  67.280  1.00  0.00    -0.111 A  
HETATM    8  C   UNL     1      -9.088   6.567  66.639  1.00  0.00    -0.159 A  
HETATM    9  C   UNL     1      -7.933   6.918  65.961  1.00  0.00    -0.109 A  
HETATM   10  C   UNL     1      -8.158   8.250  65.390  1.00  0.00    -0.135 C  
HETATM   11  N   UNL     1      -9.410   8.643  65.780  1.00  0.00    -0.195 N  
HETATM   12  O   UNL     1      -7.373   8.836  64.667  1.00  0.00    -0.093 OA 
HETATM   13  C   UNL     1     -10.022   7.682  66.536  1.00  0.00    -0.155 C  
HETATM   14  O   UNL     1     -11.132   7.693  67.029  1.00  0.00    -0.171 OA 
ENDROOT
BRANCH  11  15
HETATM   15  C   UNL     1     -10.029   9.927  65.496  1.00  0.00    -0.292 C  
HETATM   16  C   UNL     1      -9.874  10.407  64.056  1.00  0.00    -0.355 C  
HETATM   17  C   UNL     1     -10.725  11.657  63.870  1.00  0.00    -0.459 C  
HETATM   18  C   UNL     1     -10.367  12.727  64.879  1.00  0.00    -0.309 C  
HETATM   19  O   UNL     1     -10.510  13.923  64.643  1.00  0.00    -0.425 OA 
HETATM   20  N   UNL     1      -9.911  12.299  66.102  1.00  0.00    -0.240 N  
HETATM   21  H   UNL     1      -9.856  13.001  66.840  1.00  0.00     0.000 HD 
HETATM   22  C   UNL     1      -9.519  11.020  66.439  1.00  0.00    -0.193 C  
HETATM   23  O   UNL     1      -8.848  10.811  67.446  1.00  0.00    -0.129 OA 
ENDBRANCH  11  15
TORSDOF 1
ENDMDL
MODEL      167
REMARK 921   NORMALIZED FREE ENERGY PREDICTED BY IDOCK:   -3.65 KCAL/MOL
REMARK 922        TOTAL FREE ENERGY PREDICTED BY IDOCK:   -3.90 KCAL/MOL
REMARK 923 INTER-LIGAND FREE ENERGY PREDICTED BY IDOCK:   -3.86 KCAL/MOL
REMARK 924 INTRA-LIGAND FREE ENERGY PREDICTED BY IDOCK:   -0.04 KCAL/MOL
REMARK 927      BINDING AFFINITY PREDICTED BY RF-SCORE:    0.00 PKD
ROOT
HETATM    1  N   UNL     1      -9.507   9.187  64.459  1.00  0.00    -0.327 NA 
HETATM    2  C   UNL     1      -8.460   9.454  65.340  1.00  0.00    -0.148 A  
HETATM    3  H1  UNL     1     -10.331   8.678  64.781  1.00  0.00     0.000 HD 
HETATM    4  H2  UNL     1      -9.127   8.702  63.645  1.00  0.00     0.000 HD 
HETATM    5  C   UNL     1      -7.327  10.154  64.897  1.00  0.00    -0.136 A  
HETATM    6  C   UNL     1      -6.321  10.584  65.789  1.00  0.00    -0.129 A  
HETATM    7  C   UNL     1      -6.450  10.368  67.160  1.00  0.00    -0.072 A  
HETATM    8  C   UNL     1      -7.593   9.723  67.587  1.00  0.00    -0.091 A  
HETATM    9  C   UNL     1      -8.569   9.279  66.710  1.00  0.00    -0.134 A  
HETATM   10  C   UNL     1      -9.604   8.624  67.516  1.00  0.00    -0.157 C  
HETATM   11  N   UNL     1      -9.220   8.738  68.826  1.00  0.00    -0.141 N  
HETATM   12  O   UNL     1     -10.578   8.052  67.062  1.00  0.00    -0.335 OA 
HETATM   13  C   UNL     1      -8.025   9.391  68.940  1.00  0.00    -0.087 C  
HETATM   14  O   UNL     1      -7.391   9.649  69.943  1.00  0.00    -0.087 OA 
ENDROOT
BRANCH  11  15
HETATM   15  C   UNL     1      -9.978   8.285  69.980  1.00  0.00    -0.188 C  
HETATM   16  C   UNL     1     -10.083   9.298  71.116  1.00  0.00    -0.374 C  
HETATM   17  C   UNL     1     -11.051   8.756  72.159  1.00  0.00    -0.406 C  
HETATM   18  C   UNL     1     -10.634   7.383  72.643  1.00  0.00    -0.275 C  
HETATM   19  O   UNL     1     -10.910   6.976  73.767  1.00  0.00    -0.301 OA 
HETATM   20  N   UNL     1      -9.965   6.586  71.747  1.00  0.00    -0.177 N  
HETATM   21  H   UNL     1      -9.857   5.604  72.002  1.00  0.00     0.000 HD 
HETATM   22  C   UNL     1      -9.424   6.971  70.538  1.00  0.00    -0.166 C  
HETATM   23  O   UNL     1      -8.593   6.270  69.967  1.00  0.00    -0.131 OA 
ENDBRANCH  11  15
TORSDOF 1
ENDMDL
MODEL      168
REMARK 921   NORMALIZED FREE ENERGY PREDICTED BY IDOCK:   -3.65 KCAL/MOL
REMARK 922        TOTAL FREE ENERGY PREDICTED BY IDOCK:   -3.90 KCAL/MOL
REMARK 923 INTER-LIGAND FREE ENERGY PREDICTED BY IDOCK:   -3.76 KCAL/MOL
REMARK 924 INTRA-LIGAND FREE ENERGY PREDICTED BY IDOCK:   -0.15 KCAL/MOL
REMARK 927      BINDING AFFINITY PREDICTED BY RF-SCORE:    0.00 PKD
ROOT
HETATM    1  N   UNL     1      -8.672   1.643  65.220  1.00  0.00    -0.110 NA 
HETATM    2  C   UNL     1      -7.829   2.752  65.260  1.00  0.00    -0.081 A  
HETATM    3  H1  UNL     1      -9.375   1.507  65.946  1.00  0.00     0.000 HD 
HETATM    4  H2  UNL     1      -8.095   0.803  65.169  1.00  0.00     0.000 HD 
HETATM    5  C   UNL     1      -6.861   2.940  64.260  1.00  0.00    -0.036 A  
HETATM    6  C   UNL     1      -6.100   4.125  64.173  1.00  0.00    -0.021 A  
HETATM    7  C   UNL     1      -6.324   5.178  65.058  1.00  0.00    -0.035 A  
HETATM    8  C   UNL     1      -7.313   5.001  66.004  1.00  0.00    -0.078 A  
HETATM    9  C   UNL     1      -8.044   3.828  66.106  1.00  0.00    -0.100 A  
HETATM   10  C   UNL     1      -8.969   3.996  67.232  1.00  0.00    -0.133 C  
HETATM   11  N   UNL     1      -8.775   5.260  67.722  1.00  0.00    -0.104 N  
HETATM   12  O   UNL     1      -9.714   3.129  67.652  1.00  0.00    -0.136 OA 
HETATM   13  C   UNL     1      -7.798   5.919  67.028  1.00  0.00    -0.102 C  
HETATM   14  O   UNL     1      -7.364   7.040  67.203  1.00  0.00    -0.086 OA 
ENDROOT
BRANCH  11  15
HETATM   15  C   UNL     1      -9.522   5.881  68.803  1.00  0.00    -0.126 C  
HETATM   16  C   UNL     1      -9.678   5.018  70.051  1.00  0.00    -0.278 C  
HETATM   17  C   UNL     1     -10.310   5.865  71.147  1.00  0.00    -0.276 C  
HETATM   18  C   UNL     1     -11.622   6.470  70.694  1.00  0.00    -0.381 C  
HETATM   19  O   UNL     1     -12.525   6.738  71.480  1.00  0.00    -0.355 OA 
HETATM   20  N   UNL     1     -11.745   6.753  69.355  1.00  0.00    -0.631 N  
HETATM   21  H   UNL     1     -12.539   7.332  69.082  1.00  0.00     0.000 HD 
HETATM   22  C   UNL     1     -10.908   6.337  68.340  1.00  0.00    -0.319 C  
HETATM   23  O   UNL     1     -11.269   6.381  67.167  1.00  0.00    -0.370 OA 
ENDBRANCH  11  15
TORSDOF 1
ENDMDL
MODEL      169
REMARK 921   NORMALIZED FREE ENERGY PREDICTED BY IDOCK:   -3.65 KCAL/MOL
REMARK 922        TOTAL FREE ENERGY PREDICTED BY IDOCK:   -3.90 KCAL/MOL
REMARK 923 INTER-LIGAND FREE ENERGY PREDICTED BY IDOCK:   -3.77 KCAL/MOL
REMARK 924 INTRA-LIGAND FREE ENERGY PREDICTED BY IDOCK:   -0.13 KCAL/MOL
REMARK 927      BINDING AFFINITY PREDICTED BY RF-SCORE:    0.00 PKD
ROOT
HETATM    1  N   UNL     1      -5.534   7.108  66.745  1.00  0.00    -0.022 NA 
HETATM    2  C   UNL     1      -6.278   8.214  66.336  1.00  0.00    -0.046 A  
HETATM    3  H1  UNL     1      -5.803   6.589  67.581  1.00  0.00     0.000 HD 
HETATM    4  H2  UNL     1      -4.560   7.395  66.844  1.00  0.00     0.000 HD 
HETATM    5  C   UNL     1      -5.908   8.928  65.186  1.00  0.00    -0.055 A  
HETATM    6  C   UNL     1      -6.721   9.949  64.649  1.00  0.00    -0.123 A  
HETATM    7  C   UNL     1      -7.955  10.249  65.223  1.00  0.00    -0.148 A  
HETATM    8  C   UNL     1      -8.330   9.505  66.325  1.00  0.00    -0.117 A  
HETATM    9  C   UNL     1      -7.522   8.519  66.867  1.00  0.00    -0.084 A  
HETATM   10  C   UNL     1      -8.230   7.975  68.030  1.00  0.00    -0.129 C  
HETATM   11  N   UNL     1      -9.431   8.629  68.106  1.00  0.00    -0.140 N  
HETATM   12  O   UNL     1      -7.777   7.138  68.789  1.00  0.00    -0.111 OA 
HETATM   13  C   UNL     1      -9.558   9.557  67.110  1.00  0.00    -0.160 C  
HETATM   14  O   UNL     1     -10.478  10.318  66.890  1.00  0.00    -0.231 OA 
ENDROOT
BRANCH  11  15
HETATM   15  C   UNL     1     -10.486   8.368  69.071  1.00  0.00    -0.201 C  
HETATM   16  C   UNL     1     -10.057   8.469  70.531  1.00  0.00    -0.218 C  
HETATM   17  C   UNL     1     -11.298   8.356  71.407  1.00  0.00    -0.317 C  
HETATM   18  C   UNL     1     -12.070   7.086  71.116  1.00  0.00    -0.369 C  
HETATM   19  O   UNL     1     -12.756   6.529  71.967  1.00  0.00    -0.303 OA 
HETATM   20  N   UNL     1     -12.005   6.601  69.833  1.00  0.00    -0.639 N  
HETATM   21  H   UNL     1     -12.670   5.867  69.588  1.00  0.00     0.000 HD 
HETATM   22  C   UNL     1     -11.135   7.000  68.839  1.00  0.00    -0.050 C  
HETATM   23  O   UNL     1     -10.953   6.305  67.843  1.00  0.00    -0.306 OA 
ENDBRANCH  11  15
TORSDOF 1
ENDMDL
MODEL      170
REMARK 921   NORMALIZED FREE ENERGY PREDICTED BY IDOCK:   -3.61 KCAL/MOL
REMARK 922        TOTAL FREE ENERGY PREDICTED BY IDOCK:   -3.86 KCAL/MOL
REMARK 923 INTER-LIGAND FREE ENERGY PREDICTED BY IDOCK:   -3.71 KCAL/MOL
REMARK 924 INTRA-LIGAND FREE ENERGY PREDICTED BY IDOCK:   -0.15 KCAL/MOL
REMARK 927      BINDING AFFINITY PREDICTED BY RF-SCORE:    0.00 PKD
ROOT
HETATM    1  N   UNL     1     -10.851   7.117  73.471  1.00  0.00    -0.542 NA 
HETATM    2  C   UNL     1     -11.160   7.778  72.283  1.00  0.00    -0.301 A  
HETATM    3  H1  UNL     1     -10.412   6.197  73.447  1.00  0.00     0.000 HD 
HETATM    4  H2  UNL     1     -11.700   7.055  74.034  1.00  0.00     0.000 HD 
HETATM    5  C   UNL     1     -11.764   9.045  72.316  1.00  0.00    -0.283 A  
HETATM    6  C   UNL     1     -11.945   9.814  71.146  1.00  0.00    -0.463 A  
HETATM    7  C   UNL     1     -11.479   9.355  69.915  1.00  0.00    -0.054 A  
HETATM    8  C   UNL     1     -10.843   8.130  69.905  1.00  0.00    -0.215 A  
HETATM    9  C   UNL     1     -10.686   7.362  71.048  1.00  0.00    -0.244 A  
HETATM   10  C   UNL     1      -9.999   6.130  70.647  1.00  0.00    -0.188 C  
HETATM   11  N   UNL     1      -9.749   6.234  69.304  1.00  0.00    -0.136 N  
HETATM   12  O   UNL     1      -9.764   5.194  71.389  1.00  0.00    -0.155 OA 
HETATM   13  C   UNL     1     -10.224   7.411  68.797  1.00  0.00    -0.191 C  
HETATM   14  O   UNL     1     -10.188   7.818  67.653  1.00  0.00    -0.187 OA 
ENDROOT
BRANCH  11  15
HETATM   15  C   UNL     1      -9.028   5.266  68.494  1.00  0.00    -0.108 C  
HETATM   16  C   UNL     1      -9.519   3.828  68.626  1.00  0.00    -0.215 C  
HETATM   17  C   UNL     1      -8.800   2.976  67.588  1.00  0.00    -0.160 C  
HETATM   18  C   UNL     1      -7.296   3.089  67.722  1.00  0.00    -0.054 C  
HETATM   19  O   UNL     1      -6.540   2.181  67.392  1.00  0.00    -0.034 OA 
HETATM   20  N   UNL     1      -6.803   4.282  68.192  1.00  0.00    -0.047 N  
HETATM   21  H   UNL     1      -5.798   4.429  68.100  1.00  0.00     0.000 HD 
HETATM   22  C   UNL     1      -7.524   5.304  68.776  1.00  0.00    -0.074 C  
HETATM   23  O   UNL     1      -6.961   6.177  69.431  1.00  0.00    -0.063 OA 
ENDBRANCH  11  15
TORSDOF 1
ENDMDL
MODEL      171
REMARK 921   NORMALIZED FREE ENERGY PREDICTED BY IDOCK:   -3.57 KCAL/MOL
REMARK 922        TOTAL FREE ENERGY PREDICTED BY IDOCK:   -3.83 KCAL/MOL
REMARK 923 INTER-LIGAND FREE ENERGY PREDICTED BY IDOCK:   -3.68 KCAL/MOL
REMARK 924 INTRA-LIGAND FREE ENERGY PREDICTED BY IDOCK:   -0.14 KCAL/MOL
REMARK 927      BINDING AFFINITY PREDICTED BY RF-SCORE:    0.00 PKD
ROOT
HETATM    1  N   UNL     1     -12.431  13.924  67.022  1.00  0.00    -0.476 NA 
HETATM    2  C   UNL     1     -11.111  14.355  67.145  1.00  0.00    -0.312 A  
HETATM    3  H1  UNL     1     -12.638  13.021  66.595  1.00  0.00     0.000 HD 
HETATM    4  H2  UNL     1     -12.959  14.643  66.528  1.00  0.00     0.000 HD 
HETATM    5  C   UNL     1     -10.825  15.597  67.734  1.00  0.00    -0.307 A  
HETATM    6  C   UNL     1      -9.504  15.999  68.023  1.00  0.00    -0.207 A  
HETATM    7  C   UNL     1      -8.432  15.143  67.774  1.00  0.00    -0.156 A  
HETATM    8  C   UNL     1      -8.731  13.904  67.242  1.00  0.00    -0.225 A  
HETATM    9  C   UNL     1     -10.026  13.519  66.935  1.00  0.00    -0.256 A  
HETATM   10  C   UNL     1      -9.948  12.169  66.368  1.00  0.00    -0.225 C  
HETATM   11  N   UNL     1      -8.629  11.801  66.395  1.00  0.00    -0.155 N  
HETATM   12  O   UNL     1     -10.896  11.549  65.920  1.00  0.00    -0.273 OA 
HETATM   13  C   UNL     1      -7.844  12.794  66.912  1.00  0.00     0.085 C  
HETATM   14  O   UNL     1      -6.640  12.812  67.066  1.00  0.00    -0.140 OA 
ENDROOT
BRANCH  11  15
HETATM   15  C   UNL     1      -8.094  10.513  65.987  1.00  0.00    -0.148 C  
HETATM   16  C   UNL     1      -8.469  10.083  64.572  1.00  0.00    -0.180 C  
HETATM   17  C   UNL     1      -7.689   8.821  64.228  1.00  0.00    -0.125 C  
HETATM   18  C   UNL     1      -7.925   7.727  65.248  1.00  0.00    -0.127 C  
HETATM   19  O   UNL     1      -7.850   6.537  64.960  1.00  0.00    -0.099 OA 
HETATM   20  N   UNL     1      -8.187   8.126  66.537  1.00  0.00    -0.105 N  
HETATM   21  H   UNL     1      -8.153   7.402  67.255  1.00  0.00     0.000 HD 
HETATM   22  C   UNL     1      -8.490   9.403  66.963  1.00  0.00    -0.127 C  
HETATM   23  O   UNL     1      -9.002   9.595  68.063  1.00  0.00    -0.123 OA 
ENDBRANCH  11  15
TORSDOF 1
ENDMDL
MODEL      172
REMARK 921   NORMALIZED FREE ENERGY PREDICTED BY IDOCK:   -3.56 KCAL/MOL
REMARK 922        TOTAL FREE ENERGY PREDICTED BY IDOCK:   -3.81 KCAL/MOL
REMARK 923 INTER-LIGAND FREE ENERGY PREDICTED BY IDOCK:   -3.86 KCAL/MOL
REMARK 924 INTRA-LIGAND FREE ENERGY PREDICTED BY IDOCK:    0.05 KCAL/MOL
REMARK 927      BINDING AFFINITY PREDICTED BY RF-SCORE:    0.00 PKD
ROOT
HETATM    1  N   UNL     1     -13.156  13.170  70.542  1.00  0.00     0.185 NA 
HETATM    2  C   UNL     1     -12.151  12.966  69.597  1.00  0.00    -0.226 A  
HETATM    3  H1  UNL     1     -13.481  12.396  71.120  1.00  0.00     0.000 HD 
HETATM    4  H2  UNL     1     -13.962  13.581  70.070  1.00  0.00     0.000 HD 
HETATM    5  C   UNL     1     -11.703  14.032  68.801  1.00  0.00    -0.388 A  
HETATM    6  C   UNL     1     -10.583  13.908  67.951  1.00  0.00    -0.248 A  
HETATM    7  C   UNL     1      -9.850  12.723  67.912  1.00  0.00    -0.223 A  
HETATM    8  C   UNL     1     -10.272  11.699  68.737  1.00  0.00    -0.190 A  
HETATM    9  C   UNL     1     -11.385  11.812  69.554  1.00  0.00    -0.317 A  
HETATM   10  C   UNL     1     -11.538  10.530  70.250  1.00  0.00    -0.332 C  
HETATM   11  N   UNL     1     -10.499   9.733  69.848  1.00  0.00    -0.241 N  
HETATM   12  O   UNL     1     -12.459  10.252  70.996  1.00  0.00    -0.322 OA 
HETATM   13  C   UNL     1      -9.699  10.374  68.944  1.00  0.00    -0.198 C  
HETATM   14  O   UNL     1      -8.708   9.961  68.375  1.00  0.00    -0.117 OA 
ENDROOT
BRANCH  11  15
HETATM   15  C   UNL     1     -10.215   8.392  70.332  1.00  0.00    -0.197 C  
HETATM   16  C   UNL     1      -8.848   8.224  70.986  1.00  0.00    -0.176 C  
HETATM   17  C   UNL     1      -8.776   6.832  71.602  1.00  0.00    -0.126 C  
HETATM   18  C   UNL     1      -9.064   5.756  70.576  1.00  0.00    -0.147 C  
HETATM   19  O   UNL     1      -8.594   4.626  70.665  1.00  0.00    -0.095 OA 
HETATM   20  N   UNL     1      -9.921   6.086  69.555  1.00  0.00    -0.169 N  
HETATM   21  H   UNL     1     -10.266   5.316  68.981  1.00  0.00     0.000 HD 
HETATM   22  C   UNL     1     -10.365   7.349  69.221  1.00  0.00    -0.204 C  
HETATM   23  O   UNL     1     -10.870   7.570  68.124  1.00  0.00    -0.129 OA 
ENDBRANCH  11  15
TORSDOF 1
ENDMDL
MODEL      173
REMARK 921   NORMALIZED FREE ENERGY PREDICTED BY IDOCK:   -3.56 KCAL/MOL
REMARK 922        TOTAL FREE ENERGY PREDICTED BY IDOCK:   -3.81 KCAL/MOL
REMARK 923 INTER-LIGAND FREE ENERGY PREDICTED BY IDOCK:   -3.76 KCAL/MOL
REMARK 924 INTRA-LIGAND FREE ENERGY PREDICTED BY IDOCK:   -0.04 KCAL/MOL
REMARK 927      BINDING AFFINITY PREDICTED BY RF-SCORE:    0.00 PKD
ROOT
HETATM    1  N   UNL     1      -5.314  12.456  71.349  1.00  0.00    -0.354 NA 
HETATM    2  C   UNL     1      -5.943  12.902  70.187  1.00  0.00    -0.136 A  
HETATM    3  H1  UNL     1      -5.569  11.557  71.758  1.00  0.00     0.000 HD 
HETATM    4  H2  UNL     1      -5.415  13.176  72.065  1.00  0.00     0.000 HD 
HETATM    5  C   UNL     1      -5.591  14.139  69.625  1.00  0.00    -0.097 A  
HETATM    6  C   UNL     1      -6.084  14.553  68.368  1.00  0.00    -0.101 A  
HETATM    7  C   UNL     1      -6.905  13.714  67.617  1.00  0.00    -0.185 A  
HETATM    8  C   UNL     1      -7.202  12.479  68.160  1.00  0.00    -0.106 A  
HETATM    9  C   UNL     1      -6.739  12.082  69.403  1.00  0.00    -0.070 A  
HETATM   10  C   UNL     1      -7.277  10.741  69.653  1.00  0.00    -0.125 C  
HETATM   11  N   UNL     1      -7.999  10.389  68.544  1.00  0.00    -0.108 N  
HETATM   12  O   UNL     1      -7.129  10.116  70.688  1.00  0.00    -0.312 OA 
HETATM   13  C   UNL     1      -7.991  11.385  67.607  1.00  0.00    -0.123 C  
HETATM   14  O   UNL     1      -8.537  11.415  66.523  1.00  0.00    -0.169 OA 
ENDROOT
BRANCH  11  15
HETATM   15  C   UNL     1      -8.661   9.113  68.325  1.00  0.00    -0.129 C  
HETATM   16  C   UNL     1      -8.331   8.441  66.997  1.00  0.00    -0.114 C  
HETATM   17  C   UNL     1      -8.943   7.046  66.997  1.00  0.00    -0.130 C  
HETATM   18  C   UNL     1     -10.432   7.093  67.269  1.00  0.00    -0.301 C  
HETATM   19  O   UNL     1     -11.202   6.241  66.838  1.00  0.00    -0.335 OA 
HETATM   20  N   UNL     1     -10.885   8.117  68.065  1.00  0.00    -0.464 N  
HETATM   21  H   UNL     1     -11.844   8.041  68.405  1.00  0.00     0.000 HD 
HETATM   22  C   UNL     1     -10.181   9.239  68.453  1.00  0.00    -0.202 C  
HETATM   23  O   UNL     1     -10.762  10.225  68.897  1.00  0.00    -0.203 OA 
ENDBRANCH  11  15
TORSDOF 1
ENDMDL
MODEL      174
REMARK 921   NORMALIZED FREE ENERGY PREDICTED BY IDOCK:   -3.49 KCAL/MOL
REMARK 922        TOTAL FREE ENERGY PREDICTED BY IDOCK:   -3.74 KCAL/MOL
REMARK 923 INTER-LIGAND FREE ENERGY PREDICTED BY IDOCK:   -3.69 KCAL/MOL
REMARK 924 INTRA-LIGAND FREE ENERGY PREDICTED BY IDOCK:   -0.05 KCAL/MOL
REMARK 927      BINDING AFFINITY PREDICTED BY RF-SCORE:    0.00 PKD
ROOT
HETATM    1  N   UNL     1     -10.232   8.657  72.213  1.00  0.00    -0.322 NA 
HETATM    2  C   UNL     1     -10.673   9.250  71.031  1.00  0.00    -0.316 A  
HETATM    3  H1  UNL     1      -9.564   7.888  72.183  1.00  0.00     0.000 HD 
HETATM    4  H2  UNL     1     -11.049   8.353  72.744  1.00  0.00     0.000 HD 
HETATM    5  C   UNL     1     -11.593  10.310  71.073  1.00  0.00    -0.430 A  
HETATM    6  C   UNL     1     -11.940  11.041  69.917  1.00  0.00    -0.427 A  
HETATM    7  C   UNL     1     -11.335  10.763  68.693  1.00  0.00    -0.356 A  
HETATM    8  C   UNL     1     -10.394   9.752  68.676  1.00  0.00    -0.224 A  
HETATM    9  C   UNL     1     -10.071   9.017  69.805  1.00  0.00    -0.209 A  
HETATM   10  C   UNL     1      -9.069   8.025  69.399  1.00  0.00    -0.148 C  
HETATM   11  N   UNL     1      -8.818   8.236  68.069  1.00  0.00    -0.135 N  
HETATM   12  O   UNL     1      -8.614   7.162  70.126  1.00  0.00    -0.137 OA 
HETATM   13  C   UNL     1      -9.576   9.260  67.573  1.00  0.00    -0.149 C  
HETATM   14  O   UNL     1      -9.617   9.699  66.442  1.00  0.00    -0.179 OA 
ENDROOT
BRANCH  11  15
HETATM   15  C   UNL     1      -7.843   7.522  67.261  1.00  0.00    -0.118 C  
HETATM   16  C   UNL     1      -6.941   8.412  66.412  1.00  0.00    -0.074 C  
HETATM   17  C   UNL     1      -5.864   7.541  65.777  1.00  0.00    -0.037 C  
HETATM   18  C   UNL     1      -6.468   6.402  64.983  1.00  0.00    -0.038 C  
HETATM   19  O   UNL     1      -5.899   5.904  64.017  1.00  0.00    -0.021 OA 
HETATM   20  N   UNL     1      -7.675   5.912  65.420  1.00  0.00    -0.088 N  
HETATM   21  H   UNL     1      -7.985   5.031  65.011  1.00  0.00     0.000 HD 
HETATM   22  C   UNL     1      -8.513   6.486  66.354  1.00  0.00    -0.124 C  
HETATM   23  O   UNL     1      -9.687   6.139  66.445  1.00  0.00    -0.160 OA 
ENDBRANCH  11  15
TORSDOF 1
ENDMDL
MODEL      175
REMARK 921   NORMALIZED FREE ENERGY PREDICTED BY IDOCK:   -3.44 KCAL/MOL
REMARK 922        TOTAL FREE ENERGY PREDICTED BY IDOCK:   -3.69 KCAL/MOL
REMARK 923 INTER-LIGAND FREE ENERGY PREDICTED BY IDOCK:   -3.56 KCAL/MOL
REMARK 924 INTRA-LIGAND FREE ENERGY PREDICTED BY IDOCK:   -0.12 KCAL/MOL
REMARK 927      BINDING AFFINITY PREDICTED BY RF-SCORE:    0.00 PKD
ROOT
HETATM    1  N   UNL     1      -6.767   6.015  64.577  1.00  0.00    -0.045 NA 
HETATM    2  C   UNL     1      -7.932   5.459  65.105  1.00  0.00    -0.111 A  
HETATM    3  H1  UNL     1      -6.633   7.025  64.582  1.00  0.00     0.000 HD 
HETATM    4  H2  UNL     1      -6.657   5.680  63.619  1.00  0.00     0.000 HD 
HETATM    5  C   UNL     1      -8.116   4.067  65.098  1.00  0.00    -0.097 A  
HETATM    6  C   UNL     1      -9.201   3.457  65.764  1.00  0.00    -0.155 A  
HETATM    7  C   UNL     1     -10.104   4.222  66.499  1.00  0.00    -0.155 A  
HETATM    8  C   UNL     1      -9.882   5.584  66.539  1.00  0.00    -0.194 A  
HETATM    9  C   UNL     1      -8.832   6.188  65.866  1.00  0.00    -0.151 A  
HETATM   10  C   UNL     1      -8.935   7.629  66.115  1.00  0.00    -0.161 C  
HETATM   11  N   UNL     1     -10.008   7.814  66.946  1.00  0.00    -0.236 N  
HETATM   12  O   UNL     1      -8.213   8.473  65.615  1.00  0.00    -0.114 OA 
HETATM   13  C   UNL     1     -10.619   6.627  67.243  1.00  0.00    -0.317 C  
HETATM   14  O   UNL     1     -11.599   6.426  67.932  1.00  0.00     0.034 OA 
ENDROOT
BRANCH  11  15
HETATM   15  C   UNL     1     -10.447   9.082  67.505  1.00  0.00    -0.272 C  
HETATM   16  C   UNL     1     -10.477  10.242  66.515  1.00  0.00    -0.241 C  
HETATM   17  C   UNL     1     -11.128  11.439  67.194  1.00  0.00    -0.366 C  
HETATM   18  C   UNL     1     -10.421  11.797  68.485  1.00  0.00    -0.215 C  
HETATM   19  O   UNL     1     -10.404  12.942  68.925  1.00  0.00    -0.163 OA 
HETATM   20  N   UNL     1      -9.829  10.767  69.174  1.00  0.00    -0.308 N  
HETATM   21  H   UNL     1      -9.525  10.970  70.127  1.00  0.00     0.000 HD 
HETATM   22  C   UNL     1      -9.601   9.486  68.715  1.00  0.00    -0.157 C  
HETATM   23  O   UNL     1      -8.802   8.746  69.283  1.00  0.00    -0.137 OA 
ENDBRANCH  11  15
TORSDOF 1
ENDMDL
MODEL      176
REMARK 921   NORMALIZED FREE ENERGY PREDICTED BY IDOCK:   -3.37 KCAL/MOL
REMARK 922        TOTAL FREE ENERGY PREDICTED BY IDOCK:   -3.61 KCAL/MOL
REMARK 923 INTER-LIGAND FREE ENERGY PREDICTED BY IDOCK:   -3.59 KCAL/MOL
REMARK 924 INTRA-LIGAND FREE ENERGY PREDICTED BY IDOCK:   -0.02 KCAL/MOL
REMARK 927      BINDING AFFINITY PREDICTED BY RF-SCORE:    0.00 PKD
ROOT
HETATM    1  N   UNL     1      -6.541   7.845  72.449  1.00  0.00    -0.063 NA 
HETATM    2  C   UNL     1      -7.898   7.523  72.459  1.00  0.00    -0.099 A  
HETATM    3  H1  UNL     1      -5.938   7.501  71.702  1.00  0.00     0.000 HD 
HETATM    4  H2  UNL     1      -6.138   7.565  73.344  1.00  0.00     0.000 HD 
HETATM    5  C   UNL     1      -8.728   7.997  73.487  1.00  0.00    -0.330 A  
HETATM    6  C   UNL     1     -10.129   7.831  73.449  1.00  0.00    -0.327 A  
HETATM    7  C   UNL     1     -10.742   7.227  72.353  1.00  0.00    -0.283 A  
HETATM    8  C   UNL     1      -9.918   6.811  71.326  1.00  0.00    -0.189 A  
HETATM    9  C   UNL     1      -8.541   6.952  71.373  1.00  0.00    -0.119 A  
HETATM   10  C   UNL     1      -8.008   6.375  70.134  1.00  0.00    -0.112 C  
HETATM   11  N   UNL     1      -9.083   5.954  69.397  1.00  0.00    -0.127 N  
HETATM   12  O   UNL     1      -6.824   6.264  69.874  1.00  0.00    -0.054 OA 
HETATM   13  C   UNL     1     -10.260   6.190  70.051  1.00  0.00    -0.196 C  
HETATM   14  O   UNL     1     -11.393   5.931  69.699  1.00  0.00    -0.370 OA 
ENDROOT
BRANCH  11  15
HETATM   15  C   UNL     1      -9.030   5.374  68.065  1.00  0.00    -0.108 C  
HETATM   16  C   UNL     1      -9.887   6.086  67.023  1.00  0.00    -0.179 C  
HETATM   17  C   UNL     1      -9.583   5.485  65.657  1.00  0.00     0.028 C  
HETATM   18  C   UNL     1      -9.791   3.985  65.652  1.00  0.00    -0.179 C  
HETATM   19  O   UNL     1     -10.105   3.372  64.636  1.00  0.00    -0.153 OA 
HETATM   20  N   UNL     1      -9.567   3.323  66.835  1.00  0.00    -0.398 N  
HETATM   21  H   UNL     1      -9.517   2.306  66.786  1.00  0.00     0.000 HD 
HETATM   22  C   UNL     1      -9.403   3.889  68.082  1.00  0.00    -0.169 C  
HETATM   23  O   UNL     1      -9.517   3.213  69.101  1.00  0.00    -0.161 OA 
ENDBRANCH  11  15
TORSDOF 1
ENDMDL
MODEL      177
REMARK 921   NORMALIZED FREE ENERGY PREDICTED BY IDOCK:   -3.32 KCAL/MOL
REMARK 922        TOTAL FREE ENERGY PREDICTED BY IDOCK:   -3.56 KCAL/MOL
REMARK 923 INTER-LIGAND FREE ENERGY PREDICTED BY IDOCK:   -3.59 KCAL/MOL
REMARK 924 INTRA-LIGAND FREE ENERGY PREDICTED BY IDOCK:    0.04 KCAL/MOL
REMARK 927      BINDING AFFINITY PREDICTED BY RF-SCORE:    0.00 PKD
ROOT
HETATM    1  N   UNL     1      -8.968   4.401  68.419  1.00  0.00    -0.109 NA 
HETATM    2  C   UNL     1      -8.025   5.059  69.209  1.00  0.00    -0.079 A  
HETATM    3  H1  UNL     1      -9.961   4.608  68.526  1.00  0.00     0.000 HD 
HETATM    4  H2  UNL     1      -8.834   3.396  68.529  1.00  0.00     0.000 HD 
HETATM    5  C   UNL     1      -6.659   4.775  69.061  1.00  0.00    -0.045 A  
HETATM    6  C   UNL     1      -5.666   5.529  69.722  1.00  0.00    -0.016 A  
HETATM    7  C   UNL     1      -6.014   6.623  70.512  1.00  0.00    -0.024 A  
HETATM    8  C   UNL     1      -7.359   6.922  70.609  1.00  0.00    -0.074 A  
HETATM    9  C   UNL     1      -8.336   6.168  69.980  1.00  0.00    -0.125 A  
HETATM   10  C   UNL     1      -9.629   6.762  70.332  1.00  0.00    -0.169 C  
HETATM   11  N   UNL     1      -9.365   7.853  71.117  1.00  0.00    -0.149 N  
HETATM   12  O   UNL     1     -10.712   6.308  70.010  1.00  0.00    -0.231 OA 
HETATM   13  C   UNL     1      -8.022   8.010  71.319  1.00  0.00    -0.093 C  
HETATM   14  O   UNL     1      -7.443   8.854  71.971  1.00  0.00    -0.314 OA 
ENDROOT
BRANCH  11  15
HETATM   15  C   UNL     1     -10.349   8.782  71.646  1.00  0.00    -0.321 C  
HETATM   16  C   UNL     1     -11.699   8.159  71.988  1.00  0.00    -0.389 C  
HETATM   17  C   UNL     1     -12.548   9.207  72.697  1.00  0.00    -0.204 C  
HETATM   18  C   UNL     1     -12.685  10.466  71.867  1.00  0.00    -0.357 C  
HETATM   19  O   UNL     1     -13.663  11.201  71.951  1.00  0.00    -0.112 OA 
HETATM   20  N   UNL     1     -11.634  10.780  71.039  1.00  0.00    -0.289 N  
HETATM   21  H   UNL     1     -11.638  11.715  70.632  1.00  0.00     0.000 HD 
HETATM   22  C   UNL     1     -10.575   9.964  70.699  1.00  0.00    -0.271 C  
HETATM   23  O   UNL     1      -9.868  10.221  69.728  1.00  0.00    -0.224 OA 
ENDBRANCH  11  15
TORSDOF 1
ENDMDL
MODEL      178
REMARK 921   NORMALIZED FREE ENERGY PREDICTED BY IDOCK:   -3.31 KCAL/MOL
REMARK 922        TOTAL FREE ENERGY PREDICTED BY IDOCK:   -3.54 KCAL/MOL
REMARK 923 INTER-LIGAND FREE ENERGY PREDICTED BY IDOCK:   -3.54 KCAL/MOL
REMARK 924 INTRA-LIGAND FREE ENERGY PREDICTED BY IDOCK:   -0.01 KCAL/MOL
REMARK 927      BINDING AFFINITY PREDICTED BY RF-SCORE:    0.00 PKD
ROOT
HETATM    1  N   UNL     1      -9.626   2.043  65.740  1.00  0.00    -0.331 NA 
HETATM    2  C   UNL     1      -9.055   3.311  65.648  1.00  0.00    -0.152 A  
HETATM    3  H1  UNL     1      -9.820   1.633  66.654  1.00  0.00     0.000 HD 
HETATM    4  H2  UNL     1      -9.046   1.390  65.212  1.00  0.00     0.000 HD 
HETATM    5  C   UNL     1      -8.788   3.875  64.390  1.00  0.00    -0.124 A  
HETATM    6  C   UNL     1      -8.363   5.214  64.249  1.00  0.00    -0.137 A  
HETATM    7  C   UNL     1      -8.243   6.041  65.365  1.00  0.00    -0.141 A  
HETATM    8  C   UNL     1      -8.557   5.489  66.590  1.00  0.00    -0.116 A  
HETATM    9  C   UNL     1      -8.951   4.168  66.733  1.00  0.00    -0.131 A  
HETATM   10  C   UNL     1      -9.168   3.937  68.164  1.00  0.00    -0.156 C  
HETATM   11  N   UNL     1      -8.931   5.127  68.800  1.00  0.00    -0.099 N  
HETATM   12  O   UNL     1      -9.452   2.860  68.658  1.00  0.00    -0.184 OA 
HETATM   13  C   UNL     1      -8.565   6.102  67.914  1.00  0.00    -0.114 C  
HETATM   14  O   UNL     1      -8.270   7.259  68.133  1.00  0.00    -0.122 OA 
ENDROOT
BRANCH  11  15
HETATM   15  C   UNL     1      -9.087   5.380  70.222  1.00  0.00    -0.136 C  
HETATM   16  C   UNL     1      -8.711   4.210  71.126  1.00  0.00    -0.128 C  
HETATM   17  C   UNL     1      -8.747   4.687  72.572  1.00  0.00    -0.119 C  
HETATM   18  C   UNL     1     -10.093   5.285  72.927  1.00  0.00    -0.173 C  
HETATM   19  O   UNL     1     -10.536   5.264  74.071  1.00  0.00    -0.267 OA 
HETATM   20  N   UNL     1     -10.785   5.898  71.912  1.00  0.00    -0.231 N  
HETATM   21  H   UNL     1     -11.589   6.464  72.185  1.00  0.00     0.000 HD 
HETATM   22  C   UNL     1     -10.510   5.831  70.562  1.00  0.00    -0.263 C  
HETATM   23  O   UNL     1     -11.354   6.153  69.730  1.00  0.00    -0.411 OA 
ENDBRANCH  11  15
TORSDOF 1
ENDMDL
MODEL      179
REMARK 921   NORMALIZED FREE ENERGY PREDICTED BY IDOCK:   -3.29 KCAL/MOL
REMARK 922        TOTAL FREE ENERGY PREDICTED BY IDOCK:   -3.52 KCAL/MOL
REMARK 923 INTER-LIGAND FREE ENERGY PREDICTED BY IDOCK:   -3.43 KCAL/MOL
REMARK 924 INTRA-LIGAND FREE ENERGY PREDICTED BY IDOCK:   -0.09 KCAL/MOL
REMARK 927      BINDING AFFINITY PREDICTED BY RF-SCORE:    0.00 PKD
ROOT
HETATM    1  N   UNL     1     -10.428   3.452  64.843  1.00  0.00    -0.411 NA 
HETATM    2  C   UNL     1      -9.350   4.298  64.587  1.00  0.00    -0.162 A  
HETATM    3  H1  UNL     1     -10.907   3.488  65.743  1.00  0.00     0.000 HD 
HETATM    4  H2  UNL     1     -10.129   2.491  64.676  1.00  0.00     0.000 HD 
HETATM    5  C   UNL     1      -8.692   4.248  63.348  1.00  0.00    -0.117 A  
HETATM    6  C   UNL     1      -7.706   5.192  62.990  1.00  0.00    -0.070 A  
HETATM    7  C   UNL     1      -7.388   6.245  63.846  1.00  0.00    -0.069 A  
HETATM    8  C   UNL     1      -8.079   6.312  65.039  1.00  0.00    -0.136 A  
HETATM    9  C   UNL     1      -9.029   5.372  65.403  1.00  0.00    -0.130 A  
HETATM   10  C   UNL     1      -9.520   5.749  66.732  1.00  0.00    -0.143 C  
HETATM   11  N   UNL     1      -8.873   6.905  67.081  1.00  0.00    -0.119 N  
HETATM   12  O   UNL     1     -10.314   5.100  67.388  1.00  0.00    -0.191 OA 
HETATM   13  C   UNL     1      -7.997   7.300  66.109  1.00  0.00    -0.112 C  
HETATM   14  O   UNL     1      -7.255   8.261  66.096  1.00  0.00    -0.068 OA 
ENDROOT
BRANCH  11  15
HETATM   15  C   UNL     1      -9.094   7.674  68.295  1.00  0.00    -0.136 C  
HETATM   16  C   UNL     1      -9.263   6.839  69.560  1.00  0.00    -0.147 C  
HETATM   17  C   UNL     1      -9.297   7.779  70.758  1.00  0.00    -0.162 C  
HETATM   18  C   UNL     1     -10.378   8.829  70.608  1.00  0.00    -0.209 C  
HETATM   19  O   UNL     1     -10.931   9.340  71.577  1.00  0.00    -0.336 OA 
HETATM   20  N   UNL     1     -10.687   9.223  69.329  1.00  0.00    -0.287 N  
HETATM   21  H   UNL     1     -11.267  10.058  69.236  1.00  0.00     0.000 HD 
HETATM   22  C   UNL     1     -10.297   8.611  68.156  1.00  0.00    -0.216 C  
HETATM   23  O   UNL     1     -10.871   8.853  67.097  1.00  0.00    -0.209 OA 
ENDBRANCH  11  15
TORSDOF 1
ENDMDL
MODEL      180
REMARK 921   NORMALIZED FREE ENERGY PREDICTED BY IDOCK:   -3.26 KCAL/MOL
REMARK 922        TOTAL FREE ENERGY PREDICTED BY IDOCK:   -3.49 KCAL/MOL
REMARK 923 INTER-LIGAND FREE ENERGY PREDICTED BY IDOCK:   -3.44 KCAL/MOL
REMARK 924 INTRA-LIGAND FREE ENERGY PREDICTED BY IDOCK:   -0.05 KCAL/MOL
REMARK 927      BINDING AFFINITY PREDICTED BY RF-SCORE:    0.00 PKD
ROOT
HETATM    1  N   UNL     1      -7.289  11.360  65.918  1.00  0.00    -0.351 NA 
HETATM    2  C   UNL     1      -8.484  10.955  66.510  1.00  0.00    -0.159 A  
HETATM    3  H1  UNL     1      -6.568  10.674  65.694  1.00  0.00     0.000 HD 
HETATM    4  H2  UNL     1      -6.872  12.087  66.500  1.00  0.00     0.000 HD 
HETATM    5  C   UNL     1      -9.476  11.900  66.817  1.00  0.00    -0.207 A  
HETATM    6  C   UNL     1     -10.757  11.515  67.266  1.00  0.00    -0.286 A  
HETATM    7  C   UNL     1     -11.097  10.167  67.372  1.00  0.00    -0.219 A  
HETATM    8  C   UNL     1     -10.129   9.248  67.018  1.00  0.00    -0.313 A  
HETATM    9  C   UNL     1      -8.863   9.625  66.600  1.00  0.00    -0.153 A  
HETATM   10  C   UNL     1      -8.111   8.392  66.344  1.00  0.00    -0.104 C  
HETATM   11  N   UNL     1      -8.966   7.348  66.584  1.00  0.00    -0.140 N  
HETATM   12  O   UNL     1      -6.935   8.348  66.031  1.00  0.00    -0.064 OA 
HETATM   13  C   UNL     1     -10.195   7.792  66.987  1.00  0.00    -0.305 C  
HETATM   14  O   UNL     1     -11.175   7.145  67.294  1.00  0.00    -0.240 OA 
ENDROOT
BRANCH  11  15
HETATM   15  C   UNL     1      -8.665   5.939  66.397  1.00  0.00    -0.131 C  
HETATM   16  C   UNL     1      -9.724   5.155  65.627  1.00  0.00    -0.081 C  
HETATM   17  C   UNL     1      -9.184   3.757  65.353  1.00  0.00    -0.152 C  
HETATM   18  C   UNL     1      -8.764   3.063  66.632  1.00  0.00    -0.129 C  
HETATM   19  O   UNL     1      -8.790   1.842  66.751  1.00  0.00    -0.119 OA 
HETATM   20  N   UNL     1      -8.306   3.863  67.650  1.00  0.00    -0.093 N  
HETATM   21  H   UNL     1      -7.846   3.392  68.429  1.00  0.00     0.000 HD 
HETATM   22  C   UNL     1      -8.402   5.237  67.732  1.00  0.00    -0.098 C  
HETATM   23  O   UNL     1      -8.244   5.817  68.802  1.00  0.00    -0.100 OA 
ENDBRANCH  11  15
TORSDOF 1
ENDMDL
MODEL      181
REMARK 921   NORMALIZED FREE ENERGY PREDICTED BY IDOCK:   -3.21 KCAL/MOL
REMARK 922        TOTAL FREE ENERGY PREDICTED BY IDOCK:   -3.45 KCAL/MOL
REMARK 923 INTER-LIGAND FREE ENERGY PREDICTED BY IDOCK:   -3.66 KCAL/MOL
REMARK 924 INTRA-LIGAND FREE ENERGY PREDICTED BY IDOCK:    0.21 KCAL/MOL
REMARK 927      BINDING AFFINITY PREDICTED BY RF-SCORE:    0.00 PKD
ROOT
HETATM    1  N   UNL     1      -8.454   5.942  70.241  1.00  0.00    -0.125 NA 
HETATM    2  C   UNL     1      -9.623   6.560  70.685  1.00  0.00    -0.172 A  
HETATM    3  H1  UNL     1      -7.973   6.290  69.412  1.00  0.00     0.000 HD 
HETATM    4  H2  UNL     1      -8.648   4.949  70.107  1.00  0.00     0.000 HD 
HETATM    5  C   UNL     1     -10.286   6.081  71.825  1.00  0.00    -0.242 A  
HETATM    6  C   UNL     1     -11.374   6.772  72.400  1.00  0.00    -0.306 A  
HETATM    7  C   UNL     1     -11.797   7.991  71.874  1.00  0.00    -0.353 A  
HETATM    8  C   UNL     1     -11.104   8.476  70.783  1.00  0.00    -0.288 A  
HETATM    9  C   UNL     1     -10.051   7.788  70.204  1.00  0.00    -0.197 A  
HETATM   10  C   UNL     1      -9.589   8.588  69.065  1.00  0.00    -0.167 C  
HETATM   11  N   UNL     1     -10.357   9.722  69.039  1.00  0.00    -0.199 N  
HETATM   12  O   UNL     1      -8.721   8.246  68.283  1.00  0.00    -0.135 OA 
HETATM   13  C   UNL     1     -11.282   9.722  70.045  1.00  0.00    -0.251 C  
HETATM   14  O   UNL     1     -12.126  10.556  70.305  1.00  0.00    -0.282 OA 
ENDROOT
BRANCH  11  15
HETATM   15  C   UNL     1     -10.207  10.833  68.113  1.00  0.00    -0.172 C  
HETATM   16  C   UNL     1     -10.654  12.185  68.659  1.00  0.00    -0.248 C  
HETATM   17  C   UNL     1     -10.265  13.263  67.654  1.00  0.00    -0.228 C  
HETATM   18  C   UNL     1     -10.836  12.974  66.282  1.00  0.00    -0.278 C  
HETATM   19  O   UNL     1     -11.102  13.867  65.484  1.00  0.00    -0.297 OA 
HETATM   20  N   UNL     1     -11.004  11.653  65.945  1.00  0.00    -0.294 N  
HETATM   21  H   UNL     1     -11.201  11.453  64.964  1.00  0.00     0.000 HD 
HETATM   22  C   UNL     1     -10.935  10.566  66.793  1.00  0.00    -0.080 C  
HETATM   23  O   UNL     1     -11.398   9.478  66.462  1.00  0.00     0.654 OA 
ENDBRANCH  11  15
TORSDOF 1
ENDMDL
MODEL      182
REMARK 921   NORMALIZED FREE ENERGY PREDICTED BY IDOCK:   -3.18 KCAL/MOL
REMARK 922        TOTAL FREE ENERGY PREDICTED BY IDOCK:   -3.41 KCAL/MOL
REMARK 923 INTER-LIGAND FREE ENERGY PREDICTED BY IDOCK:   -3.26 KCAL/MOL
REMARK 924 INTRA-LIGAND FREE ENERGY PREDICTED BY IDOCK:   -0.15 KCAL/MOL
REMARK 927      BINDING AFFINITY PREDICTED BY RF-SCORE:    0.00 PKD
ROOT
HETATM    1  N   UNL     1      -7.972   7.503  65.541  1.00  0.00    -0.114 NA 
HETATM    2  C   UNL     1      -8.644   6.365  65.985  1.00  0.00    -0.147 A  
HETATM    3  H1  UNL     1      -7.793   8.276  66.181  1.00  0.00     0.000 HD 
HETATM    4  H2  UNL     1      -8.464   7.868  64.725  1.00  0.00     0.000 HD 
HETATM    5  C   UNL     1      -8.890   5.301  65.103  1.00  0.00    -0.130 A  
HETATM    6  C   UNL     1      -9.420   4.071  65.549  1.00  0.00    -0.176 A  
HETATM    7  C   UNL     1      -9.672   3.857  66.903  1.00  0.00    -0.189 A  
HETATM    8  C   UNL     1      -9.378   4.894  67.766  1.00  0.00    -0.154 A  
HETATM    9  C   UNL     1      -8.880   6.110  67.327  1.00  0.00    -0.107 A  
HETATM   10  C   UNL     1      -8.722   6.962  68.510  1.00  0.00    -0.125 C  
HETATM   11  N   UNL     1      -9.095   6.211  69.593  1.00  0.00    -0.136 N  
HETATM   12  O   UNL     1      -8.374   8.128  68.483  1.00  0.00    -0.124 OA 
HETATM   13  C   UNL     1      -9.495   4.958  69.219  1.00  0.00    -0.142 C  
HETATM   14  O   UNL     1      -9.900   4.048  69.913  1.00  0.00    -0.209 OA 
ENDROOT
BRANCH  11  15
HETATM   15  C   UNL     1      -9.039   6.632  70.983  1.00  0.00    -0.156 C  
HETATM   16  C   UNL     1      -9.716   7.967  71.275  1.00  0.00    -0.199 C  
HETATM   17  C   UNL     1      -9.738   8.177  72.784  1.00  0.00    -0.351 C  
HETATM   18  C   UNL     1      -8.347   8.090  73.377  1.00  0.00    -0.220 C  
HETATM   19  O   UNL     1      -8.033   8.694  74.398  1.00  0.00    -0.366 OA 
HETATM   20  N   UNL     1      -7.453   7.263  72.742  1.00  0.00    -0.075 N  
HETATM   21  H   UNL     1      -6.589   7.054  73.244  1.00  0.00     0.000 HD 
HETATM   22  C   UNL     1      -7.598   6.684  71.499  1.00  0.00    -0.089 C  
HETATM   23  O   UNL     1      -6.629   6.223  70.901  1.00  0.00    -0.050 OA 
ENDBRANCH  11  15
TORSDOF 1
ENDMDL
MODEL      183
REMARK 921   NORMALIZED FREE ENERGY PREDICTED BY IDOCK:   -3.13 KCAL/MOL
REMARK 922        TOTAL FREE ENERGY PREDICTED BY IDOCK:   -3.36 KCAL/MOL
REMARK 923 INTER-LIGAND FREE ENERGY PREDICTED BY IDOCK:   -3.33 KCAL/MOL
REMARK 924 INTRA-LIGAND FREE ENERGY PREDICTED BY IDOCK:   -0.03 KCAL/MOL
REMARK 927      BINDING AFFINITY PREDICTED BY RF-SCORE:    0.00 PKD
ROOT
HETATM    1  N   UNL     1      -5.401   6.963  65.073  1.00  0.00    -0.027 NA 
HETATM    2  C   UNL     1      -6.454   7.816  64.744  1.00  0.00    -0.044 A  
HETATM    3  H1  UNL     1      -5.241   6.697  66.044  1.00  0.00     0.000 HD 
HETATM    4  H2  UNL     1      -4.538   7.361  64.701  1.00  0.00     0.000 HD 
HETATM    5  C   UNL     1      -6.675   8.182  63.407  1.00  0.00    -0.080 A  
HETATM    6  C   UNL     1      -7.819   8.909  63.012  1.00  0.00    -0.133 A  
HETATM    7  C   UNL     1      -8.801   9.246  63.942  1.00  0.00    -0.160 A  
HETATM    8  C   UNL     1      -8.596   8.835  65.245  1.00  0.00    -0.212 A  
HETATM    9  C   UNL     1      -7.462   8.143  65.638  1.00  0.00    -0.081 A  
HETATM   10  C   UNL     1      -7.581   7.908  67.080  1.00  0.00    -0.100 C  
HETATM   11  N   UNL     1      -8.784   8.433  67.471  1.00  0.00    -0.135 N  
HETATM   12  O   UNL     1      -6.724   7.388  67.771  1.00  0.00    -0.058 OA 
HETATM   13  C   UNL     1      -9.446   9.001  66.418  1.00  0.00    -0.226 C  
HETATM   14  O   UNL     1     -10.521   9.566  66.409  1.00  0.00    -0.199 OA 
ENDROOT
BRANCH  11  15
HETATM   15  C   UNL     1      -9.348   8.372  68.809  1.00  0.00    -0.143 C  
HETATM   16  C   UNL     1     -10.760   7.801  68.883  1.00  0.00    -0.108 C  
HETATM   17  C   UNL     1     -11.134   7.629  70.350  1.00  0.00    -0.270 C  
HETATM   18  C   UNL     1     -10.994   8.928  71.115  1.00  0.00    -0.286 C  
HETATM   19  O   UNL     1     -11.676   9.182  72.103  1.00  0.00    -0.342 OA 
HETATM   20  N   UNL     1     -10.029   9.803  70.679  1.00  0.00    -0.350 N  
HETATM   21  H   UNL     1      -9.803  10.580  71.301  1.00  0.00     0.000 HD 
HETATM   22  C   UNL     1      -9.332   9.743  69.490  1.00  0.00    -0.213 C  
HETATM   23  O   UNL     1      -8.728  10.724  69.064  1.00  0.00    -0.161 OA 
ENDBRANCH  11  15
TORSDOF 1
ENDMDL
MODEL      184
REMARK 921   NORMALIZED FREE ENERGY PREDICTED BY IDOCK:   -3.08 KCAL/MOL
REMARK 922        TOTAL FREE ENERGY PREDICTED BY IDOCK:   -3.30 KCAL/MOL
REMARK 923 INTER-LIGAND FREE ENERGY PREDICTED BY IDOCK:   -3.26 KCAL/MOL
REMARK 924 INTRA-LIGAND FREE ENERGY PREDICTED BY IDOCK:   -0.04 KCAL/MOL
REMARK 927      BINDING AFFINITY PREDICTED BY RF-SCORE:    0.00 PKD
ROOT
HETATM    1  N   UNL     1      -7.246   8.575  65.301  1.00  0.00    -0.082 NA 
HETATM    2  C   UNL     1      -7.800   7.296  65.307  1.00  0.00    -0.121 A  
HETATM    3  H1  UNL     1      -7.327   9.174  66.122  1.00  0.00     0.000 HD 
HETATM    4  H2  UNL     1      -7.616   9.081  64.496  1.00  0.00     0.000 HD 
HETATM    5  C   UNL     1      -7.687   6.472  64.176  1.00  0.00    -0.105 A  
HETATM    6  C   UNL     1      -8.090   5.119  64.197  1.00  0.00    -0.119 A  
HETATM    7  C   UNL     1      -8.571   4.540  65.370  1.00  0.00    -0.126 A  
HETATM    8  C   UNL     1      -8.630   5.348  66.488  1.00  0.00    -0.116 A  
HETATM    9  C   UNL     1      -8.258   6.683  66.463  1.00  0.00    -0.114 A  
HETATM   10  C   UNL     1      -8.482   7.216  67.810  1.00  0.00    -0.120 C  
HETATM   11  N   UNL     1      -8.939   6.178  68.578  1.00  0.00    -0.116 N  
HETATM   12  O   UNL     1      -8.330   8.381  68.129  1.00  0.00    -0.125 OA 
HETATM   13  C   UNL     1      -9.046   5.027  67.848  1.00  0.00    -0.114 C  
HETATM   14  O   UNL     1      -9.430   3.932  68.205  1.00  0.00    -0.159 OA 
ENDROOT
BRANCH  11  15
HETATM   15  C   UNL     1      -9.234   6.234  70.000  1.00  0.00    -0.152 C  
HETATM   16  C   UNL     1      -8.555   5.155  70.838  1.00  0.00    -0.129 C  
HETATM   17  C   UNL     1      -8.807   5.457  72.309  1.00  0.00    -0.131 C  
HETATM   18  C   UNL     1     -10.288   5.574  72.606  1.00  0.00    -0.198 C  
HETATM   19  O   UNL     1     -10.756   5.308  73.708  1.00  0.00    -0.268 OA 
HETATM   20  N   UNL     1     -11.088   6.039  71.591  1.00  0.00    -0.271 N  
HETATM   21  H   UNL     1     -12.041   6.301  71.846  1.00  0.00     0.000 HD 
HETATM   22  C   UNL     1     -10.742   6.190  70.265  1.00  0.00    -0.291 C  
HETATM   23  O   UNL     1     -11.603   6.315  69.398  1.00  0.00    -0.403 OA 
ENDBRANCH  11  15
TORSDOF 1
ENDMDL
MODEL      185
REMARK 921   NORMALIZED FREE ENERGY PREDICTED BY IDOCK:   -3.08 KCAL/MOL
REMARK 922        TOTAL FREE ENERGY PREDICTED BY IDOCK:   -3.30 KCAL/MOL
REMARK 923 INTER-LIGAND FREE ENERGY PREDICTED BY IDOCK:   -3.16 KCAL/MOL
REMARK 924 INTRA-LIGAND FREE ENERGY PREDICTED BY IDOCK:   -0.14 KCAL/MOL
REMARK 927      BINDING AFFINITY PREDICTED BY RF-SCORE:    0.00 PKD
ROOT
HETATM    1  N   UNL     1      -8.979   7.702  71.562  1.00  0.00    -0.130 NA 
HETATM    2  C   UNL     1      -9.175   6.323  71.637  1.00  0.00    -0.144 A  
HETATM    3  H1  UNL     1      -8.642   8.126  70.698  1.00  0.00     0.000 HD 
HETATM    4  H2  UNL     1      -8.358   7.980  72.321  1.00  0.00     0.000 HD 
HETATM    5  C   UNL     1      -9.639   5.739  72.826  1.00  0.00    -0.159 A  
HETATM    6  C   UNL     1     -10.002   4.377  72.894  1.00  0.00    -0.201 A  
HETATM    7  C   UNL     1      -9.957   3.572  71.757  1.00  0.00    -0.202 A  
HETATM    8  C   UNL     1      -9.546   4.172  70.583  1.00  0.00    -0.264 A  
HETATM    9  C   UNL     1      -9.166   5.503  70.519  1.00  0.00    -0.179 A  
HETATM   10  C   UNL     1      -8.769   5.770  69.133  1.00  0.00    -0.113 C  
HETATM   11  N   UNL     1      -8.962   4.609  68.433  1.00  0.00    -0.109 N  
HETATM   12  O   UNL     1      -8.309   6.825  68.735  1.00  0.00    -0.119 OA 
HETATM   13  C   UNL     1      -9.431   3.611  69.242  1.00  0.00    -0.174 C  
HETATM   14  O   UNL     1      -9.694   2.460  68.957  1.00  0.00    -0.057 OA 
ENDROOT
BRANCH  11  15
HETATM   15  C   UNL     1      -8.758   4.429  67.006  1.00  0.00    -0.108 C  
HETATM   16  C   UNL     1      -7.368   4.810  66.505  1.00  0.00    -0.082 C  
HETATM   17  C   UNL     1      -7.251   4.393  65.044  1.00  0.00    -0.071 C  
HETATM   18  C   UNL     1      -8.356   4.998  64.204  1.00  0.00    -0.133 C  
HETATM   19  O   UNL     1      -8.211   5.240  63.010  1.00  0.00    -0.098 OA 
HETATM   20  N   UNL     1      -9.557   5.227  64.830  1.00  0.00    -0.341 N  
HETATM   21  H   UNL     1     -10.350   5.448  64.228  1.00  0.00     0.000 HD 
HETATM   22  C   UNL     1      -9.805   5.189  66.187  1.00  0.00    -0.185 C  
HETATM   23  O   UNL     1     -10.816   5.702  66.657  1.00  0.00    -0.292 OA 
ENDBRANCH  11  15
TORSDOF 1
ENDMDL
MODEL      186
REMARK 921   NORMALIZED FREE ENERGY PREDICTED BY IDOCK:   -3.06 KCAL/MOL
REMARK 922        TOTAL FREE ENERGY PREDICTED BY IDOCK:   -3.28 KCAL/MOL
REMARK 923 INTER-LIGAND FREE ENERGY PREDICTED BY IDOCK:   -3.14 KCAL/MOL
REMARK 924 INTRA-LIGAND FREE ENERGY PREDICTED BY IDOCK:   -0.14 KCAL/MOL
REMARK 927      BINDING AFFINITY PREDICTED BY RF-SCORE:    0.00 PKD
ROOT
HETATM    1  N   UNL     1      -7.708   4.437  72.026  1.00  0.00    -0.079 NA 
HETATM    2  C   UNL     1      -8.967   5.029  71.937  1.00  0.00    -0.133 A  
HETATM    3  H1  UNL     1      -6.994   4.641  71.326  1.00  0.00     0.000 HD 
HETATM    4  H2  UNL     1      -7.831   3.425  72.074  1.00  0.00     0.000 HD 
HETATM    5  C   UNL     1      -9.949   4.748  72.900  1.00  0.00    -0.195 A  
HETATM    6  C   UNL     1     -11.175   5.446  72.939  1.00  0.00    -0.372 A  
HETATM    7  C   UNL     1     -11.431   6.481  72.042  1.00  0.00    -0.342 A  
HETATM    8  C   UNL     1     -10.436   6.781  71.132  1.00  0.00    -0.239 A  
HETATM    9  C   UNL     1      -9.242   6.081  71.077  1.00  0.00    -0.168 A  
HETATM   10  C   UNL     1      -8.458   6.656  69.980  1.00  0.00    -0.139 C  
HETATM   11  N   UNL     1      -9.197   7.685  69.460  1.00  0.00    -0.150 N  
HETATM   12  O   UNL     1      -7.381   6.233  69.602  1.00  0.00    -0.075 OA 
HETATM   13  C   UNL     1     -10.394   7.818  70.108  1.00  0.00    -0.218 C  
HETATM   14  O   UNL     1     -11.291   8.609  69.897  1.00  0.00    -0.119 OA 
ENDROOT
BRANCH  11  15
HETATM   15  C   UNL     1      -8.782   8.580  68.392  1.00  0.00    -0.143 C  
HETATM   16  C   UNL     1      -8.173   7.887  67.177  1.00  0.00    -0.118 C  
HETATM   17  C   UNL     1      -7.965   8.926  66.083  1.00  0.00    -0.106 C  
HETATM   18  C   UNL     1      -7.123  10.086  66.572  1.00  0.00    -0.097 C  
HETATM   19  O   UNL     1      -6.417  10.746  65.815  1.00  0.00    -0.125 OA 
HETATM   20  N   UNL     1      -7.216  10.402  67.905  1.00  0.00    -0.084 N  
HETATM   21  H   UNL     1      -6.807  11.291  68.194  1.00  0.00     0.000 HD 
HETATM   22  C   UNL     1      -7.804   9.644  68.897  1.00  0.00    -0.081 C  
HETATM   23  O   UNL     1      -7.566   9.862  70.082  1.00  0.00    -0.154 OA 
ENDBRANCH  11  15
TORSDOF 1
ENDMDL
MODEL      187
REMARK 921   NORMALIZED FREE ENERGY PREDICTED BY IDOCK:   -3.05 KCAL/MOL
REMARK 922        TOTAL FREE ENERGY PREDICTED BY IDOCK:   -3.27 KCAL/MOL
REMARK 923 INTER-LIGAND FREE ENERGY PREDICTED BY IDOCK:   -3.23 KCAL/MOL
REMARK 924 INTRA-LIGAND FREE ENERGY PREDICTED BY IDOCK:   -0.05 KCAL/MOL
REMARK 927      BINDING AFFINITY PREDICTED BY RF-SCORE:    0.00 PKD
ROOT
HETATM    1  N   UNL     1      -5.610   6.812  71.636  1.00  0.00    -0.035 NA 
HETATM    2  C   UNL     1      -6.024   5.968  70.605  1.00  0.00    -0.029 A  
HETATM    3  H1  UNL     1      -5.933   7.778  71.668  1.00  0.00     0.000 HD 
HETATM    4  H2  UNL     1      -4.590   6.811  71.661  1.00  0.00     0.000 HD 
HETATM    5  C   UNL     1      -5.580   4.637  70.561  1.00  0.00    -0.015 A  
HETATM    6  C   UNL     1      -6.099   3.709  69.633  1.00  0.00    -0.024 A  
HETATM    7  C   UNL     1      -7.115   4.078  68.754  1.00  0.00    -0.054 A  
HETATM    8  C   UNL     1      -7.578   5.376  68.842  1.00  0.00    -0.079 A  
HETATM    9  C   UNL     1      -7.053   6.295  69.736  1.00  0.00    -0.072 A  
HETATM   10  C   UNL     1      -7.765   7.559  69.521  1.00  0.00    -0.104 C  
HETATM   11  N   UNL     1      -8.696   7.329  68.544  1.00  0.00    -0.124 N  
HETATM   12  O   UNL     1      -7.508   8.605  70.088  1.00  0.00    -0.050 OA 
HETATM   13  C   UNL     1      -8.642   6.038  68.095  1.00  0.00    -0.114 C  
HETATM   14  O   UNL     1      -9.306   5.503  67.232  1.00  0.00    -0.113 OA 
ENDROOT
BRANCH  11  15
HETATM   15  C   UNL     1      -9.672   8.287  68.052  1.00  0.00    -0.161 C  
HETATM   16  C   UNL     1      -9.076   9.525  67.390  1.00  0.00    -0.144 C  
HETATM   17  C   UNL     1     -10.208  10.332  66.768  1.00  0.00    -0.286 C  
HETATM   18  C   UNL     1     -11.271  10.677  67.789  1.00  0.00    -0.313 C  
HETATM   19  O   UNL     1     -11.968  11.682  67.694  1.00  0.00    -0.618 OA 
HETATM   20  N   UNL     1     -11.456   9.784  68.817  1.00  0.00    -0.477 N  
HETATM   21  H   UNL     1     -12.291   9.913  69.389  1.00  0.00     0.000 HD 
HETATM   22  C   UNL     1     -10.632   8.732  69.159  1.00  0.00    -0.184 C  
HETATM   23  O   UNL     1     -10.719   8.195  70.260  1.00  0.00    -0.228 OA 
ENDBRANCH  11  15
TORSDOF 1
ENDMDL
MODEL      188
REMARK 921   NORMALIZED FREE ENERGY PREDICTED BY IDOCK:   -3.04 KCAL/MOL
REMARK 922        TOTAL FREE ENERGY PREDICTED BY IDOCK:   -3.26 KCAL/MOL
REMARK 923 INTER-LIGAND FREE ENERGY PREDICTED BY IDOCK:   -3.22 KCAL/MOL
REMARK 924 INTRA-LIGAND FREE ENERGY PREDICTED BY IDOCK:   -0.05 KCAL/MOL
REMARK 927      BINDING AFFINITY PREDICTED BY RF-SCORE:    0.00 PKD
ROOT
HETATM    1  N   UNL     1      -9.427  10.042  70.377  1.00  0.00    -0.349 NA 
HETATM    2  C   UNL     1      -9.980   8.764  70.304  1.00  0.00    -0.186 A  
HETATM    3  H1  UNL     1      -8.603  10.277  69.823  1.00  0.00     0.000 HD 
HETATM    4  H2  UNL     1      -9.228  10.251  71.355  1.00  0.00     0.000 HD 
HETATM    5  C   UNL     1     -11.114   8.441  71.065  1.00  0.00    -0.298 A  
HETATM    6  C   UNL     1     -11.798   7.217  70.900  1.00  0.00    -0.379 A  
HETATM    7  C   UNL     1     -11.391   6.302  69.930  1.00  0.00    -0.504 A  
HETATM    8  C   UNL     1     -10.305   6.655  69.154  1.00  0.00    -0.220 A  
HETATM    9  C   UNL     1      -9.618   7.845  69.331  1.00  0.00    -0.160 A  
HETATM   10  C   UNL     1      -8.521   7.856  68.358  1.00  0.00    -0.128 C  
HETATM   11  N   UNL     1      -8.624   6.701  67.629  1.00  0.00    -0.120 N  
HETATM   12  O   UNL     1      -7.670   8.724  68.283  1.00  0.00    -0.098 OA 
HETATM   13  C   UNL     1      -9.676   5.937  68.051  1.00  0.00    -0.119 C  
HETATM   14  O   UNL     1     -10.044   4.854  67.642  1.00  0.00    -0.162 OA 
ENDROOT
BRANCH  11  15
HETATM   15  C   UNL     1      -7.780   6.321  66.509  1.00  0.00    -0.099 C  
HETATM   16  C   UNL     1      -8.534   5.840  65.273  1.00  0.00    -0.148 C  
HETATM   17  C   UNL     1      -7.534   5.661  64.138  1.00  0.00    -0.070 C  
HETATM   18  C   UNL     1      -6.410   4.726  64.530  1.00  0.00    -0.034 C  
HETATM   19  O   UNL     1      -5.807   4.046  63.706  1.00  0.00    -0.013 OA 
HETATM   20  N   UNL     1      -6.057   4.703  65.858  1.00  0.00    -0.026 N  
HETATM   21  H   UNL     1      -5.184   4.229  66.090  1.00  0.00     0.000 HD 
HETATM   22  C   UNL     1      -6.757   5.255  66.911  1.00  0.00    -0.061 C  
HETATM   23  O   UNL     1      -6.523   4.918  68.069  1.00  0.00    -0.042 OA 
ENDBRANCH  11  15
TORSDOF 1
ENDMDL
MODEL      189
REMARK 921   NORMALIZED FREE ENERGY PREDICTED BY IDOCK:   -3.03 KCAL/MOL
REMARK 922        TOTAL FREE ENERGY PREDICTED BY IDOCK:   -3.25 KCAL/MOL
REMARK 923 INTER-LIGAND FREE ENERGY PREDICTED BY IDOCK:   -3.16 KCAL/MOL
REMARK 924 INTRA-LIGAND FREE ENERGY PREDICTED BY IDOCK:   -0.09 KCAL/MOL
REMARK 927      BINDING AFFINITY PREDICTED BY RF-SCORE:    0.00 PKD
ROOT
HETATM    1  N   UNL     1      -5.522  16.209  71.485  1.00  0.00     0.200 NA 
HETATM    2  C   UNL     1      -5.828  17.091  70.450  1.00  0.00    -0.016 A  
HETATM    3  H1  UNL     1      -6.025  15.326  71.573  1.00  0.00     0.000 HD 
HETATM    4  H2  UNL     1      -5.597  16.712  72.369  1.00  0.00     0.000 HD 
HETATM    5  C   UNL     1      -5.135  18.306  70.329  1.00  0.00    -0.232 A  
HETATM    6  C   UNL     1      -5.300  19.150  69.209  1.00  0.00    -0.207 A  
HETATM    7  C   UNL     1      -6.131  18.774  68.155  1.00  0.00    -0.217 A  
HETATM    8  C   UNL     1      -6.768  17.554  68.264  1.00  0.00    -0.197 A  
HETATM    9  C   UNL     1      -6.625  16.736  69.372  1.00  0.00    -0.228 A  
HETATM   10  C   UNL     1      -7.464  15.555  69.146  1.00  0.00    -0.191 C  
HETATM   11  N   UNL     1      -8.035  15.705  67.910  1.00  0.00    -0.138 N  
HETATM   12  O   UNL     1      -7.635  14.660  69.953  1.00  0.00    -0.018 OA 
HETATM   13  C   UNL     1      -7.656  16.880  67.323  1.00  0.00    -0.171 C  
HETATM   14  O   UNL     1      -7.983  17.335  66.246  1.00  0.00    -0.279 OA 
ENDROOT
BRANCH  11  15
HETATM   15  C   UNL     1      -8.897  14.741  67.245  1.00  0.00    -0.204 C  
HETATM   16  C   UNL     1     -10.183  14.408  67.995  1.00  0.00    -0.228 C  
HETATM   17  C   UNL     1     -11.055  13.542  67.096  1.00  0.00    -0.308 C  
HETATM   18  C   UNL     1     -10.317  12.303  66.633  1.00  0.00    -0.215 C  
HETATM   19  O   UNL     1     -10.900  11.259  66.359  1.00  0.00    -0.271 OA 
HETATM   20  N   UNL     1      -8.955  12.411  66.488  1.00  0.00    -0.340 N  
HETATM   21  H   UNL     1      -8.487  11.649  65.996  1.00  0.00     0.000 HD 
HETATM   22  C   UNL     1      -8.153  13.439  66.936  1.00  0.00     0.117 C  
HETATM   23  O   UNL     1      -6.937  13.295  67.029  1.00  0.00    -0.020 OA 
ENDBRANCH  11  15
TORSDOF 1
ENDMDL
MODEL      190
REMARK 921   NORMALIZED FREE ENERGY PREDICTED BY IDOCK:   -2.97 KCAL/MOL
REMARK 922        TOTAL FREE ENERGY PREDICTED BY IDOCK:   -3.18 KCAL/MOL
REMARK 923 INTER-LIGAND FREE ENERGY PREDICTED BY IDOCK:   -3.20 KCAL/MOL
REMARK 924 INTRA-LIGAND FREE ENERGY PREDICTED BY IDOCK:    0.01 KCAL/MOL
REMARK 927      BINDING AFFINITY PREDICTED BY RF-SCORE:    0.00 PKD
ROOT
HETATM    1  N   UNL     1      -6.895   8.300  67.706  1.00  0.00    -0.069 NA 
HETATM    2  C   UNL     1      -8.196   8.744  67.943  1.00  0.00    -0.111 A  
HETATM    3  H1  UNL     1      -6.165   8.964  67.449  1.00  0.00     0.000 HD 
HETATM    4  H2  UNL     1      -6.930   7.569  66.994  1.00  0.00     0.000 HD 
HETATM    5  C   UNL     1      -9.200   7.830  68.297  1.00  0.00    -0.139 A  
HETATM    6  C   UNL     1     -10.484   8.253  68.701  1.00  0.00    -0.199 A  
HETATM    7  C   UNL     1     -10.782   9.611  68.811  1.00  0.00    -0.234 A  
HETATM    8  C   UNL     1      -9.769  10.499  68.509  1.00  0.00    -0.170 A  
HETATM    9  C   UNL     1      -8.516  10.085  68.088  1.00  0.00    -0.114 A  
HETATM   10  C   UNL     1      -7.726  11.294  67.836  1.00  0.00    -0.110 C  
HETATM   11  N   UNL     1      -8.524  12.363  68.149  1.00  0.00    -0.174 N  
HETATM   12  O   UNL     1      -6.596  11.303  67.383  1.00  0.00    -0.068 OA 
HETATM   13  C   UNL     1      -9.762  11.957  68.564  1.00  0.00    -0.169 C  
HETATM   14  O   UNL     1     -10.713  12.633  68.899  1.00  0.00    -0.230 OA 
ENDROOT
BRANCH  11  15
HETATM   15  C   UNL     1      -8.131  13.761  68.109  1.00  0.00    -0.155 C  
HETATM   16  C   UNL     1      -8.285  14.507  69.431  1.00  0.00     0.135 C  
HETATM   17  C   UNL     1      -7.665  15.890  69.280  1.00  0.00    -0.222 C  
HETATM   18  C   UNL     1      -8.269  16.645  68.115  1.00  0.00    -0.192 C  
HETATM   19  O   UNL     1      -8.330  17.870  68.092  1.00  0.00    -0.251 OA 
HETATM   20  N   UNL     1      -8.711  15.896  67.052  1.00  0.00    -0.205 N  
HETATM   21  H   UNL     1      -8.936  16.405  66.197  1.00  0.00     0.000 HD 
HETATM   22  C   UNL     1      -8.885  14.527  67.018  1.00  0.00    -0.237 C  
HETATM   23  O   UNL     1      -9.566  14.000  66.143  1.00  0.00    -0.286 OA 
ENDBRANCH  11  15
TORSDOF 1
ENDMDL
MODEL      191
REMARK 921   NORMALIZED FREE ENERGY PREDICTED BY IDOCK:   -2.95 KCAL/MOL
REMARK 922        TOTAL FREE ENERGY PREDICTED BY IDOCK:   -3.17 KCAL/MOL
REMARK 923 INTER-LIGAND FREE ENERGY PREDICTED BY IDOCK:   -3.14 KCAL/MOL
REMARK 924 INTRA-LIGAND FREE ENERGY PREDICTED BY IDOCK:   -0.03 KCAL/MOL
REMARK 927      BINDING AFFINITY PREDICTED BY RF-SCORE:    0.00 PKD
ROOT
HETATM    1  N   UNL     1      -9.701   9.948  70.400  1.00  0.00    -0.379 NA 
HETATM    2  C   UNL     1      -9.252   8.678  70.760  1.00  0.00    -0.185 A  
HETATM    3  H1  UNL     1      -9.820  10.191  69.417  1.00  0.00     0.000 HD 
HETATM    4  H2  UNL     1      -9.088  10.640  70.832  1.00  0.00     0.000 HD 
HETATM    5  C   UNL     1      -9.089   8.343  72.113  1.00  0.00    -0.309 A  
HETATM    6  C   UNL     1      -8.793   7.026  72.525  1.00  0.00    -0.139 A  
HETATM    7  C   UNL     1      -8.701   5.995  71.591  1.00  0.00    -0.135 A  
HETATM    8  C   UNL     1      -8.913   6.329  70.268  1.00  0.00    -0.154 A  
HETATM    9  C   UNL     1      -9.179   7.626  69.861  1.00  0.00    -0.147 A  
HETATM   10  C   UNL     1      -9.314   7.598  68.401  1.00  0.00    -0.146 C  
HETATM   11  N   UNL     1      -9.159   6.294  68.012  1.00  0.00    -0.113 N  
HETATM   12  O   UNL     1      -9.479   8.580  67.700  1.00  0.00    -0.141 OA 
HETATM   13  C   UNL     1      -8.920   5.478  69.083  1.00  0.00    -0.108 C  
HETATM   14  O   UNL     1      -8.721   4.281  69.100  1.00  0.00    -0.081 OA 
ENDROOT
BRANCH  11  15
HETATM   15  C   UNL     1      -9.277   5.788  66.654  1.00  0.00    -0.137 C  
HETATM   16  C   UNL     1     -10.070   4.492  66.521  1.00  0.00    -0.257 C  
HETATM   17  C   UNL     1     -10.263   4.195  65.039  1.00  0.00    -0.218 C  
HETATM   18  C   UNL     1      -8.939   4.142  64.306  1.00  0.00    -0.144 C  
HETATM   19  O   UNL     1      -8.775   3.458  63.302  1.00  0.00    -0.092 OA 
HETATM   20  N   UNL     1      -7.929   4.937  64.792  1.00  0.00    -0.093 N  
HETATM   21  H   UNL     1      -7.110   5.050  64.195  1.00  0.00     0.000 HD 
HETATM   22  C   UNL     1      -7.904   5.598  66.003  1.00  0.00    -0.100 C  
HETATM   23  O   UNL     1      -6.850   6.019  66.469  1.00  0.00    -0.058 OA 
ENDBRANCH  11  15
TORSDOF 1
ENDMDL
MODEL      192
REMARK 921   NORMALIZED FREE ENERGY PREDICTED BY IDOCK:   -2.95 KCAL/MOL
REMARK 922        TOTAL FREE ENERGY PREDICTED BY IDOCK:   -3.16 KCAL/MOL
REMARK 923 INTER-LIGAND FREE ENERGY PREDICTED BY IDOCK:   -3.07 KCAL/MOL
REMARK 924 INTRA-LIGAND FREE ENERGY PREDICTED BY IDOCK:   -0.09 KCAL/MOL
REMARK 927      BINDING AFFINITY PREDICTED BY RF-SCORE:    0.00 PKD
ROOT
HETATM    1  N   UNL     1      -6.392   8.896  71.163  1.00  0.00    -0.054 NA 
HETATM    2  C   UNL     1      -6.923   8.217  70.068  1.00  0.00    -0.040 A  
HETATM    3  H1  UNL     1      -6.563   9.895  71.279  1.00  0.00     0.000 HD 
HETATM    4  H2  UNL     1      -5.385   8.738  71.183  1.00  0.00     0.000 HD 
HETATM    5  C   UNL     1      -6.688   6.842  69.908  1.00  0.00    -0.049 A  
HETATM    6  C   UNL     1      -7.336   6.087  68.907  1.00  0.00    -0.085 A  
HETATM    7  C   UNL     1      -8.277   6.681  68.068  1.00  0.00    -0.117 A  
HETATM    8  C   UNL     1      -8.535   8.022  68.269  1.00  0.00    -0.123 A  
HETATM    9  C   UNL     1      -7.883   8.770  69.235  1.00  0.00    -0.100 A  
HETATM   10  C   UNL     1      -8.390  10.142  69.131  1.00  0.00    -0.154 C  
HETATM   11  N   UNL     1      -9.338  10.142  68.143  1.00  0.00    -0.134 N  
HETATM   12  O   UNL     1      -7.980  11.084  69.784  1.00  0.00     0.132 OA 
HETATM   13  C   UNL     1      -9.479   8.901  67.586  1.00  0.00    -0.138 C  
HETATM   14  O   UNL     1     -10.211   8.549  66.684  1.00  0.00    -0.288 OA 
ENDROOT
BRANCH  11  15
HETATM   15  C   UNL     1     -10.152  11.277  67.740  1.00  0.00    -0.179 C  
HETATM   16  C   UNL     1      -9.403  12.603  67.658  1.00  0.00    -0.190 C  
HETATM   17  C   UNL     1     -10.333  13.645  67.049  1.00  0.00    -0.260 C  
HETATM   18  C   UNL     1     -11.627  13.757  67.827  1.00  0.00    -0.346 C  
HETATM   19  O   UNL     1     -12.275  14.798  67.872  1.00  0.00    -0.209 OA 
HETATM   20  N   UNL     1     -12.074  12.619  68.454  1.00  0.00    -0.198 N  
HETATM   21  H   UNL     1     -13.030  12.640  68.810  1.00  0.00     0.000 HD 
HETATM   22  C   UNL     1     -11.368  11.451  68.653  1.00  0.00    -0.265 C  
HETATM   23  O   UNL     1     -11.741  10.622  69.479  1.00  0.00    -0.270 OA 
ENDBRANCH  11  15
TORSDOF 1
ENDMDL
MODEL      193
REMARK 921   NORMALIZED FREE ENERGY PREDICTED BY IDOCK:   -2.91 KCAL/MOL
REMARK 922        TOTAL FREE ENERGY PREDICTED BY IDOCK:   -3.12 KCAL/MOL
REMARK 923 INTER-LIGAND FREE ENERGY PREDICTED BY IDOCK:   -2.98 KCAL/MOL
REMARK 924 INTRA-LIGAND FREE ENERGY PREDICTED BY IDOCK:   -0.14 KCAL/MOL
REMARK 927      BINDING AFFINITY PREDICTED BY RF-SCORE:    0.00 PKD
ROOT
HETATM    1  N   UNL     1      -6.447   6.062  72.284  1.00  0.00    -0.057 NA 
HETATM    2  C   UNL     1      -7.480   5.298  71.743  1.00  0.00    -0.091 A  
HETATM    3  H1  UNL     1      -6.135   6.911  71.812  1.00  0.00     0.000 HD 
HETATM    4  H2  UNL     1      -5.639   5.456  72.424  1.00  0.00     0.000 HD 
HETATM    5  C   UNL     1      -7.910   4.131  72.392  1.00  0.00    -0.082 A  
HETATM    6  C   UNL     1      -9.053   3.419  71.968  1.00  0.00    -0.158 A  
HETATM    7  C   UNL     1      -9.828   3.889  70.909  1.00  0.00    -0.213 A  
HETATM    8  C   UNL     1      -9.423   5.066  70.311  1.00  0.00    -0.237 A  
HETATM    9  C   UNL     1      -8.287   5.751  70.711  1.00  0.00    -0.124 A  
HETATM   10  C   UNL     1      -8.163   6.922  69.836  1.00  0.00    -0.127 C  
HETATM   11  N   UNL     1      -9.238   6.901  68.988  1.00  0.00    -0.138 N  
HETATM   12  O   UNL     1      -7.234   7.709  69.859  1.00  0.00    -0.068 OA 
HETATM   13  C   UNL     1     -10.037   5.816  69.221  1.00  0.00    -0.205 C  
HETATM   14  O   UNL     1     -11.054   5.481  68.649  1.00  0.00    -0.039 OA 
ENDROOT
BRANCH  11  15
HETATM   15  C   UNL     1      -9.557   7.907  67.988  1.00  0.00    -0.151 C  
HETATM   16  C   UNL     1      -8.438   8.197  66.993  1.00  0.00    -0.120 C  
HETATM   17  C   UNL     1      -8.983   9.121  65.911  1.00  0.00    -0.231 C  
HETATM   18  C   UNL     1      -9.573  10.383  66.504  1.00  0.00    -0.179 C  
HETATM   19  O   UNL     1      -9.599  11.444  65.889  1.00  0.00    -0.213 OA 
HETATM   20  N   UNL     1     -10.125  10.280  67.758  1.00  0.00    -0.172 N  
HETATM   21  H   UNL     1     -10.689  11.069  68.074  1.00  0.00     0.000 HD 
HETATM   22  C   UNL     1      -9.998   9.222  68.635  1.00  0.00    -0.178 C  
HETATM   23  O   UNL     1     -10.265   9.356  69.826  1.00  0.00    -0.196 OA 
ENDBRANCH  11  15
TORSDOF 1
ENDMDL
MODEL      194
REMARK 921   NORMALIZED FREE ENERGY PREDICTED BY IDOCK:   -2.90 KCAL/MOL
REMARK 922        TOTAL FREE ENERGY PREDICTED BY IDOCK:   -3.11 KCAL/MOL
REMARK 923 INTER-LIGAND FREE ENERGY PREDICTED BY IDOCK:   -3.04 KCAL/MOL
REMARK 924 INTRA-LIGAND FREE ENERGY PREDICTED BY IDOCK:   -0.07 KCAL/MOL
REMARK 927      BINDING AFFINITY PREDICTED BY RF-SCORE:    0.00 PKD
ROOT
HETATM    1  N   UNL     1      -7.240  10.664  64.054  1.00  0.00    -0.342 NA 
HETATM    2  C   UNL     1      -7.540   9.306  63.962  1.00  0.00    -0.113 A  
HETATM    3  H1  UNL     1      -7.541  11.202  64.866  1.00  0.00     0.000 HD 
HETATM    4  H2  UNL     1      -7.586  11.128  63.214  1.00  0.00     0.000 HD 
HETATM    5  C   UNL     1      -7.125   8.565  62.844  1.00  0.00    -0.091 A  
HETATM    6  C   UNL     1      -7.266   7.162  62.786  1.00  0.00    -0.068 A  
HETATM    7  C   UNL     1      -7.783   6.455  63.870  1.00  0.00    -0.104 A  
HETATM    8  C   UNL     1      -8.141   7.191  64.983  1.00  0.00    -0.119 A  
HETATM    9  C   UNL     1      -8.025   8.571  65.032  1.00  0.00    -0.131 A  
HETATM   10  C   UNL     1      -8.524   8.997  66.344  1.00  0.00    -0.120 C  
HETATM   11  N   UNL     1      -8.877   7.861  67.023  1.00  0.00    -0.127 N  
HETATM   12  O   UNL     1      -8.636  10.155  66.700  1.00  0.00    -0.125 OA 
HETATM   13  C   UNL     1      -8.668   6.741  66.266  1.00  0.00    -0.146 C  
HETATM   14  O   UNL     1      -8.884   5.580  66.548  1.00  0.00    -0.117 OA 
ENDROOT
BRANCH  11  15
HETATM   15  C   UNL     1      -9.365   7.801  68.391  1.00  0.00    -0.143 C  
HETATM   16  C   UNL     1     -10.335   8.915  68.773  1.00  0.00    -0.232 C  
HETATM   17  C   UNL     1     -10.895   8.612  70.157  1.00  0.00    -0.242 C  
HETATM   18  C   UNL     1      -9.790   8.431  71.176  1.00  0.00    -0.192 C  
HETATM   19  O   UNL     1      -9.950   8.683  72.366  1.00  0.00    -0.302 OA 
HETATM   20  N   UNL     1      -8.599   7.924  70.716  1.00  0.00    -0.130 N  
HETATM   21  H   UNL     1      -7.928   7.622  71.423  1.00  0.00     0.000 HD 
HETATM   22  C   UNL     1      -8.213   7.780  69.399  1.00  0.00    -0.131 C  
HETATM   23  O   UNL     1      -7.033   7.611  69.103  1.00  0.00    -0.064 OA 
ENDBRANCH  11  15
TORSDOF 1
ENDMDL
MODEL      195
REMARK 921   NORMALIZED FREE ENERGY PREDICTED BY IDOCK:   -2.88 KCAL/MOL
REMARK 922        TOTAL FREE ENERGY PREDICTED BY IDOCK:   -3.09 KCAL/MOL
REMARK 923 INTER-LIGAND FREE ENERGY PREDICTED BY IDOCK:   -3.06 KCAL/MOL
REMARK 924 INTRA-LIGAND FREE ENERGY PREDICTED BY IDOCK:   -0.03 KCAL/MOL
REMARK 927      BINDING AFFINITY PREDICTED BY RF-SCORE:    0.00 PKD
ROOT
HETATM    1  N   UNL     1      -5.506   7.254  67.368  1.00  0.00    -0.027 NA 
HETATM    2  C   UNL     1      -6.797   6.912  66.966  1.00  0.00    -0.065 A  
HETATM    3  H1  UNL     1      -5.263   8.230  67.536  1.00  0.00     0.000 HD 
HETATM    4  H2  UNL     1      -4.846   6.869  66.692  1.00  0.00     0.000 HD 
HETATM    5  C   UNL     1      -7.132   5.568  66.737  1.00  0.00    -0.070 A  
HETATM    6  C   UNL     1      -8.460   5.164  66.487  1.00  0.00    -0.111 A  
HETATM    7  C   UNL     1      -9.501   6.091  66.510  1.00  0.00    -0.177 A  
HETATM    8  C   UNL     1      -9.164   7.402  66.787  1.00  0.00    -0.190 A  
HETATM    9  C   UNL     1      -7.857   7.804  67.008  1.00  0.00    -0.112 A  
HETATM   10  C   UNL     1      -7.886   9.252  67.237  1.00  0.00    -0.099 C  
HETATM   11  N   UNL     1      -9.199   9.637  67.178  1.00  0.00    -0.134 N  
HETATM   12  O   UNL     1      -6.901   9.950  67.393  1.00  0.00    -0.080 OA 
HETATM   13  C   UNL     1     -10.020   8.575  66.916  1.00  0.00    -0.265 C  
HETATM   14  O   UNL     1     -11.227   8.560  66.782  1.00  0.00     0.452 OA 
ENDROOT
BRANCH  11  15
HETATM   15  C   UNL     1      -9.706  10.980  67.409  1.00  0.00    -0.168 C  
HETATM   16  C   UNL     1     -10.811  11.075  68.457  1.00  0.00    -0.254 C  
HETATM   17  C   UNL     1     -11.101  12.548  68.719  1.00  0.00    -0.314 C  
HETATM   18  C   UNL     1     -11.449  13.281  67.440  1.00  0.00    -0.332 C  
HETATM   19  O   UNL     1     -12.180  14.266  67.430  1.00  0.00    -0.378 OA 
HETATM   20  N   UNL     1     -10.870  12.819  66.283  1.00  0.00    -0.271 N  
HETATM   21  H   UNL     1     -10.947  13.422  65.463  1.00  0.00     0.000 HD 
HETATM   22  C   UNL     1     -10.196  11.628  66.112  1.00  0.00    -0.226 C  
HETATM   23  O   UNL     1      -9.992  11.175  64.989  1.00  0.00    -0.239 OA 
ENDBRANCH  11  15
TORSDOF 1
ENDMDL
MODEL      196
REMARK 921   NORMALIZED FREE ENERGY PREDICTED BY IDOCK:   -2.84 KCAL/MOL
REMARK 922        TOTAL FREE ENERGY PREDICTED BY IDOCK:   -3.05 KCAL/MOL
REMARK 923 INTER-LIGAND FREE ENERGY PREDICTED BY IDOCK:   -3.07 KCAL/MOL
REMARK 924 INTRA-LIGAND FREE ENERGY PREDICTED BY IDOCK:    0.02 KCAL/MOL
REMARK 927      BINDING AFFINITY PREDICTED BY RF-SCORE:    0.00 PKD
ROOT
HETATM    1  N   UNL     1      -8.988   7.169  71.805  1.00  0.00    -0.129 NA 
HETATM    2  C   UNL     1      -9.121   7.863  70.602  1.00  0.00    -0.153 A  
HETATM    3  H1  UNL     1      -8.991   6.150  71.812  1.00  0.00     0.000 HD 
HETATM    4  H2  UNL     1      -9.711   7.497  72.446  1.00  0.00     0.000 HD 
HETATM    5  C   UNL     1      -9.117   9.267  70.593  1.00  0.00    -0.309 A  
HETATM    6  C   UNL     1      -9.086  10.003  69.390  1.00  0.00    -0.228 A  
HETATM    7  C   UNL     1      -9.008   9.351  68.160  1.00  0.00    -0.128 A  
HETATM    8  C   UNL     1      -8.961   7.971  68.186  1.00  0.00    -0.135 A  
HETATM    9  C   UNL     1      -9.016   7.247  69.365  1.00  0.00    -0.139 A  
HETATM   10  C   UNL     1      -8.973   5.827  68.999  1.00  0.00    -0.117 C  
HETATM   11  N   UNL     1      -8.859   5.772  67.635  1.00  0.00    -0.107 N  
HETATM   12  O   UNL     1      -9.075   4.904  69.787  1.00  0.00    -0.102 OA 
HETATM   13  C   UNL     1      -8.842   7.023  67.084  1.00  0.00    -0.121 C  
HETATM   14  O   UNL     1      -8.768   7.340  65.915  1.00  0.00    -0.149 OA 
ENDROOT
BRANCH  11  15
HETATM   15  C   UNL     1      -8.720   4.564  66.839  1.00  0.00    -0.111 C  
HETATM   16  C   UNL     1      -7.461   4.506  65.979  1.00  0.00    -0.085 C  
HETATM   17  C   UNL     1      -7.365   3.119  65.357  1.00  0.00    -0.072 C  
HETATM   18  C   UNL     1      -8.617   2.772  64.578  1.00  0.00    -0.093 C  
HETATM   19  O   UNL     1      -8.598   2.006  63.620  1.00  0.00    -0.083 OA 
HETATM   20  N   UNL     1      -9.795   3.322  65.020  1.00  0.00    -0.349 N  
HETATM   21  H   UNL     1     -10.654   2.940  64.623  1.00  0.00     0.000 HD 
HETATM   22  C   UNL     1      -9.942   4.335  65.945  1.00  0.00    -0.219 C  
HETATM   23  O   UNL     1     -10.997   4.955  66.039  1.00  0.00    -0.245 OA 
ENDBRANCH  11  15
TORSDOF 1
ENDMDL
MODEL      197
REMARK 921   NORMALIZED FREE ENERGY PREDICTED BY IDOCK:   -2.80 KCAL/MOL
REMARK 922        TOTAL FREE ENERGY PREDICTED BY IDOCK:   -3.00 KCAL/MOL
REMARK 923 INTER-LIGAND FREE ENERGY PREDICTED BY IDOCK:   -2.99 KCAL/MOL
REMARK 924 INTRA-LIGAND FREE ENERGY PREDICTED BY IDOCK:   -0.01 KCAL/MOL
REMARK 927      BINDING AFFINITY PREDICTED BY RF-SCORE:    0.00 PKD
ROOT
HETATM    1  N   UNL     1      -7.722  17.733  66.702  1.00  0.00    -0.224 NA 
HETATM    2  C   UNL     1      -8.877  17.231  67.302  1.00  0.00    -0.222 A  
HETATM    3  H1  UNL     1      -6.980  17.099  66.408  1.00  0.00     0.000 HD 
HETATM    4  H2  UNL     1      -7.318  18.436  67.321  1.00  0.00     0.000 HD 
HETATM    5  C   UNL     1      -9.899  18.104  67.706  1.00  0.00    -0.314 A  
HETATM    6  C   UNL     1     -11.145  17.629  68.167  1.00  0.00     0.075 A  
HETATM    7  C   UNL     1     -11.420  16.263  68.187  1.00  0.00    -0.173 A  
HETATM    8  C   UNL     1     -10.424  15.418  67.738  1.00  0.00    -0.266 A  
HETATM    9  C   UNL     1      -9.192  15.882  67.309  1.00  0.00    -0.216 A  
HETATM   10  C   UNL     1      -8.395  14.707  66.942  1.00  0.00    -0.126 C  
HETATM   11  N   UNL     1      -9.193  13.610  67.133  1.00  0.00    -0.234 N  
HETATM   12  O   UNL     1      -7.230  14.741  66.590  1.00  0.00     0.305 OA 
HETATM   13  C   UNL     1     -10.426  13.965  67.606  1.00  0.00    -0.245 C  
HETATM   14  O   UNL     1     -11.365  13.253  67.897  1.00  0.00    -0.255 OA 
ENDROOT
BRANCH  11  15
HETATM   15  C   UNL     1      -8.836  12.232  66.837  1.00  0.00    -0.207 C  
HETATM   16  C   UNL     1      -9.940  11.412  66.179  1.00  0.00    -0.265 C  
HETATM   17  C   UNL     1      -9.360  10.066  65.764  1.00  0.00    -0.241 C  
HETATM   18  C   UNL     1      -8.727   9.349  66.939  1.00  0.00    -0.127 C  
HETATM   19  O   UNL     1      -8.662   8.125  66.999  1.00  0.00    -0.127 OA 
HETATM   20  N   UNL     1      -8.183  10.135  67.925  1.00  0.00    -0.109 N  
HETATM   21  H   UNL     1      -7.592   9.663  68.611  1.00  0.00     0.000 HD 
HETATM   22  C   UNL     1      -8.350  11.495  68.088  1.00  0.00    -0.152 C  
HETATM   23  O   UNL     1      -8.082  12.039  69.156  1.00  0.00     0.131 OA 
ENDBRANCH  11  15
TORSDOF 1
ENDMDL
MODEL      198
REMARK 921   NORMALIZED FREE ENERGY PREDICTED BY IDOCK:   -2.62 KCAL/MOL
REMARK 922        TOTAL FREE ENERGY PREDICTED BY IDOCK:   -2.81 KCAL/MOL
REMARK 923 INTER-LIGAND FREE ENERGY PREDICTED BY IDOCK:   -2.79 KCAL/MOL
REMARK 924 INTRA-LIGAND FREE ENERGY PREDICTED BY IDOCK:   -0.02 KCAL/MOL
REMARK 927      BINDING AFFINITY PREDICTED BY RF-SCORE:    0.00 PKD
ROOT
HETATM    1  N   UNL     1      -5.943   6.331  72.565  1.00  0.00    -0.038 NA 
HETATM    2  C   UNL     1      -7.287   6.700  72.585  1.00  0.00    -0.088 A  
HETATM    3  H1  UNL     1      -5.508   6.025  71.695  1.00  0.00     0.000 HD 
HETATM    4  H2  UNL     1      -5.797   5.608  73.270  1.00  0.00     0.000 HD 
HETATM    5  C   UNL     1      -7.885   7.123  73.783  1.00  0.00    -0.125 A  
HETATM    6  C   UNL     1      -9.192   7.656  73.815  1.00  0.00    -0.333 A  
HETATM    7  C   UNL     1      -9.918   7.827  72.638  1.00  0.00    -0.298 A  
HETATM    8  C   UNL     1      -9.298   7.454  71.461  1.00  0.00    -0.154 A  
HETATM    9  C   UNL     1      -8.025   6.909  71.431  1.00  0.00    -0.108 A  
HETATM   10  C   UNL     1      -7.718   6.614  70.028  1.00  0.00    -0.102 C  
HETATM   11  N   UNL     1      -8.796   7.027  69.290  1.00  0.00    -0.139 N  
HETATM   12  O   UNL     1      -6.706   6.058  69.641  1.00  0.00    -0.048 OA 
HETATM   13  C   UNL     1      -9.778   7.545  70.087  1.00  0.00    -0.172 C  
HETATM   14  O   UNL     1     -10.864   7.985  69.770  1.00  0.00    -0.245 OA 
ENDROOT
BRANCH  11  15
HETATM   15  C   UNL     1      -8.904   6.986  67.841  1.00  0.00    -0.124 C  
HETATM   16  C   UNL     1      -8.256   5.772  67.184  1.00  0.00    -0.102 C  
HETATM   17  C   UNL     1      -8.612   5.776  65.703  1.00  0.00    -0.151 C  
HETATM   18  C   UNL     1      -8.212   7.077  65.040  1.00  0.00    -0.090 C  
HETATM   19  O   UNL     1      -7.922   7.141  63.849  1.00  0.00    -0.130 OA 
HETATM   20  N   UNL     1      -8.229   8.204  65.824  1.00  0.00    -0.118 N  
HETATM   21  H   UNL     1      -8.150   9.099  65.339  1.00  0.00     0.000 HD 
HETATM   22  C   UNL     1      -8.341   8.256  67.198  1.00  0.00    -0.123 C  
HETATM   23  O   UNL     1      -8.039   9.273  67.817  1.00  0.00    -0.103 OA 
ENDBRANCH  11  15
TORSDOF 1
ENDMDL
MODEL      199
REMARK 921   NORMALIZED FREE ENERGY PREDICTED BY IDOCK:   -2.52 KCAL/MOL
REMARK 922        TOTAL FREE ENERGY PREDICTED BY IDOCK:   -2.71 KCAL/MOL
REMARK 923 INTER-LIGAND FREE ENERGY PREDICTED BY IDOCK:   -2.57 KCAL/MOL
REMARK 924 INTRA-LIGAND FREE ENERGY PREDICTED BY IDOCK:   -0.14 KCAL/MOL
REMARK 927      BINDING AFFINITY PREDICTED BY RF-SCORE:    0.00 PKD
ROOT
HETATM    1  N   UNL     1      -6.733   3.540  69.235  1.00  0.00    -0.037 NA 
HETATM    2  C   UNL     1      -7.458   4.088  70.292  1.00  0.00    -0.045 A  
HETATM    3  H1  UNL     1      -6.800   3.947  68.302  1.00  0.00     0.000 HD 
HETATM    4  H2  UNL     1      -6.960   2.548  69.170  1.00  0.00     0.000 HD 
HETATM    5  C   UNL     1      -7.367   3.528  71.576  1.00  0.00    -0.043 A  
HETATM    6  C   UNL     1      -7.954   4.146  72.702  1.00  0.00    -0.084 A  
HETATM    7  C   UNL     1      -8.607   5.371  72.579  1.00  0.00    -0.118 A  
HETATM    8  C   UNL     1      -8.646   5.935  71.319  1.00  0.00    -0.129 A  
HETATM    9  C   UNL     1      -8.092   5.318  70.209  1.00  0.00    -0.091 A  
HETATM   10  C   UNL     1      -8.352   6.190  69.059  1.00  0.00    -0.112 C  
HETATM   11  N   UNL     1      -9.011   7.292  69.537  1.00  0.00    -0.144 N  
HETATM   12  O   UNL     1      -8.066   5.921  67.907  1.00  0.00    -0.104 OA 
HETATM   13  C   UNL     1      -9.216   7.206  70.886  1.00  0.00    -0.152 C  
HETATM   14  O   UNL     1      -9.777   7.991  71.623  1.00  0.00    -0.157 OA 
ENDROOT
BRANCH  11  15
HETATM   15  C   UNL     1      -9.414   8.450  68.756  1.00  0.00    -0.147 C  
HETATM   16  C   UNL     1     -10.126   8.124  67.447  1.00  0.00    -0.298 C  
HETATM   17  C   UNL     1     -10.645   9.423  66.844  1.00  0.00    -0.238 C  
HETATM   18  C   UNL     1      -9.532  10.434  66.662  1.00  0.00    -0.165 C  
HETATM   19  O   UNL     1      -9.566  11.292  65.785  1.00  0.00    -0.211 OA 
HETATM   20  N   UNL     1      -8.493  10.380  67.558  1.00  0.00    -0.115 N  
HETATM   21  H   UNL     1      -7.849  11.172  67.558  1.00  0.00     0.000 HD 
HETATM   22  C   UNL     1      -8.226   9.369  68.458  1.00  0.00    -0.113 C  
HETATM   23  O   UNL     1      -7.121   9.270  68.986  1.00  0.00    -0.065 OA 
ENDBRANCH  11  15
TORSDOF 1
ENDMDL
MODEL      200
REMARK 921   NORMALIZED FREE ENERGY PREDICTED BY IDOCK:   -2.48 KCAL/MOL
REMARK 922        TOTAL FREE ENERGY PREDICTED BY IDOCK:   -2.67 KCAL/MOL
REMARK 923 INTER-LIGAND FREE ENERGY PREDICTED BY IDOCK:   -3.92 KCAL/MOL
REMARK 924 INTRA-LIGAND FREE ENERGY PREDICTED BY IDOCK:    1.25 KCAL/MOL
REMARK 927      BINDING AFFINITY PREDICTED BY RF-SCORE:    0.00 PKD
ROOT
HETATM    1  N   UNL     1      -5.797   5.873  72.873  1.00  0.00    -0.036 NA 
HETATM    2  C   UNL     1      -6.971   5.231  72.480  1.00  0.00    -0.081 A  
HETATM    3  H1  UNL     1      -5.740   6.891  72.860  1.00  0.00     0.000 HD 
HETATM    4  H2  UNL     1      -5.026   5.500  72.318  1.00  0.00     0.000 HD 
HETATM    5  C   UNL     1      -7.049   3.829  72.499  1.00  0.00    -0.048 A  
HETATM    6  C   UNL     1      -8.263   3.148  72.265  1.00  0.00    -0.067 A  
HETATM    7  C   UNL     1      -9.445   3.856  72.056  1.00  0.00    -0.198 A  
HETATM    8  C   UNL     1      -9.363   5.234  72.090  1.00  0.00    -0.159 A  
HETATM    9  C   UNL     1      -8.168   5.904  72.295  1.00  0.00    -0.111 A  
HETATM   10  C   UNL     1      -8.465   7.339  72.236  1.00  0.00    -0.115 C  
HETATM   11  N   UNL     1      -9.815   7.458  72.038  1.00  0.00    -0.161 N  
HETATM   12  O   UNL     1      -7.631   8.223  72.304  1.00  0.00    -0.113 OA 
HETATM   13  C   UNL     1     -10.416   6.233  71.945  1.00  0.00    -0.209 C  
HETATM   14  O   UNL     1     -11.586   5.971  71.756  1.00  0.00    -0.287 OA 
ENDROOT
BRANCH  11  15
HETATM   15  C   UNL     1     -10.563   8.703  71.978  1.00  0.00    -0.351 C  
HETATM   16  C   UNL     1     -12.073   8.537  71.850  1.00  0.00    -0.411 C  
HETATM   17  C   UNL     1     -12.723   9.908  71.988  1.00  0.00    -0.456 C  
HETATM   18  C   UNL     1     -12.161  10.892  70.984  1.00  0.00    -0.320 C  
HETATM   19  O   UNL     1     -12.818  11.835  70.555  1.00  0.00    -0.094 OA 
HETATM   20  N   UNL     1     -10.854  10.711  70.603  1.00  0.00    -0.312 N  
HETATM   21  H   UNL     1     -10.419  11.475  70.085  1.00  0.00     0.000 HD 
HETATM   22  C   UNL     1     -10.065   9.605  70.845  1.00  0.00    -0.186 C  
HETATM   23  O   UNL     1      -9.034   9.414  70.207  1.00  0.00    -0.204 OA 
ENDBRANCH  11  15
TORSDOF 1
ENDMDL
MODEL      201
REMARK 921   NORMALIZED FREE ENERGY PREDICTED BY IDOCK:   -2.23 KCAL/MOL
REMARK 922        TOTAL FREE ENERGY PREDICTED BY IDOCK:   -2.41 KCAL/MOL
REMARK 923 INTER-LIGAND FREE ENERGY PREDICTED BY IDOCK:   -3.16 KCAL/MOL
REMARK 924 INTRA-LIGAND FREE ENERGY PREDICTED BY IDOCK:    0.75 KCAL/MOL
REMARK 927      BINDING AFFINITY PREDICTED BY RF-SCORE:    0.00 PKD
ROOT
HETATM    1  N   UNL     1      -9.382   7.631  66.122  1.00  0.00    -0.353 NA 
HETATM    2  C   UNL     1      -9.343   7.452  67.504  1.00  0.00    -0.130 A  
HETATM    3  H1  UNL     1      -9.967   8.362  65.716  1.00  0.00     0.000 HD 
HETATM    4  H2  UNL     1      -9.632   6.741  65.690  1.00  0.00     0.000 HD 
HETATM    5  C   UNL     1      -8.539   6.447  68.063  1.00  0.00    -0.117 A  
HETATM    6  C   UNL     1      -8.346   6.336  69.457  1.00  0.00    -0.118 A  
HETATM    7  C   UNL     1      -8.916   7.264  70.328  1.00  0.00    -0.151 A  
HETATM    8  C   UNL     1      -9.663   8.277  69.761  1.00  0.00    -0.180 A  
HETATM    9  C   UNL     1      -9.873   8.372  68.395  1.00  0.00    -0.192 A  
HETATM   10  C   UNL     1     -10.729   9.542  68.173  1.00  0.00    -0.197 C  
HETATM   11  N   UNL     1     -10.958  10.106  69.400  1.00  0.00    -0.234 N  
HETATM   12  O   UNL     1     -11.173   9.882  67.091  1.00  0.00    -0.076 OA 
HETATM   13  C   UNL     1     -10.343   9.400  70.396  1.00  0.00    -0.262 C  
HETATM   14  O   UNL     1     -10.350   9.607  71.593  1.00  0.00    -0.097 OA 
ENDROOT
BRANCH  11  15
HETATM   15  C   UNL     1     -11.706  11.326  69.653  1.00  0.00    -0.350 C  
HETATM   16  C   UNL     1     -10.850  12.551  69.957  1.00  0.00     0.837 C  
HETATM   17  C   UNL     1     -11.759  13.773  70.011  1.00  0.00    -0.327 C  
HETATM   18  C   UNL     1     -12.880  13.587  71.011  1.00  0.00    -0.267 C  
HETATM   19  O   UNL     1     -13.400  14.533  71.594  1.00  0.00    -0.326 OA 
HETATM   20  N   UNL     1     -13.328  12.303  71.209  1.00  0.00     0.032 N  
HETATM   21  H   UNL     1     -14.201  12.199  71.728  1.00  0.00     0.000 HD 
HETATM   22  C   UNL     1     -12.723  11.139  70.782  1.00  0.00    -0.297 C  
HETATM   23  O   UNL     1     -13.031  10.054  71.268  1.00  0.00    -0.350 OA 
ENDBRANCH  11  15
TORSDOF 1
ENDMDL
MODEL      202
REMARK 921   NORMALIZED FREE ENERGY PREDICTED BY IDOCK:   -2.06 KCAL/MOL
REMARK 922        TOTAL FREE ENERGY PREDICTED BY IDOCK:   -2.23 KCAL/MOL
REMARK 923 INTER-LIGAND FREE ENERGY PREDICTED BY IDOCK:   -2.35 KCAL/MOL
REMARK 924 INTRA-LIGAND FREE ENERGY PREDICTED BY IDOCK:    0.13 KCAL/MOL
REMARK 927      BINDING AFFINITY PREDICTED BY RF-SCORE:    0.00 PKD
ROOT
HETATM    1  N   UNL     1      -5.300   7.289  66.642  1.00  0.00    -0.022 NA 
HETATM    2  C   UNL     1      -5.686   8.556  67.075  1.00  0.00    -0.042 A  
HETATM    3  H1  UNL     1      -5.696   6.455  67.075  1.00  0.00     0.000 HD 
HETATM    4  H2  UNL     1      -4.283   7.227  66.695  1.00  0.00     0.000 HD 
HETATM    5  C   UNL     1      -5.141   9.704  66.478  1.00  0.00    -0.039 A  
HETATM    6  C   UNL     1      -5.621  10.997  66.774  1.00  0.00    -0.087 A  
HETATM    7  C   UNL     1      -6.698  11.173  67.641  1.00  0.00    -0.071 A  
HETATM    8  C   UNL     1      -7.257  10.033  68.183  1.00  0.00    -0.081 A  
HETATM    9  C   UNL     1      -6.771   8.764  67.912  1.00  0.00    -0.066 A  
HETATM   10  C   UNL     1      -7.588   7.819  68.680  1.00  0.00    -0.105 C  
HETATM   11  N   UNL     1      -8.537   8.556  69.338  1.00  0.00    -0.127 N  
HETATM   12  O   UNL     1      -7.392   6.619  68.735  1.00  0.00    -0.085 OA 
HETATM   13  C   UNL     1      -8.399   9.892  69.080  1.00  0.00    -0.145 C  
HETATM   14  O   UNL     1      -9.053  10.822  69.506  1.00  0.00    -0.048 OA 
ENDROOT
BRANCH  11  15
HETATM   15  C   UNL     1      -9.604   8.026  70.171  1.00  0.00    -0.175 C  
HETATM   16  C   UNL     1     -11.014   8.315  69.666  1.00  0.00    -0.092 C  
HETATM   17  C   UNL     1     -12.003   7.544  70.530  1.00  0.00    -0.088 C  
HETATM   18  C   UNL     1     -11.834   7.877  71.998  1.00  0.00    -0.318 C  
HETATM   19  O   UNL     1     -12.765   7.812  72.795  1.00  0.00     0.100 OA 
HETATM   20  N   UNL     1     -10.570   8.216  72.415  1.00  0.00    -0.298 N  
HETATM   21  H   UNL     1     -10.415   8.249  73.423  1.00  0.00     0.000 HD 
HETATM   22  C   UNL     1      -9.486   8.516  71.616  1.00  0.00    -0.246 C  
HETATM   23  O   UNL     1      -8.506   9.097  72.075  1.00  0.00    -0.319 OA 
ENDBRANCH  11  15
TORSDOF 1
ENDMDL
MODEL      203
REMARK 921   NORMALIZED FREE ENERGY PREDICTED BY IDOCK:   -1.94 KCAL/MOL
REMARK 922        TOTAL FREE ENERGY PREDICTED BY IDOCK:   -2.10 KCAL/MOL
REMARK 923 INTER-LIGAND FREE ENERGY PREDICTED BY IDOCK:   -2.96 KCAL/MOL
REMARK 924 INTRA-LIGAND FREE ENERGY PREDICTED BY IDOCK:    0.87 KCAL/MOL
REMARK 927      BINDING AFFINITY PREDICTED BY RF-SCORE:    0.00 PKD
ROOT
HETATM    1  N   UNL     1      -8.853  16.715  69.572  1.00  0.00     0.135 NA 
HETATM    2  C   UNL     1      -8.226  15.562  69.102  1.00  0.00    -0.247 A  
HETATM    3  H1  UNL     1      -9.652  17.105  69.074  1.00  0.00     0.000 HD 
HETATM    4  H2  UNL     1      -8.148  17.446  69.672  1.00  0.00     0.000 HD 
HETATM    5  C   UNL     1      -7.125  15.026  69.789  1.00  0.00    -0.170 A  
HETATM    6  C   UNL     1      -6.565  13.778  69.440  1.00  0.00    -0.100 A  
HETATM    7  C   UNL     1      -7.126  13.008  68.423  1.00  0.00    -0.103 A  
HETATM    8  C   UNL     1      -8.239  13.525  67.789  1.00  0.00    -0.176 A  
HETATM    9  C   UNL     1      -8.775  14.760  68.113  1.00  0.00    -0.168 A  
HETATM   10  C   UNL     1      -9.916  14.981  67.220  1.00  0.00    -0.233 C  
HETATM   11  N   UNL     1     -10.030  13.864  66.436  1.00  0.00    -0.289 N  
HETATM   12  O   UNL     1     -10.578  16.003  67.180  1.00  0.00    -0.306 OA 
HETATM   13  C   UNL     1      -9.058  12.948  66.728  1.00  0.00    -0.211 C  
HETATM   14  O   UNL     1      -8.854  11.864  66.220  1.00  0.00    -0.186 OA 
ENDROOT
BRANCH  11  15
HETATM   15  C   UNL     1     -11.065  13.618  65.446  1.00  0.00    -0.298 C  
HETATM   16  C   UNL     1     -12.176  12.678  65.901  1.00  0.00    -0.375 C  
HETATM   17  C   UNL     1     -13.267  12.669  64.837  1.00  0.00     0.400 C  
HETATM   18  C   UNL     1     -12.713  12.296  63.478  1.00  0.00    -0.393 C  
HETATM   19  O   UNL     1     -13.397  11.742  62.624  1.00  0.00     0.091 OA 
HETATM   20  N   UNL     1     -11.410  12.647  63.222  1.00  0.00    -0.750 N  
HETATM   21  H   UNL     1     -11.100  12.573  62.252  1.00  0.00     0.000 HD 
HETATM   22  C   UNL     1     -10.475  13.089  64.135  1.00  0.00    -0.372 C  
HETATM   23  O   UNL     1      -9.277  13.079  63.866  1.00  0.00     0.791 OA 
ENDBRANCH  11  15
TORSDOF 1
ENDMDL
MODEL      204
REMARK 921   NORMALIZED FREE ENERGY PREDICTED BY IDOCK:   -1.47 KCAL/MOL
REMARK 922        TOTAL FREE ENERGY PREDICTED BY IDOCK:   -1.59 KCAL/MOL
REMARK 923 INTER-LIGAND FREE ENERGY PREDICTED BY IDOCK:   -1.49 KCAL/MOL
REMARK 924 INTRA-LIGAND FREE ENERGY PREDICTED BY IDOCK:   -0.11 KCAL/MOL
REMARK 927      BINDING AFFINITY PREDICTED BY RF-SCORE:    0.00 PKD
ROOT
HETATM    1  N   UNL     1      -5.166  11.937  66.090  1.00  0.00    -0.449 NA 
HETATM    2  C   UNL     1      -6.392  12.146  66.720  1.00  0.00     0.130 A  
HETATM    3  H1  UNL     1      -4.812  10.990  65.958  1.00  0.00     0.000 HD 
HETATM    4  H2  UNL     1      -4.455  12.480  66.582  1.00  0.00     0.000 HD 
HETATM    5  C   UNL     1      -6.879  13.450  66.902  1.00  0.00     0.897 A  
HETATM    6  C   UNL     1      -8.181  13.698  67.386  1.00  0.00    -0.187 A  
HETATM    7  C   UNL     1      -9.051  12.642  67.654  1.00  0.00    -0.192 A  
HETATM    8  C   UNL     1      -8.577  11.366  67.423  1.00  0.00    -0.142 A  
HETATM    9  C   UNL     1      -7.290  11.121  66.971  1.00  0.00    -0.128 A  
HETATM   10  C   UNL     1      -7.140   9.665  66.874  1.00  0.00    -0.086 C  
HETATM   11  N   UNL     1      -8.342   9.117  67.234  1.00  0.00    -0.120 N  
HETATM   12  O   UNL     1      -6.107   9.093  66.576  1.00  0.00    -0.061 OA 
HETATM   13  C   UNL     1      -9.251  10.081  67.571  1.00  0.00    -0.137 C  
HETATM   14  O   UNL     1     -10.397   9.950  67.949  1.00  0.00    -0.184 OA 
ENDROOT
BRANCH  11  15
HETATM   15  C   UNL     1      -8.671   7.701  67.224  1.00  0.00    -0.124 C  
HETATM   16  C   UNL     1      -7.780   6.830  68.104  1.00  0.00    -0.109 C  
HETATM   17  C   UNL     1      -8.360   5.422  68.135  1.00  0.00    -0.098 C  
HETATM   18  C   UNL     1      -8.523   4.859  66.739  1.00  0.00    -0.106 C  
HETATM   19  O   UNL     1      -8.473   3.654  66.510  1.00  0.00    -0.103 OA 
HETATM   20  N   UNL     1      -8.777   5.759  65.732  1.00  0.00    -0.149 N  
HETATM   21  H   UNL     1      -9.077   5.370  64.838  1.00  0.00     0.000 HD 
HETATM   22  C   UNL     1      -8.669   7.132  65.802  1.00  0.00    -0.107 C  
HETATM   23  O   UNL     1      -8.618   7.813  64.781  1.00  0.00    -0.030 OA 
ENDBRANCH  11  15
TORSDOF 1
ENDMDL
MODEL      205
REMARK 921   NORMALIZED FREE ENERGY PREDICTED BY IDOCK:   -1.20 KCAL/MOL
REMARK 922        TOTAL FREE ENERGY PREDICTED BY IDOCK:   -1.32 KCAL/MOL
REMARK 923 INTER-LIGAND FREE ENERGY PREDICTED BY IDOCK:   -1.62 KCAL/MOL
REMARK 924 INTRA-LIGAND FREE ENERGY PREDICTED BY IDOCK:    0.30 KCAL/MOL
REMARK 927      BINDING AFFINITY PREDICTED BY RF-SCORE:    0.00 PKD
ROOT
HETATM    1  N   UNL     1      -7.876   6.880  69.175  1.00  0.00    -0.109 NA 
HETATM    2  C   UNL     1      -7.244   7.300  68.006  1.00  0.00    -0.091 A  
HETATM    3  H1  UNL     1      -7.897   7.488  69.994  1.00  0.00     0.000 HD 
HETATM    4  H2  UNL     1      -7.477   5.982  69.451  1.00  0.00     0.000 HD 
HETATM    5  C   UNL     1      -7.216   6.464  66.879  1.00  0.00    -0.074 A  
HETATM    6  C   UNL     1      -6.731   6.911  65.631  1.00  0.00    -0.052 A  
HETATM    7  C   UNL     1      -6.307   8.229  65.466  1.00  0.00    -0.049 A  
HETATM    8  C   UNL     1      -6.388   9.055  66.569  1.00  0.00    -0.066 A  
HETATM    9  C   UNL     1      -6.840   8.610  67.801  1.00  0.00    -0.067 A  
HETATM   10  C   UNL     1      -6.756   9.746  68.725  1.00  0.00    -0.050 C  
HETATM   11  N   UNL     1      -6.296  10.814  68.001  1.00  0.00    -0.057 N  
HETATM   12  O   UNL     1      -7.007   9.692  69.915  1.00  0.00    -0.059 OA 
HETATM   13  C   UNL     1      -6.059  10.470  66.699  1.00  0.00    -0.073 C  
HETATM   14  O   UNL     1      -5.636  11.159  65.793  1.00  0.00    -0.136 OA 
ENDROOT
BRANCH  11  15
HETATM   15  C   UNL     1      -6.118  12.168  68.497  1.00  0.00    -0.051 C  
HETATM   16  C   UNL     1      -5.940  12.278  70.008  1.00  0.00    -0.153 C  
HETATM   17  C   UNL     1      -5.580  13.718  70.349  1.00  0.00    -0.140 C  
HETATM   18  C   UNL     1      -6.612  14.689  69.815  1.00  0.00    -0.164 C  
HETATM   19  O   UNL     1      -6.833  15.770  70.352  1.00  0.00     0.189 OA 
HETATM   20  N   UNL     1      -7.268  14.326  68.663  1.00  0.00    -0.117 N  
HETATM   21  H   UNL     1      -7.813  15.054  68.200  1.00  0.00     0.000 HD 
HETATM   22  C   UNL     1      -7.268  13.083  68.066  1.00  0.00    -0.119 C  
HETATM   23  O   UNL     1      -8.117  12.784  67.231  1.00  0.00    -0.178 OA 
ENDBRANCH  11  15
TORSDOF 1
ENDMDL
MODEL      206
REMARK 921   NORMALIZED FREE ENERGY PREDICTED BY IDOCK:   -0.25 KCAL/MOL
REMARK 922        TOTAL FREE ENERGY PREDICTED BY IDOCK:   -0.31 KCAL/MOL
REMARK 923 INTER-LIGAND FREE ENERGY PREDICTED BY IDOCK:   -2.16 KCAL/MOL
REMARK 924 INTRA-LIGAND FREE ENERGY PREDICTED BY IDOCK:    1.85 KCAL/MOL
REMARK 927      BINDING AFFINITY PREDICTED BY RF-SCORE:    0.00 PKD
ROOT
HETATM    1  N   UNL     1      -5.247  16.691  72.274  1.00  0.00     0.311 NA 
HETATM    2  C   UNL     1      -5.526  17.166  70.993  1.00  0.00     0.039 A  
HETATM    3  H1  UNL     1      -5.497  15.736  72.533  1.00  0.00     0.000 HD 
HETATM    4  H2  UNL     1      -5.665  17.328  72.951  1.00  0.00     0.000 HD 
HETATM    5  C   UNL     1      -5.181  18.479  70.637  1.00  0.00    -0.257 A  
HETATM    6  C   UNL     1      -5.298  18.946  69.310  1.00  0.00    -0.204 A  
HETATM    7  C   UNL     1      -5.717  18.092  68.292  1.00  0.00    -0.161 A  
HETATM    8  C   UNL     1      -6.005  16.789  68.647  1.00  0.00    -0.136 A  
HETATM    9  C   UNL     1      -5.914  16.336  69.953  1.00  0.00    -0.188 A  
HETATM   10  C   UNL     1      -6.321  14.927  69.948  1.00  0.00    -0.157 C  
HETATM   11  N   UNL     1      -6.599  14.598  68.648  1.00  0.00    -0.082 N  
HETATM   12  O   UNL     1      -6.429  14.233  70.943  1.00  0.00    -0.092 OA 
HETATM   13  C   UNL     1      -6.425  15.668  67.814  1.00  0.00    -0.160 C  
HETATM   14  O   UNL     1      -6.596  15.734  66.614  1.00  0.00    -0.136 OA 
ENDROOT
BRANCH  11  15
HETATM   15  C   UNL     1      -6.981  13.282  68.164  1.00  0.00    -0.114 C  
HETATM   16  C   UNL     1      -8.482  13.077  67.986  1.00  0.00    -0.181 C  
HETATM   17  C   UNL     1      -8.707  11.734  67.303  1.00  0.00    -0.163 C  
HETATM   18  C   UNL     1      -8.054  10.604  68.071  1.00  0.00    -0.112 C  
HETATM   19  O   UNL     1      -8.488   9.456  68.040  1.00  0.00    -0.119 OA 
HETATM   20  N   UNL     1      -6.917  10.910  68.778  1.00  0.00    -0.072 N  
HETATM   21  H   UNL     1      -6.374  10.123  69.132  1.00  0.00     0.000 HD 
HETATM   22  C   UNL     1      -6.432  12.170  69.061  1.00  0.00    -0.092 C  
HETATM   23  O   UNL     1      -5.597  12.340  69.946  1.00  0.00    -0.088 OA 
ENDBRANCH  11  15
TORSDOF 1
ENDMDL
MODEL      207
REMARK 921   NORMALIZED FREE ENERGY PREDICTED BY IDOCK:   -0.13 KCAL/MOL
REMARK 922        TOTAL FREE ENERGY PREDICTED BY IDOCK:   -0.18 KCAL/MOL
REMARK 923 INTER-LIGAND FREE ENERGY PREDICTED BY IDOCK:   -3.80 KCAL/MOL
REMARK 924 INTRA-LIGAND FREE ENERGY PREDICTED BY IDOCK:    3.62 KCAL/MOL
REMARK 927      BINDING AFFINITY PREDICTED BY RF-SCORE:    0.00 PKD
ROOT
HETATM    1  N   UNL     1      -7.280  10.397  66.048  1.00  0.00    -0.128 NA 
HETATM    2  C   UNL     1      -8.563  10.937  65.967  1.00  0.00    -0.177 A  
HETATM    3  H1  UNL     1      -6.500  10.974  66.362  1.00  0.00     0.000 HD 
HETATM    4  H2  UNL     1      -7.041  10.000  65.139  1.00  0.00     0.000 HD 
HETATM    5  C   UNL     1      -9.637  10.143  65.535  1.00  0.00    -0.310 A  
HETATM    6  C   UNL     1     -10.971  10.600  65.592  1.00  0.00     0.110 A  
HETATM    7  C   UNL     1     -11.271  11.849  66.133  1.00  0.00    -0.387 A  
HETATM    8  C   UNL     1     -10.210  12.599  66.602  1.00  0.00    -0.246 A  
HETATM    9  C   UNL     1      -8.898  12.162  66.523  1.00  0.00    -0.151 A  
HETATM   10  C   UNL     1      -8.057  13.224  67.085  1.00  0.00    -0.088 C  
HETATM   11  N   UNL     1      -8.901  14.220  67.501  1.00  0.00    -0.188 N  
HETATM   12  O   UNL     1      -6.840  13.207  67.109  1.00  0.00    -0.107 OA 
HETATM   13  C   UNL     1     -10.207  13.908  67.245  1.00  0.00    -0.249 C  
HETATM   14  O   UNL     1     -11.205  14.563  67.466  1.00  0.00    -0.296 OA 
ENDROOT
BRANCH  11  15
HETATM   15  C   UNL     1      -8.507  15.445  68.178  1.00  0.00    -0.147 C  
HETATM   16  C   UNL     1      -9.019  16.727  67.530  1.00  0.00    -0.208 C  
HETATM   17  C   UNL     1      -8.687  17.897  68.448  1.00  0.00    -0.296 C  
HETATM   18  C   UNL     1      -7.206  17.955  68.760  1.00  0.00    -0.275 C  
HETATM   19  O   UNL     1      -6.634  19.009  69.018  1.00  0.00    -0.266 OA 
HETATM   20  N   UNL     1      -6.530  16.760  68.785  1.00  0.00    -0.161 N  
HETATM   21  H   UNL     1      -5.590  16.776  69.180  1.00  0.00     0.000 HD 
HETATM   22  C   UNL     1      -6.987  15.539  68.332  1.00  0.00    -0.115 C  
HETATM   23  O   UNL     1      -6.208  14.615  68.117  1.00  0.00    -0.115 OA 
ENDBRANCH  11  15
TORSDOF 1
ENDMDL
MODEL      208
REMARK 921   NORMALIZED FREE ENERGY PREDICTED BY IDOCK:   -0.06 KCAL/MOL
REMARK 922        TOTAL FREE ENERGY PREDICTED BY IDOCK:   -0.10 KCAL/MOL
REMARK 923 INTER-LIGAND FREE ENERGY PREDICTED BY IDOCK:   -3.86 KCAL/MOL
REMARK 924 INTRA-LIGAND FREE ENERGY PREDICTED BY IDOCK:    3.76 KCAL/MOL
REMARK 927      BINDING AFFINITY PREDICTED BY RF-SCORE:    0.00 PKD
ROOT
HETATM    1  N   UNL     1      -6.178  10.979  67.319  1.00  0.00    -0.062 NA 
HETATM    2  C   UNL     1      -7.541  11.113  67.581  1.00  0.00    -0.105 A  
HETATM    3  H1  UNL     1      -5.615  11.799  67.095  1.00  0.00     0.000 HD 
HETATM    4  H2  UNL     1      -6.060  10.293  66.573  1.00  0.00     0.000 HD 
HETATM    5  C   UNL     1      -8.315   9.984  67.890  1.00  0.00    -0.117 A  
HETATM    6  C   UNL     1      -9.656  10.095  68.316  1.00  0.00    -0.150 A  
HETATM    7  C   UNL     1     -10.243  11.346  68.494  1.00  0.00    -0.216 A  
HETATM    8  C   UNL     1      -9.455  12.450  68.235  1.00  0.00    -0.203 A  
HETATM    9  C   UNL     1      -8.146  12.342  67.792  1.00  0.00    -0.162 A  
HETATM   10  C   UNL     1      -7.645  13.706  67.599  1.00  0.00    -0.179 C  
HETATM   11  N   UNL     1      -8.655  14.556  67.965  1.00  0.00    -0.154 N  
HETATM   12  O   UNL     1      -6.550  13.985  67.145  1.00  0.00    -0.179 OA 
HETATM   13  C   UNL     1      -9.768  13.868  68.361  1.00  0.00    -0.226 C  
HETATM   14  O   UNL     1     -10.840  14.302  68.731  1.00  0.00    -0.239 OA 
ENDROOT
BRANCH  11  15
HETATM   15  C   UNL     1      -8.580  16.008  67.994  1.00  0.00    -0.165 C  
HETATM   16  C   UNL     1      -7.574  16.577  68.989  1.00  0.00    -0.233 C  
HETATM   17  C   UNL     1      -7.478  18.082  68.770  1.00  0.00    -0.271 C  
HETATM   18  C   UNL     1      -8.835  18.746  68.875  1.00  0.00    -0.202 C  
HETATM   19  O   UNL     1      -8.966  19.910  69.238  1.00  0.00    -0.062 OA 
HETATM   20  N   UNL     1      -9.923  17.996  68.499  1.00  0.00    -0.371 N  
HETATM   21  H   UNL     1     -10.804  18.496  68.384  1.00  0.00     0.000 HD 
HETATM   22  C   UNL     1      -9.950  16.637  68.261  1.00  0.00    -0.261 C  
HETATM   23  O   UNL     1     -11.014  16.023  68.235  1.00  0.00    -0.305 OA 
ENDBRANCH  11  15
TORSDOF 1
ENDMDL
MODEL      209
REMARK 921   NORMALIZED FREE ENERGY PREDICTED BY IDOCK:    0.22 KCAL/MOL
REMARK 922        TOTAL FREE ENERGY PREDICTED BY IDOCK:    0.19 KCAL/MOL
REMARK 923 INTER-LIGAND FREE ENERGY PREDICTED BY IDOCK:    0.15 KCAL/MOL
REMARK 924 INTRA-LIGAND FREE ENERGY PREDICTED BY IDOCK:    0.04 KCAL/MOL
REMARK 927      BINDING AFFINITY PREDICTED BY RF-SCORE:    0.00 PKD
ROOT
HETATM    1  N   UNL     1      -6.380  20.665  70.133  1.00  0.00    -0.293 NA 
HETATM    2  C   UNL     1      -6.150  19.318  70.410  1.00  0.00    -0.118 A  
HETATM    3  H1  UNL     1      -6.923  20.935  69.313  1.00  0.00     0.000 HD 
HETATM    4  H2  UNL     1      -5.480  21.143  70.095  1.00  0.00     0.000 HD 
HETATM    5  C   UNL     1      -5.404  18.947  71.540  1.00  0.00    -0.284 A  
HETATM    6  C   UNL     1      -5.285  17.600  71.944  1.00  0.00     0.558 A  
HETATM    7  C   UNL     1      -5.954  16.590  71.254  1.00  0.00     1.083 A  
HETATM    8  C   UNL     1      -6.725  16.975  70.175  1.00  0.00     0.662 A  
HETATM    9  C   UNL     1      -6.824  18.294  69.763  1.00  0.00     0.160 A  
HETATM   10  C   UNL     1      -7.695  18.311  68.583  1.00  0.00    -0.302 C  
HETATM   11  N   UNL     1      -8.101  17.020  68.370  1.00  0.00    -0.235 N  
HETATM   12  O   UNL     1      -7.941  19.300  67.917  1.00  0.00    -0.276 OA 
HETATM   13  C   UNL     1      -7.560  16.168  69.292  1.00  0.00    -0.218 C  
HETATM   14  O   UNL     1      -7.694  14.965  69.389  1.00  0.00    -0.175 OA 
ENDROOT
BRANCH  11  15
HETATM   15  C   UNL     1      -9.027  16.576  67.342  1.00  0.00    -0.199 C  
HETATM   16  C   UNL     1      -8.522  16.739  65.912  1.00  0.00    -0.032 C  
HETATM   17  C   UNL     1      -9.512  16.064  64.971  1.00  0.00     1.057 C  
HETATM   18  C   UNL     1     -10.913  16.607  65.156  1.00  0.00    -0.151 C  
HETATM   19  O   UNL     1     -11.734  16.623  64.245  1.00  0.00    -0.858 OA 
HETATM   20  N   UNL     1     -11.246  17.047  66.414  1.00  0.00     0.422 N  
HETATM   21  H   UNL     1     -12.235  17.229  66.587  1.00  0.00     0.000 HD 
HETATM   22  C   UNL     1     -10.386  17.270  67.470  1.00  0.00    -0.346 C  
HETATM   23  O   UNL     1     -10.733  17.945  68.435  1.00  0.00    -0.303 OA 
ENDBRANCH  11  15
TORSDOF 1
ENDMDL
MODEL      210
REMARK 921   NORMALIZED FREE ENERGY PREDICTED BY IDOCK:    1.57 KCAL/MOL
REMARK 922        TOTAL FREE ENERGY PREDICTED BY IDOCK:    1.61 KCAL/MOL
REMARK 923 INTER-LIGAND FREE ENERGY PREDICTED BY IDOCK:    1.58 KCAL/MOL
REMARK 924 INTRA-LIGAND FREE ENERGY PREDICTED BY IDOCK:    0.04 KCAL/MOL
REMARK 927      BINDING AFFINITY PREDICTED BY RF-SCORE:    0.00 PKD
ROOT
HETATM    1  N   UNL     1      -8.972   6.158  67.172  1.00  0.00    -0.111 NA 
HETATM    2  C   UNL     1      -9.917   7.058  67.662  1.00  0.00    -0.154 A  
HETATM    3  H1  UNL     1      -8.074   6.495  66.824  1.00  0.00     0.000 HD 
HETATM    4  H2  UNL     1      -9.411   5.597  66.441  1.00  0.00     0.000 HD 
HETATM    5  C   UNL     1     -11.152   6.594  68.141  1.00  0.00    -0.287 A  
HETATM    6  C   UNL     1     -12.068   7.449  68.791  1.00  0.00     2.144 A  
HETATM    7  C   UNL     1     -11.748   8.786  69.023  1.00  0.00     1.188 A  
HETATM    8  C   UNL     1     -10.509   9.217  68.592  1.00  0.00    -0.236 A  
HETATM    9  C   UNL     1      -9.620   8.385  67.932  1.00  0.00    -0.180 A  
HETATM   10  C   UNL     1      -8.439   9.191  67.606  1.00  0.00    -0.116 C  
HETATM   11  N   UNL     1      -8.661  10.444  68.112  1.00  0.00    -0.123 N  
HETATM   12  O   UNL     1      -7.487   8.796  66.959  1.00  0.00    -0.089 OA 
HETATM   13  C   UNL     1      -9.883  10.528  68.721  1.00  0.00    -0.186 C  
HETATM   14  O   UNL     1     -10.403  11.485  69.256  1.00  0.00    -0.120 OA 
ENDROOT
BRANCH  11  15
HETATM   15  C   UNL     1      -7.727  11.557  68.076  1.00  0.00    -0.119 C  
HETATM   16  C   UNL     1      -7.726  12.433  69.325  1.00  0.00     0.415 C  
HETATM   17  C   UNL     1      -6.578  13.428  69.216  1.00  0.00    -0.097 C  
HETATM   18  C   UNL     1      -6.667  14.239  67.940  1.00  0.00    -0.167 C  
HETATM   19  O   UNL     1      -6.216  15.377  67.856  1.00  0.00    -0.126 OA 
HETATM   20  N   UNL     1      -7.241  13.625  66.853  1.00  0.00    -0.081 N  
HETATM   21  H   UNL     1      -7.126  14.091  65.953  1.00  0.00     0.000 HD 
HETATM   22  C   UNL     1      -7.955  12.445  66.850  1.00  0.00    -0.038 C  
HETATM   23  O   UNL     1      -8.677  12.148  65.901  1.00  0.00     0.061 OA 
ENDBRANCH  11  15
TORSDOF 1
ENDMDL
MODEL      211
REMARK 921   NORMALIZED FREE ENERGY PREDICTED BY IDOCK:    2.82 KCAL/MOL
REMARK 922        TOTAL FREE ENERGY PREDICTED BY IDOCK:    2.94 KCAL/MOL
REMARK 923 INTER-LIGAND FREE ENERGY PREDICTED BY IDOCK:   -0.50 KCAL/MOL
REMARK 924 INTRA-LIGAND FREE ENERGY PREDICTED BY IDOCK:    3.44 KCAL/MOL
REMARK 927      BINDING AFFINITY PREDICTED BY RF-SCORE:    0.00 PKD
ROOT
HETATM    1  N   UNL     1      -6.512  17.416  64.741  1.00  0.00     1.669 NA 
HETATM    2  C   UNL     1      -6.308  18.110  65.933  1.00  0.00    -0.257 A  
HETATM    3  H1  UNL     1      -6.479  16.397  64.730  1.00  0.00     0.000 HD 
HETATM    4  H2  UNL     1      -5.853  17.768  64.047  1.00  0.00     0.000 HD 
HETATM    5  C   UNL     1      -6.354  19.513  65.949  1.00  0.00    -0.225 A  
HETATM    6  C   UNL     1      -6.313  20.246  67.155  1.00  0.00    -0.239 A  
HETATM    7  C   UNL     1      -6.275  19.589  68.383  1.00  0.00    -0.266 A  
HETATM    8  C   UNL     1      -6.281  18.208  68.355  1.00  0.00    -0.191 A  
HETATM    9  C   UNL     1      -6.297  17.488  67.171  1.00  0.00    -0.184 A  
HETATM   10  C   UNL     1      -6.267  16.067  67.533  1.00  0.00    -0.165 C  
HETATM   11  N   UNL     1      -6.272  16.005  68.901  1.00  0.00    -0.121 N  
HETATM   12  O   UNL     1      -6.198  15.150  66.736  1.00  0.00     0.203 OA 
HETATM   13  C   UNL     1      -6.285  17.254  69.458  1.00  0.00    -0.251 C  
HETATM   14  O   UNL     1      -6.276  17.566  70.631  1.00  0.00     0.342 OA 
ENDROOT
BRANCH  11  15
HETATM   15  C   UNL     1      -6.311  14.792  69.701  1.00  0.00    -0.142 C  
HETATM   16  C   UNL     1      -5.573  14.879  71.033  1.00  0.00    -0.090 C  
HETATM   17  C   UNL     1      -5.861  13.611  71.827  1.00  0.00     0.101 C  
HETATM   18  C   UNL     1      -5.495  12.369  71.042  1.00  0.00    -0.116 C  
HETATM   19  O   UNL     1      -5.154  11.326  71.591  1.00  0.00    -0.236 OA 
HETATM   20  N   UNL     1      -5.603  12.445  69.675  1.00  0.00    -0.084 N  
HETATM   21  H   UNL     1      -5.547  11.564  69.163  1.00  0.00     0.000 HD 
HETATM   22  C   UNL     1      -5.782  13.586  68.920  1.00  0.00    -0.074 C  
HETATM   23  O   UNL     1      -5.559  13.583  67.712  1.00  0.00    -0.170 OA 
ENDBRANCH  11  15
TORSDOF 1
ENDMDL
MODEL      212
REMARK 921   NORMALIZED FREE ENERGY PREDICTED BY IDOCK:    3.71 KCAL/MOL
REMARK 922        TOTAL FREE ENERGY PREDICTED BY IDOCK:    3.89 KCAL/MOL
REMARK 923 INTER-LIGAND FREE ENERGY PREDICTED BY IDOCK:    0.93 KCAL/MOL
REMARK 924 INTRA-LIGAND FREE ENERGY PREDICTED BY IDOCK:    2.96 KCAL/MOL
REMARK 927      BINDING AFFINITY PREDICTED BY RF-SCORE:    0.00 PKD
ROOT
HETATM    1  N   UNL     1     -13.482  14.968  69.653  1.00  0.00     0.458 NA 
HETATM    2  C   UNL     1     -12.635  13.868  69.525  1.00  0.00     0.075 A  
HETATM    3  H1  UNL     1     -13.096  15.897  69.816  1.00  0.00     0.000 HD 
HETATM    4  H2  UNL     1     -14.160  14.767  70.389  1.00  0.00     0.000 HD 
HETATM    5  C   UNL     1     -13.167  12.589  69.300  1.00  0.00     2.510 A  
HETATM    6  C   UNL     1     -12.343  11.481  69.004  1.00  0.00    -0.003 A  
HETATM    7  C   UNL     1     -10.964  11.636  68.877  1.00  0.00    -0.282 A  
HETATM    8  C   UNL     1     -10.459  12.910  69.051  1.00  0.00    -0.022 A  
HETATM    9  C   UNL     1     -11.263  13.993  69.365  1.00  0.00    -0.283 A  
HETATM   10  C   UNL     1     -10.382  15.157  69.500  1.00  0.00    -0.243 C  
HETATM   11  N   UNL     1      -9.110  14.727  69.227  1.00  0.00    -0.088 N  
HETATM   12  O   UNL     1     -10.746  16.267  69.843  1.00  0.00    -0.322 OA 
HETATM   13  C   UNL     1      -9.086  13.389  68.946  1.00  0.00     0.254 C  
HETATM   14  O   UNL     1      -8.134  12.684  68.678  1.00  0.00    -0.111 OA 
ENDROOT
BRANCH  11  15
HETATM   15  C   UNL     1      -7.919  15.559  69.181  1.00  0.00    -0.222 C  
HETATM   16  C   UNL     1      -6.902  15.282  70.284  1.00  0.00     0.089 C  
HETATM   17  C   UNL     1      -5.644  16.090  69.994  1.00  0.00    -0.159 C  
HETATM   18  C   UNL     1      -5.953  17.565  69.848  1.00  0.00    -0.223 C  
HETATM   19  O   UNL     1      -5.131  18.435  70.116  1.00  0.00    -0.194 OA 
HETATM   20  N   UNL     1      -7.193  17.893  69.354  1.00  0.00    -0.060 N  
HETATM   21  H   UNL     1      -7.330  18.865  69.075  1.00  0.00     0.000 HD 
HETATM   22  C   UNL     1      -8.272  17.048  69.196  1.00  0.00    -0.034 C  
HETATM   23  O   UNL     1      -9.405  17.496  69.043  1.00  0.00    -0.209 OA 
ENDBRANCH  11  15
TORSDOF 1
ENDMDL
MODEL      213
REMARK 921   NORMALIZED FREE ENERGY PREDICTED BY IDOCK:    6.34 KCAL/MOL
REMARK 922        TOTAL FREE ENERGY PREDICTED BY IDOCK:    6.67 KCAL/MOL
REMARK 923 INTER-LIGAND FREE ENERGY PREDICTED BY IDOCK:    4.69 KCAL/MOL
REMARK 924 INTRA-LIGAND FREE ENERGY PREDICTED BY IDOCK:    1.97 KCAL/MOL
REMARK 927      BINDING AFFINITY PREDICTED BY RF-SCORE:    0.00 PKD
ROOT
HETATM    1  N   UNL     1     -11.982   5.225  63.158  1.00  0.00     2.888 NA 
HETATM    2  C   UNL     1     -10.894   4.362  63.292  1.00  0.00     0.403 A  
HETATM    3  H1  UNL     1     -12.058   6.050  63.752  1.00  0.00     0.000 HD 
HETATM    4  H2  UNL     1     -12.838   4.679  63.255  1.00  0.00     0.000 HD 
HETATM    5  C   UNL     1     -10.790   3.226  62.474  1.00  0.00    -0.147 A  
HETATM    6  C   UNL     1      -9.632   2.419  62.465  1.00  0.00    -0.089 A  
HETATM    7  C   UNL     1      -8.524   2.759  63.240  1.00  0.00    -0.086 A  
HETATM    8  C   UNL     1      -8.622   3.906  64.002  1.00  0.00    -0.098 A  
HETATM    9  C   UNL     1      -9.767   4.686  64.030  1.00  0.00     0.163 A  
HETATM   10  C   UNL     1      -9.512   5.789  64.962  1.00  0.00     0.546 C  
HETATM   11  N   UNL     1      -8.227   5.639  65.413  1.00  0.00    -0.126 N  
HETATM   12  O   UNL     1     -10.333   6.628  65.284  1.00  0.00     1.910 OA 
HETATM   13  C   UNL     1      -7.634   4.532  64.874  1.00  0.00    -0.077 C  
HETATM   14  O   UNL     1      -6.518   4.096  65.066  1.00  0.00    -0.033 OA 
ENDROOT
BRANCH  11  15
HETATM   15  C   UNL     1      -7.527   6.544  66.310  1.00  0.00    -0.081 C  
HETATM   16  C   UNL     1      -6.165   6.047  66.785  1.00  0.00    -0.029 C  
HETATM   17  C   UNL     1      -5.483   7.171  67.555  1.00  0.00    -0.024 C  
HETATM   18  C   UNL     1      -6.348   7.669  68.693  1.00  0.00    -0.036 C  
HETATM   19  O   UNL     1      -5.870   8.159  69.711  1.00  0.00    -0.026 OA 
HETATM   20  N   UNL     1      -7.709   7.590  68.519  1.00  0.00    -0.117 N  
HETATM   21  H   UNL     1      -8.285   8.097  69.191  1.00  0.00     0.000 HD 
HETATM   22  C   UNL     1      -8.379   6.898  67.531  1.00  0.00    -0.123 C  
HETATM   23  O   UNL     1      -9.574   6.640  67.643  1.00  0.00    -0.124 OA 
ENDBRANCH  11  15
TORSDOF 1
ENDMDL
MODEL      214
REMARK 921   NORMALIZED FREE ENERGY PREDICTED BY IDOCK:    6.99 KCAL/MOL
REMARK 922        TOTAL FREE ENERGY PREDICTED BY IDOCK:    7.36 KCAL/MOL
REMARK 923 INTER-LIGAND FREE ENERGY PREDICTED BY IDOCK:    4.54 KCAL/MOL
REMARK 924 INTRA-LIGAND FREE ENERGY PREDICTED BY IDOCK:    2.82 KCAL/MOL
REMARK 927      BINDING AFFINITY PREDICTED BY RF-SCORE:    0.00 PKD
ROOT
HETATM    1  N   UNL     1      -5.234  12.391  65.737  1.00  0.00     1.067 NA 
HETATM    2  C   UNL     1      -6.519  12.380  66.280  1.00  0.00     1.622 A  
HETATM    3  H1  UNL     1      -4.626  11.579  65.841  1.00  0.00     0.000 HD 
HETATM    4  H2  UNL     1      -4.742  13.210  66.094  1.00  0.00     0.000 HD 
HETATM    5  C   UNL     1      -7.356  13.497  66.136  1.00  0.00     3.249 A  
HETATM    6  C   UNL     1      -8.712  13.468  66.527  1.00  0.00     0.087 A  
HETATM    7  C   UNL     1      -9.280  12.298  67.028  1.00  0.00    -0.205 A  
HETATM    8  C   UNL     1      -8.459  11.191  67.117  1.00  0.00    -0.137 A  
HETATM    9  C   UNL     1      -7.121  11.226  66.756  1.00  0.00    -0.143 A  
HETATM   10  C   UNL     1      -6.573   9.891  67.014  1.00  0.00    -0.070 C  
HETATM   11  N   UNL     1      -7.605   9.119  67.477  1.00  0.00    -0.088 N  
HETATM   12  O   UNL     1      -5.402   9.584  66.878  1.00  0.00    -0.044 OA 
HETATM   13  C   UNL     1      -8.767   9.836  67.559  1.00  0.00    -0.125 C  
HETATM   14  O   UNL     1      -9.861   9.474  67.941  1.00  0.00    -0.147 OA 
ENDROOT
BRANCH  11  15
HETATM   15  C   UNL     1      -7.534   7.705  67.803  1.00  0.00    -0.108 C  
HETATM   16  C   UNL     1      -8.638   7.205  68.730  1.00  0.00    -0.125 C  
HETATM   17  C   UNL     1      -8.538   5.688  68.825  1.00  0.00    -0.104 C  
HETATM   18  C   UNL     1      -7.160   5.249  69.274  1.00  0.00    -0.057 C  
HETATM   19  O   UNL     1      -6.976   4.205  69.893  1.00  0.00    -0.040 OA 
HETATM   20  N   UNL     1      -6.106   6.055  68.919  1.00  0.00    -0.030 N  
HETATM   21  H   UNL     1      -5.171   5.667  69.049  1.00  0.00     0.000 HD 
HETATM   22  C   UNL     1      -6.176   7.333  68.404  1.00  0.00    -0.035 C  
HETATM   23  O   UNL     1      -5.194   8.070  68.411  1.00  0.00    -0.030 OA 
ENDBRANCH  11  15
TORSDOF 1
ENDMDL
MODEL      215
REMARK 921   NORMALIZED FREE ENERGY PREDICTED BY IDOCK:   10.17 KCAL/MOL
REMARK 922        TOTAL FREE ENERGY PREDICTED BY IDOCK:   10.72 KCAL/MOL
REMARK 923 INTER-LIGAND FREE ENERGY PREDICTED BY IDOCK:    8.13 KCAL/MOL
REMARK 924 INTRA-LIGAND FREE ENERGY PREDICTED BY IDOCK:    2.59 KCAL/MOL
REMARK 927      BINDING AFFINITY PREDICTED BY RF-SCORE:    0.00 PKD
ROOT
HETATM    1  N   UNL     1     -11.290  14.626  62.385  1.00  0.00     4.118 NA 
HETATM    2  C   UNL     1     -11.908  13.850  63.366  1.00  0.00     0.225 A  
HETATM    3  H1  UNL     1     -10.766  15.461  62.647  1.00  0.00     0.000 HD 
HETATM    4  H2  UNL     1     -11.993  14.890  61.695  1.00  0.00     0.000 HD 
HETATM    5  C   UNL     1     -12.628  12.700  63.006  1.00  0.00     0.099 A  
HETATM    6  C   UNL     1     -13.130  11.802  63.972  1.00  0.00     0.089 A  
HETATM    7  C   UNL     1     -12.879  12.007  65.328  1.00  0.00     1.144 A  
HETATM    8  C   UNL     1     -12.126  13.114  65.665  1.00  0.00    -0.501 A  
HETATM    9  C   UNL     1     -11.654  14.009  64.719  1.00  0.00    -0.387 A  
HETATM   10  C   UNL     1     -10.931  15.059  65.444  1.00  0.00    -0.373 C  
HETATM   11  N   UNL     1     -10.975  14.727  66.772  1.00  0.00    -0.321 N  
HETATM   12  O   UNL     1     -10.446  16.050  64.929  1.00  0.00    -0.574 OA 
HETATM   13  C   UNL     1     -11.672  13.568  66.974  1.00  0.00    -0.383 C  
HETATM   14  O   UNL     1     -11.916  12.998  68.018  1.00  0.00    -0.350 OA 
ENDROOT
BRANCH  11  15
HETATM   15  C   UNL     1     -10.333  15.453  67.855  1.00  0.00    -0.247 C  
HETATM   16  C   UNL     1      -8.839  15.184  68.010  1.00  0.00    -0.170 C  
HETATM   17  C   UNL     1      -8.281  16.147  69.050  1.00  0.00    -0.244 C  
HETATM   18  C   UNL     1      -9.028  16.041  70.363  1.00  0.00     1.605 C  
HETATM   19  O   UNL     1      -8.497  16.294  71.439  1.00  0.00     5.278 OA 
HETATM   20  N   UNL     1     -10.354  15.688  70.295  1.00  0.00    -0.306 N  
HETATM   21  H   UNL     1     -10.901  15.805  71.148  1.00  0.00     0.000 HD 
HETATM   22  C   UNL     1     -11.025  15.193  69.196  1.00  0.00    -0.259 C  
HETATM   23  O   UNL     1     -12.107  14.627  69.321  1.00  0.00    -0.310 OA 
ENDBRANCH  11  15
TORSDOF 1
ENDMDL
MODEL      216
REMARK 921   NORMALIZED FREE ENERGY PREDICTED BY IDOCK:   12.30 KCAL/MOL
REMARK 922        TOTAL FREE ENERGY PREDICTED BY IDOCK:   12.98 KCAL/MOL
REMARK 923 INTER-LIGAND FREE ENERGY PREDICTED BY IDOCK:   12.51 KCAL/MOL
REMARK 924 INTRA-LIGAND FREE ENERGY PREDICTED BY IDOCK:    0.48 KCAL/MOL
REMARK 927      BINDING AFFINITY PREDICTED BY RF-SCORE:    0.00 PKD
ROOT
HETATM    1  N   UNL     1      -5.325  18.332  68.355  1.00  0.00    -0.166 NA 
HETATM    2  C   UNL     1      -5.839  17.695  69.484  1.00  0.00    -0.239 A  
HETATM    3  H1  UNL     1      -5.451  17.919  67.431  1.00  0.00     0.000 HD 
HETATM    4  H2  UNL     1      -4.329  18.494  68.503  1.00  0.00     0.000 HD 
HETATM    5  C   UNL     1      -5.666  18.264  70.756  1.00  0.00     0.008 A  
HETATM    6  C   UNL     1      -6.305  17.739  71.899  1.00  0.00     3.178 A  
HETATM    7  C   UNL     1      -7.176  16.656  71.791  1.00  0.00     6.972 A  
HETATM    8  C   UNL     1      -7.375  16.137  70.527  1.00  0.00     1.753 A  
HETATM    9  C   UNL     1      -6.731  16.636  69.407  1.00  0.00    -0.218 A  
HETATM   10  C   UNL     1      -7.163  15.825  68.265  1.00  0.00    -0.116 C  
HETATM   11  N   UNL     1      -8.064  14.912  68.746  1.00  0.00    -0.154 N  
HETATM   12  O   UNL     1      -6.736  15.940  67.131  1.00  0.00    -0.190 OA 
HETATM   13  C   UNL     1      -8.242  15.047  70.094  1.00  0.00     0.580 C  
HETATM   14  O   UNL     1      -8.949  14.398  70.839  1.00  0.00     2.585 OA 
ENDROOT
BRANCH  11  15
HETATM   15  C   UNL     1      -8.800  13.941  67.953  1.00  0.00    -0.184 C  
HETATM   16  C   UNL     1     -10.052  13.384  68.623  1.00  0.00    -0.162 C  
HETATM   17  C   UNL     1     -10.806  12.535  67.607  1.00  0.00    -0.255 C  
HETATM   18  C   UNL     1      -9.925  11.446  67.031  1.00  0.00    -0.201 C  
HETATM   19  O   UNL     1     -10.381  10.382  66.625  1.00  0.00    -0.229 OA 
HETATM   20  N   UNL     1      -8.582  11.720  66.939  1.00  0.00    -0.172 N  
HETATM   21  H   UNL     1      -8.022  11.075  66.380  1.00  0.00     0.000 HD 
HETATM   22  C   UNL     1      -7.908  12.773  67.523  1.00  0.00    -0.171 C  
HETATM   23  O   UNL     1      -6.685  12.754  67.635  1.00  0.00    -0.116 OA 
ENDBRANCH  11  15
TORSDOF 1
ENDMDL
MODEL      217
REMARK 921   NORMALIZED FREE ENERGY PREDICTED BY IDOCK:   24.69 KCAL/MOL
REMARK 922        TOTAL FREE ENERGY PREDICTED BY IDOCK:   26.09 KCAL/MOL
REMARK 923 INTER-LIGAND FREE ENERGY PREDICTED BY IDOCK:   22.17 KCAL/MOL
REMARK 924 INTRA-LIGAND FREE ENERGY PREDICTED BY IDOCK:    3.92 KCAL/MOL
REMARK 927      BINDING AFFINITY PREDICTED BY RF-SCORE:    0.00 PKD
ROOT
HETATM    1  N   UNL     1     -11.065  18.810  71.601  1.00  0.00     2.386 NA 
HETATM    2  C   UNL     1     -11.265  18.312  70.314  1.00  0.00     3.411 A  
HETATM    3  H1  UNL     1     -10.538  18.267  72.285  1.00  0.00     0.000 HD 
HETATM    4  H2  UNL     1     -11.975  19.038  72.002  1.00  0.00     0.000 HD 
HETATM    5  C   UNL     1     -11.989  19.061  69.373  1.00  0.00     7.451 A  
HETATM    6  C   UNL     1     -12.077  18.670  68.019  1.00  0.00     3.526 A  
HETATM    7  C   UNL     1     -11.398  17.543  67.560  1.00  0.00     0.480 A  
HETATM    8  C   UNL     1     -10.648  16.845  68.486  1.00  0.00    -0.367 A  
HETATM    9  C   UNL     1     -10.581  17.213  69.820  1.00  0.00     0.095 A  
HETATM   10  C   UNL     1      -9.725  16.231  70.494  1.00  0.00     1.440 C  
HETATM   11  N   UNL     1      -9.297  15.352  69.534  1.00  0.00    -0.270 N  
HETATM   12  O   UNL     1      -9.507  16.207  71.691  1.00  0.00     4.054 OA 
HETATM   13  C   UNL     1      -9.810  15.665  68.306  1.00  0.00    -0.209 C  
HETATM   14  O   UNL     1      -9.652  15.094  67.246  1.00  0.00    -0.206 OA 
ENDROOT
BRANCH  11  15
HETATM   15  C   UNL     1      -8.376  14.246  69.739  1.00  0.00     0.776 C  
HETATM   16  C   UNL     1      -6.991  14.650  70.234  1.00  0.00     0.107 C  
HETATM   17  C   UNL     1      -6.213  13.386  70.577  1.00  0.00     0.032 C  
HETATM   18  C   UNL     1      -6.154  12.434  69.401  1.00  0.00    -0.108 C  
HETATM   19  O   UNL     1      -5.225  11.650  69.241  1.00  0.00    -0.048 OA 
HETATM   20  N   UNL     1      -7.219  12.454  68.532  1.00  0.00    -0.098 N  
HETATM   21  H   UNL     1      -7.273  11.690  67.859  1.00  0.00     0.000 HD 
HETATM   22  C   UNL     1      -8.223  13.399  68.474  1.00  0.00    -0.093 C  
HETATM   23  O   UNL     1      -8.940  13.495  67.482  1.00  0.00    -0.189 OA 
ENDBRANCH  11  15
TORSDOF 1
ENDMDL
MODEL      218
REMARK 921   NORMALIZED FREE ENERGY PREDICTED BY IDOCK:   32.13 KCAL/MOL
REMARK 922        TOTAL FREE ENERGY PREDICTED BY IDOCK:   33.97 KCAL/MOL
REMARK 923 INTER-LIGAND FREE ENERGY PREDICTED BY IDOCK:   33.11 KCAL/MOL
REMARK 924 INTRA-LIGAND FREE ENERGY PREDICTED BY IDOCK:    0.86 KCAL/MOL
REMARK 927      BINDING AFFINITY PREDICTED BY RF-SCORE:    0.00 PKD
ROOT
HETATM    1  N   UNL     1     -10.279  15.559  69.878  1.00  0.00    -0.306 NA 
HETATM    2  C   UNL     1     -10.137  14.200  70.155  1.00  0.00     1.187 A  
HETATM    3  H1  UNL     1     -10.558  15.866  68.947  1.00  0.00     0.000 HD 
HETATM    4  H2  UNL     1      -9.409  16.030  70.126  1.00  0.00     0.000 HD 
HETATM    5  C   UNL     1      -9.754  13.777  71.438  1.00  0.00     7.450 A  
HETATM    6  C   UNL     1      -9.754  12.414  71.804  1.00  0.00    15.757 A  
HETATM    7  C   UNL     1     -10.188  11.439  70.908  1.00  0.00     4.070 A  
HETATM    8  C   UNL     1     -10.610  11.873  69.667  1.00  0.00     0.349 A  
HETATM    9  C   UNL     1     -10.587  13.208  69.298  1.00  0.00     0.099 A  
HETATM   10  C   UNL     1     -11.074  13.280  67.917  1.00  0.00    -0.262 C  
HETATM   11  N   UNL     1     -11.395  12.003  67.541  1.00  0.00    -0.296 N  
HETATM   12  O   UNL     1     -11.117  14.297  67.248  1.00  0.00    -0.290 OA 
HETATM   13  C   UNL     1     -11.146  11.110  68.546  1.00  0.00    -0.244 C  
HETATM   14  O   UNL     1     -11.299   9.905  68.550  1.00  0.00    -0.133 OA 
ENDROOT
BRANCH  11  15
HETATM   15  C   UNL     1     -11.977  11.608  66.269  1.00  0.00     0.498 C  
HETATM   16  C   UNL     1     -10.974  11.427  65.135  1.00  0.00    -0.259 C  
HETATM   17  C   UNL     1     -11.704  10.838  63.935  1.00  0.00     1.693 C  
HETATM   18  C   UNL     1     -12.887  11.692  63.531  1.00  0.00    -0.063 C  
HETATM   19  O   UNL     1     -13.297  11.736  62.375  1.00  0.00     0.722 OA 
HETATM   20  N   UNL     1     -13.519  12.390  64.531  1.00  0.00    -0.047 N  
HETATM   21  H   UNL     1     -14.421  12.805  64.298  1.00  0.00     0.000 HD 
HETATM   22  C   UNL     1     -13.063  12.589  65.818  1.00  0.00     1.650 C  
HETATM   23  O   UNL     1     -13.542  13.469  66.527  1.00  0.00     1.537 OA 
ENDBRANCH  11  15
TORSDOF 1
ENDMDL
