MODEL        1
REMARK 921   NORMALIZED FREE ENERGY PREDICTED BY IDOCK:   -8.32 KCAL/MOL
REMARK 922        TOTAL FREE ENERGY PREDICTED BY IDOCK:  -12.56 KCAL/MOL
REMARK 923 INTER-LIGAND FREE ENERGY PREDICTED BY IDOCK:  -11.24 KCAL/MOL
REMARK 924 INTRA-LIGAND FREE ENERGY PREDICTED BY IDOCK:   -1.31 KCAL/MOL
REMARK 927      BINDING AFFINITY PREDICTED BY RF-SCORE:    0.00 PKD
ROOT
HETATM    1  C   UNL     1      -5.731   2.050  67.648  1.00  0.00    -0.019 C  
HETATM    2  N   UNL     1      -7.079   2.519  67.330  1.00  0.00    -0.051 NA 
HETATM    3  C   UNL     1      -8.090   1.833  68.162  1.00  0.00    -0.057 C  
HETATM    4  C   UNL     1      -8.178   2.333  69.623  1.00  0.00    -0.044 C  
HETATM    5  N   UNL     1      -8.335   3.794  69.764  1.00  0.00    -0.052 NA 
HETATM    6  C   UNL     1      -7.177   3.982  67.505  1.00  0.00    -0.067 C  
HETATM    7  C   UNL     1      -7.269   4.457  68.979  1.00  0.00    -0.052 C  
ENDROOT
BRANCH   5   8
HETATM    8  C   UNL     1      -9.641   4.289  69.315  1.00  0.00    -0.190 C  
BRANCH   8   9
HETATM    9  C   UNL     1      -9.875   5.761  69.568  1.00  0.00    -0.231 A  
HETATM   10  C   UNL     1      -9.777   6.199  70.899  1.00  0.00    -0.203 A  
HETATM   11  C   UNL     1     -10.086   7.507  71.253  1.00  0.00    -0.197 A  
HETATM   12  C   UNL     1     -10.509   8.419  70.293  1.00  0.00    -0.218 A  
HETATM   13  C   UNL     1     -10.531   8.014  68.952  1.00  0.00    -0.207 A  
HETATM   14  F   UNL     1      -9.440   7.067  66.341  1.00  0.00    -0.193 F  
HETATM   15  C   UNL     1     -10.223   6.685  68.566  1.00  0.00    -0.185 A  
HETATM   16  F   UNL     1     -10.161   5.053  66.735  1.00  0.00    -0.158 F  
HETATM   17  C   UNL     1     -10.328   6.352  67.090  1.00  0.00    -0.232 C  
HETATM   18  F   UNL     1     -11.560   6.688  66.598  1.00  0.00    -0.347 F  
BRANCH  12  19
HETATM   19  N   UNL     1     -10.962   9.720  70.613  1.00  0.00    -0.307 N  
HETATM   20  O   UNL     1     -13.164   9.273  71.253  1.00  0.00    -0.326 OA 
HETATM   21  C   UNL     1     -12.243  10.049  71.031  1.00  0.00    -0.365 C  
HETATM   22  H   UNL     1     -10.289  10.482  70.529  1.00  0.00     0.000 HD 
BRANCH  21  23
HETATM   23  C   UNL     1     -12.536  11.497  71.177  1.00  0.00    -0.463 A  
HETATM   24  C   UNL     1     -11.989  12.370  70.225  1.00  0.00    -0.371 A  
HETATM   25  C   UNL     1     -12.246  13.742  70.285  1.00  0.00    -0.429 A  
HETATM   26  C   UNL     1     -13.362  11.997  72.185  1.00  0.00    -0.396 A  
HETATM   27  C   UNL     1     -13.062  14.254  71.308  1.00  0.00    -0.425 A  
HETATM   28  C   UNL     1     -13.621  13.366  72.248  1.00  0.00    -0.703 A  
HETATM   29  C   UNL     1     -13.391  15.715  71.447  1.00  0.00    -0.512 C  
BRANCH  25  30
HETATM   30  C   UNL     1     -11.635  14.590  69.300  1.00  0.00    -0.339 C  
HETATM   31  C   UNL     1     -11.165  15.325  68.474  1.00  0.00    -0.308 C  
BRANCH  31  32
HETATM   32  C   UNL     1     -10.727  16.223  67.462  1.00  0.00    -0.300 A  
HETATM   33  C   UNL     1     -10.541  15.941  66.128  1.00  0.00    -0.305 A  
HETATM   34  N   UNL     1     -10.116  17.047  65.433  1.00  0.00    -0.579 NA 
HETATM   35  C   UNL     1     -10.045  18.003  66.336  1.00  0.00    -0.384 A  
HETATM   36  C   UNL     1      -9.669  19.358  66.207  1.00  0.00    -0.455 A  
HETATM   37  C   UNL     1      -9.677  20.146  67.289  1.00  0.00    -0.574 A  
HETATM   38  C   UNL     1     -10.087  19.526  68.575  1.00  0.00    -0.445 A  
HETATM   39  N   UNL     1     -10.441  18.295  68.754  1.00  0.00    -0.208 NA 
HETATM   40  N   UNL     1     -10.407  17.554  67.600  1.00  0.00    -0.346 NA 
ENDBRANCH  31  32
ENDBRANCH  25  30
ENDBRANCH  21  23
ENDBRANCH  12  19
ENDBRANCH   8   9
ENDBRANCH   5   8
TORSDOF 6
ENDMDL
MODEL        2
REMARK 921   NORMALIZED FREE ENERGY PREDICTED BY IDOCK:   -8.13 KCAL/MOL
REMARK 922        TOTAL FREE ENERGY PREDICTED BY IDOCK:  -12.29 KCAL/MOL
REMARK 923 INTER-LIGAND FREE ENERGY PREDICTED BY IDOCK:  -11.44 KCAL/MOL
REMARK 924 INTRA-LIGAND FREE ENERGY PREDICTED BY IDOCK:   -0.86 KCAL/MOL
REMARK 927      BINDING AFFINITY PREDICTED BY RF-SCORE:    0.00 PKD
ROOT
HETATM    1  C   UNL     1      -7.089  20.882  67.432  1.00  0.00    -0.361 C  
HETATM    2  N   UNL     1      -8.094  20.155  66.658  1.00  0.00    -0.302 NA 
HETATM    3  C   UNL     1      -7.819  18.703  66.663  1.00  0.00    -0.255 C  
HETATM    4  C   UNL     1      -8.193  17.974  67.976  1.00  0.00    -0.259 C  
HETATM    5  N   UNL     1      -9.572  18.216  68.441  1.00  0.00    -0.322 NA 
HETATM    6  C   UNL     1      -9.449  20.424  67.180  1.00  0.00    -0.429 C  
HETATM    7  C   UNL     1      -9.800  19.678  68.494  1.00  0.00    -0.424 C  
ENDROOT
BRANCH   5   8
HETATM    8  C   UNL     1     -10.595  17.601  67.586  1.00  0.00    -0.362 C  
BRANCH   8   9
HETATM    9  C   UNL     1     -11.019  16.214  68.011  1.00  0.00    -0.338 A  
HETATM   10  C   UNL     1     -11.229  16.009  69.384  1.00  0.00    -0.349 A  
HETATM   11  C   UNL     1     -11.509  14.745  69.891  1.00  0.00    -0.322 A  
HETATM   12  C   UNL     1     -11.581  13.644  69.045  1.00  0.00    -0.312 A  
HETATM   13  C   UNL     1     -11.455  13.852  67.665  1.00  0.00    -0.354 A  
HETATM   14  F   UNL     1     -12.154  14.903  64.961  1.00  0.00    -0.359 F  
HETATM   15  C   UNL     1     -11.166  15.131  67.125  1.00  0.00    -0.320 A  
HETATM   16  F   UNL     1     -10.601  16.418  65.114  1.00  0.00    -0.383 F  
HETATM   17  C   UNL     1     -11.003  15.225  65.620  1.00  0.00    -0.344 C  
HETATM   18  F   UNL     1     -10.073  14.329  65.170  1.00  0.00    -0.351 F  
BRANCH  12  19
HETATM   19  N   UNL     1     -11.730  12.318  69.516  1.00  0.00    -0.321 N  
HETATM   20  O   UNL     1     -12.996  12.679  71.446  1.00  0.00    -0.361 OA 
HETATM   21  C   UNL     1     -12.387  11.944  70.678  1.00  0.00    -0.313 C  
HETATM   22  H   UNL     1     -11.319  11.574  68.952  1.00  0.00     0.000 HD 
BRANCH  21  23
HETATM   23  C   UNL     1     -12.301  10.509  71.051  1.00  0.00    -0.503 A  
HETATM   24  C   UNL     1     -11.383   9.711  70.353  1.00  0.00    -0.337 A  
HETATM   25  C   UNL     1     -11.228   8.359  70.669  1.00  0.00    -0.275 A  
HETATM   26  C   UNL     1     -13.058   9.956  72.085  1.00  0.00    -0.497 A  
HETATM   27  C   UNL     1     -12.001   7.792  71.697  1.00  0.00    -0.330 A  
HETATM   28  C   UNL     1     -12.907   8.606  72.403  1.00  0.00    -0.413 A  
HETATM   29  C   UNL     1     -11.898   6.347  72.103  1.00  0.00    -0.361 C  
BRANCH  25  30
HETATM   30  C   UNL     1     -10.293   7.585  69.901  1.00  0.00    -0.224 C  
HETATM   31  C   UNL     1      -9.549   6.915  69.237  1.00  0.00    -0.149 C  
BRANCH  31  32
HETATM   32  C   UNL     1      -8.761   6.039  68.442  1.00  0.00    -0.113 A  
HETATM   33  C   UNL     1      -7.449   5.680  68.654  1.00  0.00    -0.084 A  
HETATM   34  N   UNL     1      -7.002   4.808  67.691  1.00  0.00    -0.060 NA 
HETATM   35  C   UNL     1      -8.036   4.630  66.895  1.00  0.00    -0.103 A  
HETATM   36  C   UNL     1      -8.172   3.837  65.735  1.00  0.00    -0.105 A  
HETATM   37  C   UNL     1      -9.342   3.819  65.086  1.00  0.00    -0.157 A  
HETATM   38  C   UNL     1     -10.437   4.654  65.643  1.00  0.00    -0.227 A  
HETATM   39  N   UNL     1     -10.373   5.398  66.699  1.00  0.00    -0.248 NA 
HETATM   40  N   UNL     1      -9.143   5.362  67.306  1.00  0.00    -0.111 NA 
ENDBRANCH  31  32
ENDBRANCH  25  30
ENDBRANCH  21  23
ENDBRANCH  12  19
ENDBRANCH   8   9
ENDBRANCH   5   8
TORSDOF 6
ENDMDL
MODEL        3
REMARK 921   NORMALIZED FREE ENERGY PREDICTED BY IDOCK:   -8.03 KCAL/MOL
REMARK 922        TOTAL FREE ENERGY PREDICTED BY IDOCK:  -12.16 KCAL/MOL
REMARK 923 INTER-LIGAND FREE ENERGY PREDICTED BY IDOCK:  -10.84 KCAL/MOL
REMARK 924 INTRA-LIGAND FREE ENERGY PREDICTED BY IDOCK:   -1.32 KCAL/MOL
REMARK 927      BINDING AFFINITY PREDICTED BY RF-SCORE:    0.00 PKD
ROOT
HETATM    1  C   UNL     1      -7.108   2.119  68.533  1.00  0.00    -0.043 C  
HETATM    2  N   UNL     1      -7.041   2.770  69.841  1.00  0.00    -0.034 NA 
HETATM    3  C   UNL     1      -7.572   4.148  69.775  1.00  0.00    -0.053 C  
HETATM    4  C   UNL     1      -9.114   4.251  69.719  1.00  0.00    -0.117 C  
HETATM    5  N   UNL     1      -9.818   3.503  70.779  1.00  0.00    -0.125 NA 
HETATM    6  C   UNL     1      -7.776   1.985  70.853  1.00  0.00    -0.032 C  
HETATM    7  C   UNL     1      -9.320   2.108  70.777  1.00  0.00    -0.131 C  
ENDROOT
BRANCH   5   8
HETATM    8  C   UNL     1      -9.639   4.075  72.118  1.00  0.00    -0.149 C  
BRANCH   8   9
HETATM    9  C   UNL     1     -10.200   5.469  72.285  1.00  0.00    -0.244 A  
HETATM   10  C   UNL     1     -11.571   5.635  72.034  1.00  0.00    -0.148 A  
HETATM   11  C   UNL     1     -12.162   6.894  72.048  1.00  0.00    -0.318 A  
HETATM   12  C   UNL     1     -11.401   8.028  72.307  1.00  0.00    -0.353 A  
HETATM   13  C   UNL     1     -10.050   7.865  72.640  1.00  0.00    -0.343 A  
HETATM   14  F   UNL     1      -7.694   6.963  74.234  1.00  0.00    -0.104 F  
HETATM   15  C   UNL     1      -9.425   6.592  72.629  1.00  0.00    -0.152 A  
HETATM   16  F   UNL     1      -7.318   5.350  72.825  1.00  0.00    -0.085 F  
HETATM   17  C   UNL     1      -7.946   6.546  72.960  1.00  0.00    -0.104 C  
HETATM   18  F   UNL     1      -7.237   7.399  72.159  1.00  0.00    -0.065 F  
BRANCH  12  19
HETATM   19  N   UNL     1     -11.916   9.341  72.204  1.00  0.00    -0.311 N  
HETATM   20  O   UNL     1     -11.673   9.730  69.913  1.00  0.00    -0.154 OA 
HETATM   21  C   UNL     1     -11.983  10.094  71.041  1.00  0.00    -0.378 C  
HETATM   22  H   UNL     1     -12.269   9.772  73.059  1.00  0.00     0.000 HD 
BRANCH  21  23
HETATM   23  C   UNL     1     -12.434  11.501  71.192  1.00  0.00    -0.442 A  
HETATM   24  C   UNL     1     -11.911  12.450  70.302  1.00  0.00    -0.371 A  
HETATM   25  C   UNL     1     -12.311  13.787  70.368  1.00  0.00    -0.423 A  
HETATM   26  C   UNL     1     -13.377  11.887  72.145  1.00  0.00    -0.361 A  
HETATM   27  C   UNL     1     -13.247  14.186  71.337  1.00  0.00    -0.418 A  
HETATM   28  C   UNL     1     -13.779  13.221  72.215  1.00  0.00    -0.686 A  
HETATM   29  C   UNL     1     -13.734  15.602  71.479  1.00  0.00    -0.431 C  
BRANCH  25  30
HETATM   30  C   UNL     1     -11.720  14.718  69.448  1.00  0.00    -0.358 C  
HETATM   31  C   UNL     1     -11.257  15.480  68.644  1.00  0.00    -0.326 C  
BRANCH  31  32
HETATM   32  C   UNL     1     -10.751  16.306  67.603  1.00  0.00    -0.311 A  
HETATM   33  C   UNL     1     -10.563  15.956  66.285  1.00  0.00    -0.298 A  
HETATM   34  N   UNL     1     -10.063  17.004  65.551  1.00  0.00    -0.594 NA 
HETATM   35  C   UNL     1      -9.949  17.993  66.413  1.00  0.00    -0.362 A  
HETATM   36  C   UNL     1      -9.493  19.317  66.234  1.00  0.00    -0.387 A  
HETATM   37  C   UNL     1      -9.470  20.150  67.280  1.00  0.00    -0.532 A  
HETATM   38  C   UNL     1      -9.934  19.612  68.584  1.00  0.00    -0.458 A  
HETATM   39  N   UNL     1     -10.363  18.413  68.809  1.00  0.00    -0.292 NA 
HETATM   40  N   UNL     1     -10.356  17.621  67.689  1.00  0.00    -0.354 NA 
ENDBRANCH  31  32
ENDBRANCH  25  30
ENDBRANCH  21  23
ENDBRANCH  12  19
ENDBRANCH   8   9
ENDBRANCH   5   8
TORSDOF 6
ENDMDL
MODEL        4
REMARK 921   NORMALIZED FREE ENERGY PREDICTED BY IDOCK:   -7.95 KCAL/MOL
REMARK 922        TOTAL FREE ENERGY PREDICTED BY IDOCK:  -12.06 KCAL/MOL
REMARK 923 INTER-LIGAND FREE ENERGY PREDICTED BY IDOCK:  -10.73 KCAL/MOL
REMARK 924 INTRA-LIGAND FREE ENERGY PREDICTED BY IDOCK:   -1.33 KCAL/MOL
REMARK 927      BINDING AFFINITY PREDICTED BY RF-SCORE:    0.00 PKD
ROOT
HETATM    1  C   UNL     1     -10.661   3.203  73.397  1.00  0.00    -0.201 C  
HETATM    2  N   UNL     1     -11.122   4.536  73.783  1.00  0.00    -0.281 NA 
HETATM    3  C   UNL     1     -10.025   5.321  74.388  1.00  0.00    -0.226 C  
HETATM    4  C   UNL     1      -8.995   5.885  73.382  1.00  0.00    -0.129 C  
HETATM    5  N   UNL     1      -9.583   6.644  72.261  1.00  0.00    -0.147 NA 
HETATM    6  C   UNL     1     -11.683   5.251  72.619  1.00  0.00    -0.098 C  
HETATM    7  C   UNL     1     -10.630   5.810  71.627  1.00  0.00    -0.245 C  
ENDROOT
BRANCH   5   8
HETATM    8  C   UNL     1     -10.172   7.926  72.667  1.00  0.00    -0.296 C  
BRANCH   8   9
HETATM    9  C   UNL     1     -10.499   8.858  71.523  1.00  0.00    -0.393 A  
HETATM   10  C   UNL     1      -9.435   9.231  70.686  1.00  0.00    -0.333 A  
HETATM   11  C   UNL     1      -9.606  10.171  69.676  1.00  0.00    -0.237 A  
HETATM   12  C   UNL     1     -10.842  10.774  69.473  1.00  0.00    -0.242 A  
HETATM   13  C   UNL     1     -11.929  10.347  70.248  1.00  0.00    -0.387 A  
HETATM   14  F   UNL     1     -13.979   8.462  71.318  1.00  0.00    -0.371 F  
HETATM   15  C   UNL     1     -11.779   9.393  71.285  1.00  0.00    -0.432 A  
HETATM   16  F   UNL     1     -12.850   8.232  73.163  1.00  0.00    -0.115 F  
HETATM   17  C   UNL     1     -13.017   9.046  72.089  1.00  0.00    -0.424 C  
HETATM   18  F   UNL     1     -13.603  10.172  72.598  1.00  0.00    -0.370 F  
BRANCH  12  19
HETATM   19  N   UNL     1     -11.043  11.829  68.552  1.00  0.00    -0.220 N  
HETATM   20  O   UNL     1     -11.413  10.628  66.583  1.00  0.00    -0.104 OA 
HETATM   21  C   UNL     1     -11.278  11.681  67.193  1.00  0.00    -0.309 C  
HETATM   22  H   UNL     1     -11.013  12.780  68.920  1.00  0.00     0.000 HD 
BRANCH  21  23
HETATM   23  C   UNL     1     -11.320  12.931  66.393  1.00  0.00    -0.361 A  
HETATM   24  C   UNL     1     -10.501  13.993  66.801  1.00  0.00    -0.277 A  
HETATM   25  C   UNL     1     -10.469  15.189  66.079  1.00  0.00    -0.330 A  
HETATM   26  C   UNL     1     -12.102  13.058  65.243  1.00  0.00    -0.484 A  
HETATM   27  C   UNL     1     -11.268  15.329  64.931  1.00  0.00    -0.422 A  
HETATM   28  C   UNL     1     -12.074  14.251  64.520  1.00  0.00    -0.499 A  
HETATM   29  C   UNL     1     -11.295  16.580  64.095  1.00  0.00     0.458 C  
BRANCH  25  30
HETATM   30  C   UNL     1      -9.632  16.251  66.562  1.00  0.00    -0.286 C  
HETATM   31  C   UNL     1      -8.972  17.167  66.973  1.00  0.00    -0.244 C  
BRANCH  31  32
HETATM   32  C   UNL     1      -8.286  18.326  67.426  1.00  0.00    -0.237 A  
HETATM   33  C   UNL     1      -8.315  18.865  68.693  1.00  0.00    -0.349 A  
HETATM   34  N   UNL     1      -7.527  19.986  68.782  1.00  0.00    -0.205 NA 
HETATM   35  C   UNL     1      -7.015  20.133  67.578  1.00  0.00    -0.266 A  
HETATM   36  C   UNL     1      -6.129  21.110  67.072  1.00  0.00    -0.392 A  
HETATM   37  C   UNL     1      -5.745  21.046  65.792  1.00  0.00    -0.279 A  
HETATM   38  C   UNL     1      -6.290  19.931  64.977  1.00  0.00    -0.279 A  
HETATM   39  N   UNL     1      -7.101  19.009  65.383  1.00  0.00    -0.490 NA 
HETATM   40  N   UNL     1      -7.447  19.143  66.704  1.00  0.00    -0.226 NA 
ENDBRANCH  31  32
ENDBRANCH  25  30
ENDBRANCH  21  23
ENDBRANCH  12  19
ENDBRANCH   8   9
ENDBRANCH   5   8
TORSDOF 6
ENDMDL
MODEL        5
REMARK 921   NORMALIZED FREE ENERGY PREDICTED BY IDOCK:   -7.76 KCAL/MOL
REMARK 922        TOTAL FREE ENERGY PREDICTED BY IDOCK:  -11.80 KCAL/MOL
REMARK 923 INTER-LIGAND FREE ENERGY PREDICTED BY IDOCK:  -10.87 KCAL/MOL
REMARK 924 INTRA-LIGAND FREE ENERGY PREDICTED BY IDOCK:   -0.93 KCAL/MOL
REMARK 927      BINDING AFFINITY PREDICTED BY RF-SCORE:    0.00 PKD
ROOT
HETATM    1  C   UNL     1      -9.301   2.172  72.163  1.00  0.00    -0.091 C  
HETATM    2  N   UNL     1      -8.774   3.469  72.587  1.00  0.00    -0.085 NA 
HETATM    3  C   UNL     1      -9.282   4.555  71.723  1.00  0.00    -0.134 C  
HETATM    4  C   UNL     1     -10.745   4.975  71.995  1.00  0.00    -0.135 C  
HETATM    5  N   UNL     1     -11.041   5.290  73.406  1.00  0.00    -0.315 NA 
HETATM    6  C   UNL     1      -9.116   3.733  73.999  1.00  0.00    -0.089 C  
HETATM    7  C   UNL     1     -10.588   4.156  74.245  1.00  0.00    -0.229 C  
ENDROOT
BRANCH   5   8
HETATM    8  C   UNL     1     -10.400   6.523  73.878  1.00  0.00    -0.335 C  
BRANCH   8   9
HETATM    9  C   UNL     1     -10.422   7.662  72.885  1.00  0.00    -0.394 A  
HETATM   10  C   UNL     1     -11.683   8.135  72.490  1.00  0.00    -0.457 A  
HETATM   11  C   UNL     1     -11.815   9.100  71.498  1.00  0.00    -0.428 A  
HETATM   12  C   UNL     1     -10.692   9.619  70.863  1.00  0.00    -0.332 A  
HETATM   13  C   UNL     1      -9.426   9.215  71.308  1.00  0.00    -0.313 A  
HETATM   14  F   UNL     1      -7.148   8.883  73.206  1.00  0.00    -0.062 F  
HETATM   15  C   UNL     1      -9.267   8.230  72.315  1.00  0.00    -0.297 A  
HETATM   16  F   UNL     1      -7.694   6.807  73.548  1.00  0.00    -0.089 F  
HETATM   17  C   UNL     1      -7.848   7.838  72.679  1.00  0.00    -0.110 C  
HETATM   18  F   UNL     1      -7.143   7.460  71.569  1.00  0.00    -0.062 F  
BRANCH  12  19
HETATM   19  N   UNL     1     -10.770  10.501  69.760  1.00  0.00    -0.315 N  
HETATM   20  O   UNL     1     -12.157  12.169  70.629  1.00  0.00    -0.365 OA 
HETATM   21  C   UNL     1     -11.509  11.674  69.714  1.00  0.00    -0.264 C  
HETATM   22  H   UNL     1     -10.235  10.254  68.927  1.00  0.00     0.000 HD 
BRANCH  21  23
HETATM   23  C   UNL     1     -11.555  12.372  68.405  1.00  0.00    -0.373 A  
HETATM   24  C   UNL     1     -11.202  13.729  68.379  1.00  0.00    -0.300 A  
HETATM   25  C   UNL     1     -11.196  14.442  67.177  1.00  0.00    -0.337 A  
HETATM   26  C   UNL     1     -11.889  11.717  67.218  1.00  0.00    -0.186 A  
HETATM   27  C   UNL     1     -11.549  13.793  65.982  1.00  0.00    -0.361 A  
HETATM   28  C   UNL     1     -11.885  12.426  66.016  1.00  0.00    -0.459 A  
HETATM   29  C   UNL     1     -11.569  14.483  64.644  1.00  0.00    -0.413 C  
BRANCH  25  30
HETATM   30  C   UNL     1     -10.853  15.836  67.218  1.00  0.00    -0.298 C  
HETATM   31  C   UNL     1     -10.531  16.993  67.219  1.00  0.00    -0.301 C  
BRANCH  31  32
HETATM   32  C   UNL     1     -10.036  18.325  67.179  1.00  0.00    -0.356 A  
HETATM   33  C   UNL     1     -10.765  19.474  66.969  1.00  0.00    -0.477 A  
HETATM   34  N   UNL     1      -9.966  20.592  67.002  1.00  0.00    -0.429 NA 
HETATM   35  C   UNL     1      -8.755  20.130  67.234  1.00  0.00    -0.348 A  
HETATM   36  C   UNL     1      -7.526  20.813  67.374  1.00  0.00    -0.374 A  
HETATM   37  C   UNL     1      -6.411  20.113  67.611  1.00  0.00    -0.266 A  
HETATM   38  C   UNL     1      -6.546  18.637  67.710  1.00  0.00    -0.212 A  
HETATM   39  N   UNL     1      -7.641  17.958  67.592  1.00  0.00    -0.209 NA 
HETATM   40  N   UNL     1      -8.737  18.746  67.350  1.00  0.00    -0.272 NA 
ENDBRANCH  31  32
ENDBRANCH  25  30
ENDBRANCH  21  23
ENDBRANCH  12  19
ENDBRANCH   8   9
ENDBRANCH   5   8
TORSDOF 6
ENDMDL
MODEL        6
REMARK 921   NORMALIZED FREE ENERGY PREDICTED BY IDOCK:   -7.72 KCAL/MOL
REMARK 922        TOTAL FREE ENERGY PREDICTED BY IDOCK:  -11.74 KCAL/MOL
REMARK 923 INTER-LIGAND FREE ENERGY PREDICTED BY IDOCK:  -11.39 KCAL/MOL
REMARK 924 INTRA-LIGAND FREE ENERGY PREDICTED BY IDOCK:   -0.34 KCAL/MOL
REMARK 927      BINDING AFFINITY PREDICTED BY RF-SCORE:    0.00 PKD
ROOT
HETATM    1  C   UNL     1      -6.441   1.822  74.382  1.00  0.00    -0.016 C  
HETATM    2  N   UNL     1      -7.842   2.238  74.409  1.00  0.00    -0.045 NA 
HETATM    3  C   UNL     1      -7.965   3.701  74.236  1.00  0.00    -0.078 C  
HETATM    4  C   UNL     1      -7.765   4.204  72.787  1.00  0.00    -0.080 C  
HETATM    5  N   UNL     1      -8.596   3.518  71.778  1.00  0.00    -0.086 NA 
HETATM    6  C   UNL     1      -8.617   1.530  73.369  1.00  0.00    -0.060 C  
HETATM    7  C   UNL     1      -8.401   2.057  71.926  1.00  0.00    -0.052 C  
ENDROOT
BRANCH   5   8
HETATM    8  C   UNL     1     -10.026   3.826  71.890  1.00  0.00    -0.160 C  
BRANCH   8   9
HETATM    9  C   UNL     1     -10.359   5.298  71.818  1.00  0.00    -0.277 A  
HETATM   10  C   UNL     1     -10.658   5.941  73.030  1.00  0.00    -0.270 A  
HETATM   11  C   UNL     1     -11.087   7.263  73.060  1.00  0.00    -0.361 A  
HETATM   12  C   UNL     1     -11.239   7.984  71.881  1.00  0.00    -0.280 A  
HETATM   13  C   UNL     1     -10.865   7.379  70.674  1.00  0.00    -0.258 A  
HETATM   14  F   UNL     1      -9.047   6.121  68.669  1.00  0.00    -0.124 F  
HETATM   15  C   UNL     1     -10.427   6.031  70.618  1.00  0.00    -0.305 A  
HETATM   16  F   UNL     1      -9.802   4.146  69.177  1.00  0.00    -0.246 F  
HETATM   17  C   UNL     1     -10.096   5.469  69.249  1.00  0.00    -0.223 C  
HETATM   18  F   UNL     1     -11.142   5.637  68.383  1.00  0.00    -0.291 F  
BRANCH  12  19
HETATM   19  N   UNL     1     -11.796   9.284  71.839  1.00  0.00    -0.370 N  
HETATM   20  O   UNL     1     -11.327   9.891  69.632  1.00  0.00    -0.232 OA 
HETATM   21  C   UNL     1     -11.771  10.138  70.747  1.00  0.00    -0.357 C  
HETATM   22  H   UNL     1     -12.256   9.621  72.685  1.00  0.00     0.000 HD 
BRANCH  21  23
HETATM   23  C   UNL     1     -12.294  11.509  70.972  1.00  0.00    -0.434 A  
HETATM   24  C   UNL     1     -11.901  12.511  70.072  1.00  0.00    -0.363 A  
HETATM   25  C   UNL     1     -12.377  13.818  70.207  1.00  0.00    -0.407 A  
HETATM   26  C   UNL     1     -13.184  11.812  72.004  1.00  0.00    -0.460 A  
HETATM   27  C   UNL     1     -13.259  14.133  71.254  1.00  0.00    -0.399 A  
HETATM   28  C   UNL     1     -13.661  13.116  72.141  1.00  0.00    -0.637 A  
HETATM   29  C   UNL     1     -13.820  15.512  71.472  1.00  0.00    -0.539 C  
BRANCH  25  30
HETATM   30  C   UNL     1     -11.917  14.806  69.272  1.00  0.00    -0.329 C  
HETATM   31  C   UNL     1     -11.504  15.599  68.469  1.00  0.00    -0.380 C  
BRANCH  31  32
HETATM   32  C   UNL     1     -10.918  16.460  67.501  1.00  0.00    -0.184 A  
HETATM   33  C   UNL     1     -10.850  16.254  66.142  1.00  0.00    -0.105 A  
HETATM   34  N   UNL     1     -10.219  17.295  65.505  1.00  0.00    -0.620 NA 
HETATM   35  C   UNL     1      -9.906  18.136  66.469  1.00  0.00    -0.362 A  
HETATM   36  C   UNL     1      -9.247  19.385  66.417  1.00  0.00    -0.403 A  
HETATM   37  C   UNL     1      -9.040  20.064  67.550  1.00  0.00    -0.457 A  
HETATM   38  C   UNL     1      -9.527  19.445  68.809  1.00  0.00    -0.404 A  
HETATM   39  N   UNL     1     -10.136  18.309  68.920  1.00  0.00    -0.386 NA 
HETATM   40  N   UNL     1     -10.309  17.675  67.716  1.00  0.00    -0.349 NA 
ENDBRANCH  31  32
ENDBRANCH  25  30
ENDBRANCH  21  23
ENDBRANCH  12  19
ENDBRANCH   8   9
ENDBRANCH   5   8
TORSDOF 6
ENDMDL
MODEL        7
REMARK 921   NORMALIZED FREE ENERGY PREDICTED BY IDOCK:   -7.67 KCAL/MOL
REMARK 922        TOTAL FREE ENERGY PREDICTED BY IDOCK:  -11.66 KCAL/MOL
REMARK 923 INTER-LIGAND FREE ENERGY PREDICTED BY IDOCK:  -10.73 KCAL/MOL
REMARK 924 INTRA-LIGAND FREE ENERGY PREDICTED BY IDOCK:   -0.94 KCAL/MOL
REMARK 927      BINDING AFFINITY PREDICTED BY RF-SCORE:    0.00 PKD
ROOT
HETATM    1  C   UNL     1      -7.108  20.755  67.180  1.00  0.00    -0.346 C  
HETATM    2  N   UNL     1      -8.272  20.115  66.567  1.00  0.00    -0.297 NA 
HETATM    3  C   UNL     1      -8.097  18.649  66.499  1.00  0.00    -0.284 C  
HETATM    4  C   UNL     1      -8.299  17.905  67.839  1.00  0.00    -0.247 C  
HETATM    5  N   UNL     1      -9.566  18.218  68.531  1.00  0.00    -0.329 NA 
HETATM    6  C   UNL     1      -9.503  20.452  67.311  1.00  0.00    -0.431 C  
HETATM    7  C   UNL     1      -9.684  19.689  68.650  1.00  0.00    -0.400 C  
ENDROOT
BRANCH   5   8
HETATM    8  C   UNL     1     -10.753  17.695  67.843  1.00  0.00    -0.337 C  
BRANCH   8   9
HETATM    9  C   UNL     1     -11.121  16.277  68.217  1.00  0.00    -0.346 A  
HETATM   10  C   UNL     1     -11.409  16.032  69.569  1.00  0.00    -0.344 A  
HETATM   11  C   UNL     1     -11.648  14.745  70.035  1.00  0.00    -0.332 A  
HETATM   12  C   UNL     1     -11.598  13.658  69.169  1.00  0.00    -0.309 A  
HETATM   13  C   UNL     1     -11.392  13.901  67.804  1.00  0.00    -0.335 A  
HETATM   14  F   UNL     1     -11.971  14.963  65.076  1.00  0.00    -0.359 F  
HETATM   15  C   UNL     1     -11.145  15.205  67.306  1.00  0.00    -0.332 A  
HETATM   16  F   UNL     1     -10.524  16.562  65.358  1.00  0.00    -0.355 F  
HETATM   17  C   UNL     1     -10.888  15.338  65.817  1.00  0.00    -0.358 C  
HETATM   18  F   UNL     1      -9.878  14.506  65.417  1.00  0.00    -0.343 F  
BRANCH  12  19
HETATM   19  N   UNL     1     -11.699  12.317  69.608  1.00  0.00    -0.359 N  
HETATM   20  O   UNL     1     -13.093  12.569  71.466  1.00  0.00    -0.381 OA 
HETATM   21  C   UNL     1     -12.400  11.884  70.723  1.00  0.00    -0.320 C  
HETATM   22  H   UNL     1     -11.215  11.609  69.056  1.00  0.00     0.000 HD 
BRANCH  21  23
HETATM   23  C   UNL     1     -12.255  10.449  71.075  1.00  0.00    -0.498 A  
HETATM   24  C   UNL     1     -11.249   9.719  70.426  1.00  0.00    -0.362 A  
HETATM   25  C   UNL     1     -11.037   8.371  70.728  1.00  0.00    -0.286 A  
HETATM   26  C   UNL     1     -13.045   9.832  72.047  1.00  0.00    -0.546 A  
HETATM   27  C   UNL     1     -11.841   7.740  71.692  1.00  0.00    -0.321 A  
HETATM   28  C   UNL     1     -12.837   8.486  72.351  1.00  0.00    -0.373 A  
HETATM   29  C   UNL     1     -11.681   6.294  72.080  1.00  0.00    -0.374 C  
BRANCH  25  30
HETATM   30  C   UNL     1     -10.011   7.668  70.010  1.00  0.00    -0.190 C  
HETATM   31  C   UNL     1      -9.176   7.039  69.418  1.00  0.00    -0.147 C  
BRANCH  31  32
HETATM   32  C   UNL     1      -8.226   6.193  68.784  1.00  0.00    -0.108 A  
HETATM   33  C   UNL     1      -8.048   6.015  67.431  1.00  0.00    -0.106 A  
HETATM   34  N   UNL     1      -7.032   5.128  67.168  1.00  0.00    -0.063 NA 
HETATM   35  C   UNL     1      -6.588   4.766  68.354  1.00  0.00    -0.046 A  
HETATM   36  C   UNL     1      -5.551   3.877  68.711  1.00  0.00    -0.017 A  
HETATM   37  C   UNL     1      -5.283   3.670  70.005  1.00  0.00    -0.008 A  
HETATM   38  C   UNL     1      -6.111   4.404  70.995  1.00  0.00    -0.018 A  
HETATM   39  N   UNL     1      -7.071   5.230  70.729  1.00  0.00    -0.061 NA 
HETATM   40  N   UNL     1      -7.285   5.388  69.383  1.00  0.00    -0.063 NA 
ENDBRANCH  31  32
ENDBRANCH  25  30
ENDBRANCH  21  23
ENDBRANCH  12  19
ENDBRANCH   8   9
ENDBRANCH   5   8
TORSDOF 6
ENDMDL
MODEL        8
REMARK 921   NORMALIZED FREE ENERGY PREDICTED BY IDOCK:   -7.64 KCAL/MOL
REMARK 922        TOTAL FREE ENERGY PREDICTED BY IDOCK:  -11.63 KCAL/MOL
REMARK 923 INTER-LIGAND FREE ENERGY PREDICTED BY IDOCK:  -10.46 KCAL/MOL
REMARK 924 INTRA-LIGAND FREE ENERGY PREDICTED BY IDOCK:   -1.18 KCAL/MOL
REMARK 927      BINDING AFFINITY PREDICTED BY RF-SCORE:    0.00 PKD
ROOT
HETATM    1  C   UNL     1     -10.069   2.535  72.133  1.00  0.00    -0.143 C  
HETATM    2  N   UNL     1      -9.384   3.769  72.516  1.00  0.00    -0.116 NA 
HETATM    3  C   UNL     1      -9.314   4.712  71.380  1.00  0.00    -0.149 C  
HETATM    4  C   UNL     1     -10.635   5.453  71.067  1.00  0.00    -0.205 C  
HETATM    5  N   UNL     1     -11.253   6.125  72.228  1.00  0.00    -0.274 NA 
HETATM    6  C   UNL     1     -10.056   4.401  73.669  1.00  0.00    -0.157 C  
HETATM    7  C   UNL     1     -11.376   5.141  73.328  1.00  0.00    -0.290 C  
ENDROOT
BRANCH   5   8
HETATM    8  C   UNL     1     -10.493   7.286  72.705  1.00  0.00    -0.246 C  
BRANCH   8   9
HETATM    9  C   UNL     1     -10.581   8.504  71.814  1.00  0.00    -0.371 A  
HETATM   10  C   UNL     1     -11.822   9.156  71.751  1.00  0.00    -0.453 A  
HETATM   11  C   UNL     1     -12.040  10.214  70.876  1.00  0.00    -0.453 A  
HETATM   12  C   UNL     1     -11.028  10.651  70.030  1.00  0.00    -0.259 A  
HETATM   13  C   UNL     1      -9.761  10.062  70.143  1.00  0.00    -0.177 A  
HETATM   14  F   UNL     1      -7.183   9.296  71.436  1.00  0.00    -0.105 F  
HETATM   15  C   UNL     1      -9.516   8.980  71.025  1.00  0.00    -0.342 A  
HETATM   16  F   UNL     1      -7.915   7.277  71.772  1.00  0.00    -0.092 F  
HETATM   17  C   UNL     1      -8.118   8.392  71.026  1.00  0.00    -0.119 C  
HETATM   18  F   UNL     1      -7.736   8.034  69.761  1.00  0.00    -0.090 F  
BRANCH  12  19
HETATM   19  N   UNL     1     -11.229  11.631  69.030  1.00  0.00    -0.242 N  
HETATM   20  O   UNL     1     -11.363  10.288  67.122  1.00  0.00    -0.230 OA 
HETATM   21  C   UNL     1     -11.347  11.384  67.670  1.00  0.00    -0.290 C  
HETATM   22  H   UNL     1     -11.293  12.602  69.335  1.00  0.00     0.000 HD 
BRANCH  21  23
HETATM   23  C   UNL     1     -11.414  12.576  66.788  1.00  0.00    -0.422 A  
HETATM   24  C   UNL     1     -10.610  13.676  67.120  1.00  0.00    -0.272 A  
HETATM   25  C   UNL     1     -10.601  14.822  66.319  1.00  0.00    -0.306 A  
HETATM   26  C   UNL     1     -12.202  12.613  65.636  1.00  0.00    -0.474 A  
HETATM   27  C   UNL     1     -11.406  14.872  65.169  1.00  0.00    -0.379 A  
HETATM   28  C   UNL     1     -12.196  13.755  64.835  1.00  0.00    -0.443 A  
HETATM   29  C   UNL     1     -11.458  16.063  64.251  1.00  0.00    -0.162 C  
BRANCH  25  30
HETATM   30  C   UNL     1      -9.779  15.927  66.726  1.00  0.00    -0.252 C  
HETATM   31  C   UNL     1      -9.123  16.860  67.103  1.00  0.00    -0.228 C  
BRANCH  31  32
HETATM   32  C   UNL     1      -8.450  18.007  67.606  1.00  0.00    -0.239 A  
HETATM   33  C   UNL     1      -8.423  18.446  68.910  1.00  0.00    -0.147 A  
HETATM   34  N   UNL     1      -7.669  19.587  69.042  1.00  0.00    -0.349 NA 
HETATM   35  C   UNL     1      -7.233  19.843  67.826  1.00  0.00    -0.278 A  
HETATM   36  C   UNL     1      -6.412  20.888  67.349  1.00  0.00    -0.396 A  
HETATM   37  C   UNL     1      -6.101  20.936  66.049  1.00  0.00    -0.294 A  
HETATM   38  C   UNL     1      -6.655  19.866  65.181  1.00  0.00    -0.290 A  
HETATM   39  N   UNL     1      -7.410  18.886  65.559  1.00  0.00    -0.491 NA 
HETATM   40  N   UNL     1      -7.683  18.907  66.903  1.00  0.00    -0.234 NA 
ENDBRANCH  31  32
ENDBRANCH  25  30
ENDBRANCH  21  23
ENDBRANCH  12  19
ENDBRANCH   8   9
ENDBRANCH   5   8
TORSDOF 6
ENDMDL
MODEL        9
REMARK 921   NORMALIZED FREE ENERGY PREDICTED BY IDOCK:   -7.54 KCAL/MOL
REMARK 922        TOTAL FREE ENERGY PREDICTED BY IDOCK:  -11.49 KCAL/MOL
REMARK 923 INTER-LIGAND FREE ENERGY PREDICTED BY IDOCK:  -10.48 KCAL/MOL
REMARK 924 INTRA-LIGAND FREE ENERGY PREDICTED BY IDOCK:   -1.01 KCAL/MOL
REMARK 927      BINDING AFFINITY PREDICTED BY RF-SCORE:    0.00 PKD
ROOT
HETATM    1  C   UNL     1      -8.852  19.815  67.631  1.00  0.00    -0.329 C  
HETATM    2  N   UNL     1     -10.184  19.269  67.891  1.00  0.00    -0.388 NA 
HETATM    3  C   UNL     1     -10.778  18.712  66.658  1.00  0.00    -0.259 C  
HETATM    4  C   UNL     1     -10.215  17.337  66.227  1.00  0.00    -0.342 C  
HETATM    5  N   UNL     1     -10.226  16.309  67.286  1.00  0.00    -0.274 NA 
HETATM    6  C   UNL     1     -10.127  18.237  68.946  1.00  0.00    -0.335 C  
HETATM    7  C   UNL     1      -9.562  16.867  68.487  1.00  0.00    -0.262 C  
ENDROOT
BRANCH   5   8
HETATM    8  C   UNL     1     -11.574  15.856  67.649  1.00  0.00     0.026 C  
BRANCH   8   9
HETATM    9  C   UNL     1     -11.642  14.437  68.164  1.00  0.00    -0.360 A  
HETATM   10  C   UNL     1     -11.636  14.266  69.557  1.00  0.00    -0.353 A  
HETATM   11  C   UNL     1     -11.581  13.000  70.130  1.00  0.00    -0.139 A  
HETATM   12  C   UNL     1     -11.522  11.864  69.331  1.00  0.00    -0.302 A  
HETATM   13  C   UNL     1     -11.610  12.020  67.941  1.00  0.00    -0.405 A  
HETATM   14  F   UNL     1     -12.836  12.759  65.323  1.00  0.00    -0.547 F  
HETATM   15  C   UNL     1     -11.664  13.300  67.334  1.00  0.00    -0.419 A  
HETATM   16  F   UNL     1     -11.630  14.566  65.232  1.00  0.00    -0.326 F  
HETATM   17  C   UNL     1     -11.708  13.344  65.818  1.00  0.00    -0.349 C  
HETATM   18  F   UNL     1     -10.671  12.635  65.276  1.00  0.00    -0.285 F  
BRANCH  12  19
HETATM   19  N   UNL     1     -11.331  10.564  69.853  1.00  0.00    -0.286 N  
HETATM   20  O   UNL     1     -13.297  10.293  71.086  1.00  0.00    -0.361 OA 
HETATM   21  C   UNL     1     -12.202   9.899  70.703  1.00  0.00    -0.238 C  
HETATM   22  H   UNL     1     -10.479  10.073  69.581  1.00  0.00     0.000 HD 
BRANCH  21  23
HETATM   23  C   UNL     1     -11.733   8.596  71.239  1.00  0.00    -0.341 A  
HETATM   24  C   UNL     1     -11.183   7.680  70.331  1.00  0.00    -0.258 A  
HETATM   25  C   UNL     1     -10.697   6.446  70.769  1.00  0.00    -0.302 A  
HETATM   26  C   UNL     1     -11.782   8.284  72.599  1.00  0.00    -0.406 A  
HETATM   27  C   UNL     1     -10.759   6.118  72.134  1.00  0.00    -0.277 A  
HETATM   28  C   UNL     1     -11.298   7.052  73.040  1.00  0.00    -0.173 A  
HETATM   29  C   UNL     1     -10.258   4.814  72.693  1.00  0.00    -0.242 C  
BRANCH  25  30
HETATM   30  C   UNL     1     -10.171   5.537  69.789  1.00  0.00    -0.336 C  
HETATM   31  C   UNL     1      -9.764   4.744  68.984  1.00  0.00    -0.248 C  
BRANCH  31  32
HETATM   32  C   UNL     1      -9.330   3.715  68.104  1.00  0.00    -0.180 A  
HETATM   33  C   UNL     1      -8.597   2.597  68.433  1.00  0.00    -0.080 A  
HETATM   34  N   UNL     1      -8.360   1.808  67.333  1.00  0.00    -0.072 NA 
HETATM   35  C   UNL     1      -8.947   2.437  66.337  1.00  0.00    -0.115 A  
HETATM   36  C   UNL     1      -9.040   2.100  64.968  1.00  0.00    -0.127 A  
HETATM   37  C   UNL     1      -9.702   2.912  64.137  1.00  0.00    -0.153 A  
HETATM   38  C   UNL     1     -10.303   4.137  64.722  1.00  0.00    -0.188 A  
HETATM   39  N   UNL     1     -10.253   4.498  65.964  1.00  0.00    -0.264 NA 
HETATM   40  N   UNL     1      -9.558   3.615  66.751  1.00  0.00    -0.189 NA 
ENDBRANCH  31  32
ENDBRANCH  25  30
ENDBRANCH  21  23
ENDBRANCH  12  19
ENDBRANCH   8   9
ENDBRANCH   5   8
TORSDOF 6
ENDMDL
MODEL       10
REMARK 921   NORMALIZED FREE ENERGY PREDICTED BY IDOCK:   -7.53 KCAL/MOL
REMARK 922        TOTAL FREE ENERGY PREDICTED BY IDOCK:  -11.49 KCAL/MOL
REMARK 923 INTER-LIGAND FREE ENERGY PREDICTED BY IDOCK:  -10.27 KCAL/MOL
REMARK 924 INTRA-LIGAND FREE ENERGY PREDICTED BY IDOCK:   -1.22 KCAL/MOL
REMARK 927      BINDING AFFINITY PREDICTED BY RF-SCORE:    0.00 PKD
ROOT
HETATM    1  C   UNL     1      -8.524   2.458  64.933  1.00  0.00    -0.092 C  
HETATM    2  N   UNL     1      -7.827   3.144  66.021  1.00  0.00    -0.084 NA 
HETATM    3  C   UNL     1      -8.520   4.397  66.388  1.00  0.00    -0.112 C  
HETATM    4  C   UNL     1      -9.804   4.209  67.229  1.00  0.00    -0.123 C  
HETATM    5  N   UNL     1      -9.634   3.370  68.431  1.00  0.00    -0.136 NA 
HETATM    6  C   UNL     1      -7.702   2.262  67.198  1.00  0.00    -0.065 C  
HETATM    7  C   UNL     1      -9.003   2.093  68.026  1.00  0.00    -0.148 C  
ENDROOT
BRANCH   5   8
HETATM    8  C   UNL     1      -8.815   4.001  69.474  1.00  0.00    -0.091 C  
BRANCH   8   9
HETATM    9  C   UNL     1      -9.315   5.351  69.934  1.00  0.00    -0.184 A  
HETATM   10  C   UNL     1     -10.637   5.411  70.405  1.00  0.00    -0.322 A  
HETATM   11  C   UNL     1     -11.229   6.623  70.744  1.00  0.00    -0.366 A  
HETATM   12  C   UNL     1     -10.524   7.814  70.616  1.00  0.00    -0.213 A  
HETATM   13  C   UNL     1      -9.180   7.757  70.226  1.00  0.00    -0.156 A  
HETATM   14  F   UNL     1      -6.285   7.055  70.407  1.00  0.00    -0.026 F  
HETATM   15  C   UNL     1      -8.555   6.534  69.873  1.00  0.00    -0.139 A  
HETATM   16  F   UNL     1      -6.550   5.455  68.959  1.00  0.00    -0.042 F  
HETATM   17  C   UNL     1      -7.109   6.602  69.419  1.00  0.00    -0.080 C  
HETATM   18  F   UNL     1      -6.959   7.495  68.393  1.00  0.00    -0.067 F  
BRANCH  12  19
HETATM   19  N   UNL     1     -11.114   9.084  70.817  1.00  0.00    -0.257 N  
HETATM   20  O   UNL     1     -11.325   9.825  68.612  1.00  0.00    -0.079 OA 
HETATM   21  C   UNL     1     -11.435   9.992  69.820  1.00  0.00    -0.184 C  
HETATM   22  H   UNL     1     -11.321   9.354  71.779  1.00  0.00     0.000 HD 
BRANCH  21  23
HETATM   23  C   UNL     1     -11.918  11.322  70.271  1.00  0.00    -0.466 A  
HETATM   24  C   UNL     1     -11.589  12.435  69.484  1.00  0.00    -0.353 A  
HETATM   25  C   UNL     1     -12.033  13.713  69.833  1.00  0.00    -0.415 A  
HETATM   26  C   UNL     1     -12.713  11.485  71.407  1.00  0.00    -0.469 A  
HETATM   27  C   UNL     1     -12.818  13.886  70.986  1.00  0.00    -0.394 A  
HETATM   28  C   UNL     1     -13.158  12.759  71.759  1.00  0.00    -0.455 A  
HETATM   29  C   UNL     1     -13.339  15.224  71.435  1.00  0.00    -0.573 C  
BRANCH  25  30
HETATM   30  C   UNL     1     -11.640  14.818  69.004  1.00  0.00    -0.324 C  
HETATM   31  C   UNL     1     -11.306  15.710  68.273  1.00  0.00    -0.357 C  
BRANCH  31  32
HETATM   32  C   UNL     1     -10.857  16.680  67.335  1.00  0.00    -0.186 A  
HETATM   33  C   UNL     1     -10.762  16.531  65.970  1.00  0.00    -0.177 A  
HETATM   34  N   UNL     1     -10.294  17.674  65.369  1.00  0.00    -0.570 NA 
HETATM   35  C   UNL     1     -10.107  18.521  66.360  1.00  0.00    -0.405 A  
HETATM   36  C   UNL     1      -9.642  19.854  66.350  1.00  0.00    -0.537 A  
HETATM   37  C   UNL     1      -9.536  20.520  67.505  1.00  0.00    -0.545 A  
HETATM   38  C   UNL     1      -9.922  19.795  68.742  1.00  0.00    -0.412 A  
HETATM   39  N   UNL     1     -10.355  18.578  68.814  1.00  0.00    -0.273 NA 
HETATM   40  N   UNL     1     -10.435  17.964  67.590  1.00  0.00    -0.386 NA 
ENDBRANCH  31  32
ENDBRANCH  25  30
ENDBRANCH  21  23
ENDBRANCH  12  19
ENDBRANCH   8   9
ENDBRANCH   5   8
TORSDOF 6
ENDMDL
MODEL       11
REMARK 921   NORMALIZED FREE ENERGY PREDICTED BY IDOCK:   -7.39 KCAL/MOL
REMARK 922        TOTAL FREE ENERGY PREDICTED BY IDOCK:  -11.30 KCAL/MOL
REMARK 923 INTER-LIGAND FREE ENERGY PREDICTED BY IDOCK:  -10.19 KCAL/MOL
REMARK 924 INTRA-LIGAND FREE ENERGY PREDICTED BY IDOCK:   -1.11 KCAL/MOL
REMARK 927      BINDING AFFINITY PREDICTED BY RF-SCORE:    0.00 PKD
ROOT
HETATM    1  C   UNL     1      -7.424  20.813  67.258  1.00  0.00    -0.328 C  
HETATM    2  N   UNL     1      -8.411  19.985  67.949  1.00  0.00    -0.288 NA 
HETATM    3  C   UNL     1      -9.772  20.239  67.432  1.00  0.00    -0.444 C  
HETATM    4  C   UNL     1     -10.079  19.595  66.060  1.00  0.00    -0.461 C  
HETATM    5  N   UNL     1      -9.785  18.151  65.980  1.00  0.00    -0.527 NA 
HETATM    6  C   UNL     1      -8.072  18.553  67.820  1.00  0.00    -0.251 C  
HETATM    7  C   UNL     1      -8.393  17.930  66.436  1.00  0.00    -0.242 C  
ENDROOT
BRANCH   5   8
HETATM    8  C   UNL     1     -10.691  17.323  66.785  1.00  0.00    -0.095 C  
BRANCH   8   9
HETATM    9  C   UNL     1     -10.315  15.860  66.848  1.00  0.00    -0.291 A  
HETATM   10  C   UNL     1     -10.263  15.166  65.629  1.00  0.00    -0.387 A  
HETATM   11  C   UNL     1     -10.039  13.795  65.587  1.00  0.00    -0.315 A  
HETATM   12  C   UNL     1      -9.869  13.070  66.761  1.00  0.00    -0.243 A  
HETATM   13  C   UNL     1      -9.838  13.766  67.977  1.00  0.00    -0.239 A  
HETATM   14  F   UNL     1      -8.837  15.691  70.026  1.00  0.00    -0.192 F  
HETATM   15  C   UNL     1     -10.066  15.163  68.045  1.00  0.00    -0.222 A  
HETATM   16  F   UNL     1     -10.400  17.109  69.502  1.00  0.00    -0.289 F  
HETATM   17  C   UNL     1     -10.056  15.799  69.422  1.00  0.00    -0.268 C  
HETATM   18  F   UNL     1     -10.927  15.162  70.263  1.00  0.00    -0.249 F  
BRANCH  12  19
HETATM   19  N   UNL     1      -9.771  11.659  66.789  1.00  0.00    -0.198 N  
HETATM   20  O   UNL     1     -11.836  11.095  67.725  1.00  0.00    -0.608 OA 
HETATM   21  C   UNL     1     -10.732  10.793  67.290  1.00  0.00    -0.274 C  
HETATM   22  H   UNL     1      -8.921  11.243  66.407  1.00  0.00     0.000 HD 
BRANCH  21  23
HETATM   23  C   UNL     1     -10.359   9.357  67.345  1.00  0.00    -0.325 A  
HETATM   24  C   UNL     1     -10.529   8.687  68.565  1.00  0.00    -0.209 A  
HETATM   25  C   UNL     1     -10.225   7.329  68.683  1.00  0.00    -0.191 A  
HETATM   26  C   UNL     1      -9.897   8.659  66.228  1.00  0.00    -0.320 A  
HETATM   27  C   UNL     1      -9.743   6.625  67.567  1.00  0.00    -0.149 A  
HETATM   28  C   UNL     1      -9.592   7.303  66.342  1.00  0.00    -0.169 A  
HETATM   29  C   UNL     1      -9.391   5.162  67.603  1.00  0.00    -0.134 C  
BRANCH  25  30
HETATM   30  C   UNL     1     -10.393   6.705  69.965  1.00  0.00    -0.232 C  
HETATM   31  C   UNL     1     -10.486   6.174  71.039  1.00  0.00    -0.281 C  
BRANCH  31  32
HETATM   32  C   UNL     1     -10.488   5.486  72.283  1.00  0.00    -0.217 A  
HETATM   33  C   UNL     1     -10.708   6.027  73.529  1.00  0.00    -0.250 A  
HETATM   34  N   UNL     1     -10.644   5.071  74.514  1.00  0.00    -0.360 NA 
HETATM   35  C   UNL     1     -10.389   3.948  73.873  1.00  0.00    -0.176 A  
HETATM   36  C   UNL     1     -10.217   2.634  74.362  1.00  0.00    -0.189 A  
HETATM   37  C   UNL     1      -9.963   1.643  73.500  1.00  0.00    -0.128 A  
HETATM   38  C   UNL     1      -9.875   2.002  72.062  1.00  0.00    -0.146 A  
HETATM   39  N   UNL     1     -10.024   3.183  71.556  1.00  0.00    -0.128 NA 
HETATM   40  N   UNL     1     -10.282   4.143  72.502  1.00  0.00    -0.172 NA 
ENDBRANCH  31  32
ENDBRANCH  25  30
ENDBRANCH  21  23
ENDBRANCH  12  19
ENDBRANCH   8   9
ENDBRANCH   5   8
TORSDOF 6
ENDMDL
MODEL       12
REMARK 921   NORMALIZED FREE ENERGY PREDICTED BY IDOCK:   -7.19 KCAL/MOL
REMARK 922        TOTAL FREE ENERGY PREDICTED BY IDOCK:  -11.02 KCAL/MOL
REMARK 923 INTER-LIGAND FREE ENERGY PREDICTED BY IDOCK:   -9.78 KCAL/MOL
REMARK 924 INTRA-LIGAND FREE ENERGY PREDICTED BY IDOCK:   -1.24 KCAL/MOL
REMARK 927      BINDING AFFINITY PREDICTED BY RF-SCORE:    0.00 PKD
ROOT
HETATM    1  C   UNL     1      -9.029   2.733  74.300  1.00  0.00    -0.078 C  
HETATM    2  N   UNL     1     -10.095   3.046  73.350  1.00  0.00    -0.111 NA 
HETATM    3  C   UNL     1     -11.009   4.072  73.896  1.00  0.00    -0.211 C  
HETATM    4  C   UNL     1     -10.456   5.516  73.869  1.00  0.00    -0.279 C  
HETATM    5  N   UNL     1      -9.953   5.957  72.553  1.00  0.00    -0.176 NA 
HETATM    6  C   UNL     1      -9.530   3.495  72.061  1.00  0.00    -0.132 C  
HETATM    7  C   UNL     1      -8.987   4.948  72.059  1.00  0.00    -0.131 C  
ENDROOT
BRANCH   5   8
HETATM    8  C   UNL     1     -11.010   6.139  71.552  1.00  0.00    -0.273 C  
BRANCH   8   9
HETATM    9  C   UNL     1     -10.829   7.346  70.660  1.00  0.00    -0.258 A  
HETATM   10  C   UNL     1     -10.998   8.606  71.255  1.00  0.00    -0.333 A  
HETATM   11  C   UNL     1     -10.965   9.772  70.500  1.00  0.00    -0.384 A  
HETATM   12  C   UNL     1     -10.770   9.719  69.124  1.00  0.00    -0.221 A  
HETATM   13  C   UNL     1     -10.518   8.473  68.533  1.00  0.00    -0.205 A  
HETATM   14  F   UNL     1      -9.060   5.929  67.981  1.00  0.00    -0.119 F  
HETATM   15  C   UNL     1     -10.549   7.270  69.282  1.00  0.00    -0.230 A  
HETATM   16  F   UNL     1     -10.467   4.819  69.213  1.00  0.00    -0.267 F  
HETATM   17  C   UNL     1     -10.310   5.978  68.525  1.00  0.00    -0.207 C  
HETATM   18  F   UNL     1     -11.165   5.866  67.463  1.00  0.00    -0.352 F  
BRANCH  12  19
HETATM   19  N   UNL     1     -10.859  10.856  68.288  1.00  0.00    -0.207 N  
HETATM   20  O   UNL     1      -8.708  11.738  68.517  1.00  0.00    -0.163 OA 
HETATM   21  C   UNL     1      -9.850  11.783  68.076  1.00  0.00    -0.183 C  
HETATM   22  H   UNL     1     -11.742  11.007  67.800  1.00  0.00     0.000 HD 
BRANCH  21  23
HETATM   23  C   UNL     1     -10.210  12.975  67.268  1.00  0.00    -0.239 A  
HETATM   24  C   UNL     1      -9.257  13.999  67.158  1.00  0.00    -0.240 A  
HETATM   25  C   UNL     1      -9.518  15.137  66.391  1.00  0.00    -0.325 A  
HETATM   26  C   UNL     1     -11.426  13.082  66.591  1.00  0.00    -0.382 A  
HETATM   27  C   UNL     1     -10.748  15.259  65.722  1.00  0.00    -0.357 A  
HETATM   28  C   UNL     1     -11.690  14.218  65.825  1.00  0.00    -0.359 A  
HETATM   29  C   UNL     1     -11.111  16.448  64.875  1.00  0.00    -0.249 C  
BRANCH  25  30
HETATM   30  C   UNL     1      -8.515  16.164  66.340  1.00  0.00    -0.369 C  
HETATM   31  C   UNL     1      -7.698  17.045  66.336  1.00  0.00    -0.350 C  
BRANCH  31  32
HETATM   32  C   UNL     1      -6.814  18.157  66.393  1.00  0.00    -0.229 A  
HETATM   33  C   UNL     1      -6.053  18.664  65.364  1.00  0.00    -0.265 A  
HETATM   34  N   UNL     1      -5.317  19.751  65.770  1.00  0.00    -0.155 NA 
HETATM   35  C   UNL     1      -5.628  19.911  67.039  1.00  0.00    -0.172 A  
HETATM   36  C   UNL     1      -5.185  20.870  67.977  1.00  0.00    -0.306 A  
HETATM   37  C   UNL     1      -5.654  20.827  69.229  1.00  0.00    -0.409 A  
HETATM   38  C   UNL     1      -6.626  19.752  69.552  1.00  0.00    -0.353 A  
HETATM   39  N   UNL     1      -7.069  18.850  68.738  1.00  0.00    -0.301 NA 
HETATM   40  N   UNL     1      -6.542  18.960  67.476  1.00  0.00    -0.198 NA 
ENDBRANCH  31  32
ENDBRANCH  25  30
ENDBRANCH  21  23
ENDBRANCH  12  19
ENDBRANCH   8   9
ENDBRANCH   5   8
TORSDOF 6
ENDMDL
MODEL       13
REMARK 921   NORMALIZED FREE ENERGY PREDICTED BY IDOCK:   -7.18 KCAL/MOL
REMARK 922        TOTAL FREE ENERGY PREDICTED BY IDOCK:  -11.01 KCAL/MOL
REMARK 923 INTER-LIGAND FREE ENERGY PREDICTED BY IDOCK:  -10.27 KCAL/MOL
REMARK 924 INTRA-LIGAND FREE ENERGY PREDICTED BY IDOCK:   -0.73 KCAL/MOL
REMARK 927      BINDING AFFINITY PREDICTED BY RF-SCORE:    0.00 PKD
ROOT
HETATM    1  C   UNL     1      -7.463  20.350  67.285  1.00  0.00    -0.321 C  
HETATM    2  N   UNL     1      -8.564  19.670  66.604  1.00  0.00    -0.326 NA 
HETATM    3  C   UNL     1      -8.313  18.217  66.511  1.00  0.00    -0.265 C  
HETATM    4  C   UNL     1      -8.539  17.431  67.823  1.00  0.00    -0.227 C  
HETATM    5  N   UNL     1      -9.851  17.663  68.460  1.00  0.00    -0.327 NA 
HETATM    6  C   UNL     1      -9.844  19.927  67.295  1.00  0.00    -0.403 C  
HETATM    7  C   UNL     1     -10.048  19.124  68.607  1.00  0.00    -0.398 C  
ENDROOT
BRANCH   5   8
HETATM    8  C   UNL     1     -10.977  17.100  67.706  1.00  0.00    -0.180 C  
BRANCH   8   9
HETATM    9  C   UNL     1     -11.387  15.710  68.135  1.00  0.00    -0.340 A  
HETATM   10  C   UNL     1     -11.618  15.512  69.505  1.00  0.00    -0.361 A  
HETATM   11  C   UNL     1     -11.888  14.248  70.017  1.00  0.00    -0.378 A  
HETATM   12  C   UNL     1     -11.929  13.140  69.179  1.00  0.00    -0.281 A  
HETATM   13  C   UNL     1     -11.782  13.339  67.799  1.00  0.00    -0.398 A  
HETATM   14  F   UNL     1     -12.450  14.359  65.076  1.00  0.00    -0.406 F  
HETATM   15  C   UNL     1     -11.503  14.618  67.254  1.00  0.00    -0.386 A  
HETATM   16  F   UNL     1     -10.923  15.898  65.243  1.00  0.00    -0.339 F  
HETATM   17  C   UNL     1     -11.316  14.703  65.752  1.00  0.00    -0.340 C  
HETATM   18  F   UNL     1     -10.365  13.817  65.325  1.00  0.00    -0.301 F  
BRANCH  12  19
HETATM   19  N   UNL     1     -12.067  11.816  69.657  1.00  0.00    -0.283 N  
HETATM   20  O   UNL     1     -12.917  12.210  71.798  1.00  0.00    -0.397 OA 
HETATM   21  C   UNL     1     -12.513  11.456  70.921  1.00  0.00    -0.379 C  
HETATM   22  H   UNL     1     -11.818  11.061  69.018  1.00  0.00     0.000 HD 
BRANCH  21  23
HETATM   23  C   UNL     1     -12.445  10.012  71.256  1.00  0.00    -0.494 A  
HETATM   24  C   UNL     1     -11.185   9.471  71.552  1.00  0.00    -0.437 A  
HETATM   25  C   UNL     1     -11.050   8.125  71.903  1.00  0.00    -0.346 A  
HETATM   26  C   UNL     1     -13.582   9.205  71.330  1.00  0.00    -0.348 A  
HETATM   27  C   UNL     1     -12.189   7.304  71.961  1.00  0.00    -0.312 A  
HETATM   28  C   UNL     1     -13.451   7.861  71.680  1.00  0.00    -0.386 A  
HETATM   29  C   UNL     1     -12.136   5.847  72.331  1.00  0.00    -0.135 C  
BRANCH  25  30
HETATM   30  C   UNL     1      -9.731   7.622  72.166  1.00  0.00    -0.220 C  
HETATM   31  C   UNL     1      -8.646   7.156  72.386  1.00  0.00    -0.133 C  
BRANCH  31  32
HETATM   32  C   UNL     1      -7.421   6.502  72.692  1.00  0.00    -0.094 A  
HETATM   33  C   UNL     1      -6.301   7.065  73.262  1.00  0.00    -0.061 A  
HETATM   34  N   UNL     1      -5.298   6.141  73.422  1.00  0.00    -0.035 NA 
HETATM   35  C   UNL     1      -5.801   5.016  72.956  1.00  0.00    -0.022 A  
HETATM   36  C   UNL     1      -5.232   3.727  72.864  1.00  0.00     0.000 A  
HETATM   37  C   UNL     1      -5.954   2.728  72.344  1.00  0.00    -0.009 A  
HETATM   38  C   UNL     1      -7.330   3.052  71.889  1.00  0.00    -0.044 A  
HETATM   39  N   UNL     1      -7.904   4.209  71.949  1.00  0.00    -0.078 NA 
HETATM   40  N   UNL     1      -7.101   5.179  72.493  1.00  0.00    -0.083 NA 
ENDBRANCH  31  32
ENDBRANCH  25  30
ENDBRANCH  21  23
ENDBRANCH  12  19
ENDBRANCH   8   9
ENDBRANCH   5   8
TORSDOF 6
ENDMDL
MODEL       14
REMARK 921   NORMALIZED FREE ENERGY PREDICTED BY IDOCK:   -7.17 KCAL/MOL
REMARK 922        TOTAL FREE ENERGY PREDICTED BY IDOCK:  -11.00 KCAL/MOL
REMARK 923 INTER-LIGAND FREE ENERGY PREDICTED BY IDOCK:   -9.68 KCAL/MOL
REMARK 924 INTRA-LIGAND FREE ENERGY PREDICTED BY IDOCK:   -1.32 KCAL/MOL
REMARK 927      BINDING AFFINITY PREDICTED BY RF-SCORE:    0.00 PKD
ROOT
HETATM    1  C   UNL     1      -5.800  21.282  67.982  1.00  0.00    -0.319 C  
HETATM    2  N   UNL     1      -5.474  19.915  67.578  1.00  0.00    -0.170 NA 
HETATM    3  C   UNL     1      -6.289  18.933  68.324  1.00  0.00    -0.221 C  
HETATM    4  C   UNL     1      -7.754  18.805  67.847  1.00  0.00    -0.256 C  
HETATM    5  N   UNL     1      -7.910  18.574  66.397  1.00  0.00    -0.265 NA 
HETATM    6  C   UNL     1      -5.665  19.742  66.124  1.00  0.00    -0.169 C  
HETATM    7  C   UNL     1      -7.143  19.612  65.672  1.00  0.00    -0.300 C  
ENDROOT
BRANCH   5   8
HETATM    8  C   UNL     1      -7.454  17.248  65.963  1.00  0.00    -0.197 C  
BRANCH   8   9
HETATM    9  C   UNL     1      -8.194  16.091  66.594  1.00  0.00    -0.324 A  
HETATM   10  C   UNL     1      -9.556  15.962  66.280  1.00  0.00    -0.345 A  
HETATM   11  C   UNL     1     -10.352  15.003  66.895  1.00  0.00    -0.266 A  
HETATM   12  C   UNL     1      -9.816  14.146  67.850  1.00  0.00    -0.224 A  
HETATM   13  C   UNL     1      -8.441  14.212  68.111  1.00  0.00    -0.173 A  
HETATM   14  F   UNL     1      -5.516  14.032  67.544  1.00  0.00    -0.093 F  
HETATM   15  C   UNL     1      -7.609  15.184  67.498  1.00  0.00    -0.216 A  
HETATM   16  F   UNL     1      -5.377  16.197  67.409  1.00  0.00    -0.135 F  
HETATM   17  C   UNL     1      -6.146  15.190  67.894  1.00  0.00    -0.154 C  
HETATM   18  F   UNL     1      -6.006  15.274  69.253  1.00  0.00    -0.097 F  
BRANCH  12  19
HETATM   19  N   UNL     1     -10.602  13.243  68.603  1.00  0.00    -0.270 N  
HETATM   20  O   UNL     1     -11.655  14.710  70.086  1.00  0.00    -0.262 OA 
HETATM   21  C   UNL     1     -11.424  13.582  69.668  1.00  0.00    -0.217 C  
HETATM   22  H   UNL     1     -10.561  12.258  68.341  1.00  0.00     0.000 HD 
BRANCH  21  23
HETATM   23  C   UNL     1     -12.049  12.453  70.402  1.00  0.00    -0.381 A  
HETATM   24  C   UNL     1     -11.545  11.165  70.167  1.00  0.00    -0.410 A  
HETATM   25  C   UNL     1     -12.066  10.060  70.844  1.00  0.00    -0.448 A  
HETATM   26  C   UNL     1     -13.072  12.639  71.334  1.00  0.00    -0.308 A  
HETATM   27  C   UNL     1     -13.108  10.239  71.769  1.00  0.00    -0.570 A  
HETATM   28  C   UNL     1     -13.595  11.538  72.011  1.00  0.00    -0.138 A  
HETATM   29  C   UNL     1     -13.727   9.106  72.542  1.00  0.00    -0.499 C  
BRANCH  25  30
HETATM   30  C   UNL     1     -11.528   8.763  70.540  1.00  0.00    -0.222 C  
HETATM   31  C   UNL     1     -11.072   7.693  70.240  1.00  0.00    -0.256 C  
BRANCH  31  32
HETATM   32  C   UNL     1     -10.565   6.453  69.766  1.00  0.00    -0.254 A  
HETATM   33  C   UNL     1     -10.068   5.416  70.524  1.00  0.00    -0.236 A  
HETATM   34  N   UNL     1      -9.669   4.363  69.738  1.00  0.00    -0.210 NA 
HETATM   35  C   UNL     1      -9.923   4.749  68.505  1.00  0.00    -0.089 A  
HETATM   36  C   UNL     1      -9.725   4.081  67.277  1.00  0.00    -0.199 A  
HETATM   37  C   UNL     1     -10.069   4.691  66.137  1.00  0.00    -0.291 A  
HETATM   38  C   UNL     1     -10.645   6.055  66.245  1.00  0.00     0.045 A  
HETATM   39  N   UNL     1     -10.850   6.716  67.338  1.00  0.00    -0.330 NA 
HETATM   40  N   UNL     1     -10.473   6.025  68.462  1.00  0.00    -0.207 NA 
ENDBRANCH  31  32
ENDBRANCH  25  30
ENDBRANCH  21  23
ENDBRANCH  12  19
ENDBRANCH   8   9
ENDBRANCH   5   8
TORSDOF 6
ENDMDL
MODEL       15
REMARK 921   NORMALIZED FREE ENERGY PREDICTED BY IDOCK:   -7.15 KCAL/MOL
REMARK 922        TOTAL FREE ENERGY PREDICTED BY IDOCK:  -10.96 KCAL/MOL
REMARK 923 INTER-LIGAND FREE ENERGY PREDICTED BY IDOCK:  -10.15 KCAL/MOL
REMARK 924 INTRA-LIGAND FREE ENERGY PREDICTED BY IDOCK:   -0.81 KCAL/MOL
REMARK 927      BINDING AFFINITY PREDICTED BY RF-SCORE:    0.00 PKD
ROOT
HETATM    1  C   UNL     1      -8.676   3.174  74.531  1.00  0.00    -0.075 C  
HETATM    2  N   UNL     1      -9.775   3.471  73.613  1.00  0.00    -0.105 NA 
HETATM    3  C   UNL     1     -10.717   4.441  74.210  1.00  0.00    -0.220 C  
HETATM    4  C   UNL     1     -10.225   5.908  74.216  1.00  0.00    -0.289 C  
HETATM    5  N   UNL     1      -9.769   6.408  72.904  1.00  0.00    -0.157 NA 
HETATM    6  C   UNL     1      -9.258   3.981  72.328  1.00  0.00    -0.121 C  
HETATM    7  C   UNL     1      -8.775   5.455  72.359  1.00  0.00    -0.125 C  
ENDROOT
BRANCH   5   8
HETATM    8  C   UNL     1     -10.856   6.576  71.932  1.00  0.00    -0.237 C  
BRANCH   8   9
HETATM    9  C   UNL     1     -10.664   7.726  70.970  1.00  0.00    -0.241 A  
HETATM   10  C   UNL     1     -10.712   9.021  71.511  1.00  0.00    -0.421 A  
HETATM   11  C   UNL     1     -10.662  10.147  70.697  1.00  0.00    -0.243 A  
HETATM   12  C   UNL     1     -10.569  10.017  69.316  1.00  0.00    -0.227 A  
HETATM   13  C   UNL     1     -10.437   8.732  68.773  1.00  0.00    -0.214 A  
HETATM   14  F   UNL     1      -9.181   6.076  68.251  1.00  0.00    -0.119 F  
HETATM   15  C   UNL     1     -10.489   7.569  69.582  1.00  0.00    -0.235 A  
HETATM   16  F   UNL     1     -10.562   5.117  69.631  1.00  0.00    -0.339 F  
HETATM   17  C   UNL     1     -10.384   6.231  68.876  1.00  0.00    -0.204 C  
HETATM   18  F   UNL     1     -11.318   6.127  67.882  1.00  0.00    -0.388 F  
BRANCH  12  19
HETATM   19  N   UNL     1     -10.647  11.119  68.432  1.00  0.00    -0.183 N  
HETATM   20  O   UNL     1     -12.020  12.563  69.652  1.00  0.00    -0.303 OA 
HETATM   21  C   UNL     1     -11.380  12.276  68.648  1.00  0.00    -0.291 C  
HETATM   22  H   UNL     1     -10.120  11.056  67.561  1.00  0.00     0.000 HD 
BRANCH  21  23
HETATM   23  C   UNL     1     -11.430  13.243  67.522  1.00  0.00    -0.361 A  
HETATM   24  C   UNL     1     -10.673  14.418  67.639  1.00  0.00    -0.263 A  
HETATM   25  C   UNL     1     -10.650  15.359  66.607  1.00  0.00    -0.306 A  
HETATM   26  C   UNL     1     -12.157  12.998  66.355  1.00  0.00    -0.428 A  
HETATM   27  C   UNL     1     -11.395  15.127  65.438  1.00  0.00    -0.298 A  
HETATM   28  C   UNL     1     -12.137  13.936  65.323  1.00  0.00    -0.422 A  
HETATM   29  C   UNL     1     -11.427  16.085  64.278  1.00  0.00    -0.162 C  
BRANCH  25  30
HETATM   30  C   UNL     1      -9.879  16.556  66.797  1.00  0.00    -0.274 C  
HETATM   31  C   UNL     1      -9.257  17.576  66.917  1.00  0.00    -0.273 C  
BRANCH  31  32
HETATM   32  C   UNL     1      -8.541  18.804  66.936  1.00  0.00    -0.284 A  
HETATM   33  C   UNL     1      -8.804  19.904  67.721  1.00  0.00    -0.321 A  
HETATM   34  N   UNL     1      -7.907  20.918  67.486  1.00  0.00    -0.226 NA 
HETATM   35  C   UNL     1      -7.096  20.440  66.565  1.00  0.00    -0.253 A  
HETATM   36  C   UNL     1      -5.979  21.030  65.933  1.00  0.00    -0.295 A  
HETATM   37  C   UNL     1      -5.303  20.333  65.013  1.00  0.00    -0.197 A  
HETATM   38  C   UNL     1      -5.787  18.962  64.712  1.00  0.00    -0.274 A  
HETATM   39  N   UNL     1      -6.800  18.369  65.256  1.00  0.00    -0.512 NA 
HETATM   40  N   UNL     1      -7.439  19.147  66.188  1.00  0.00    -0.266 NA 
ENDBRANCH  31  32
ENDBRANCH  25  30
ENDBRANCH  21  23
ENDBRANCH  12  19
ENDBRANCH   8   9
ENDBRANCH   5   8
TORSDOF 6
ENDMDL
MODEL       16
REMARK 921   NORMALIZED FREE ENERGY PREDICTED BY IDOCK:   -7.11 KCAL/MOL
REMARK 922        TOTAL FREE ENERGY PREDICTED BY IDOCK:  -10.91 KCAL/MOL
REMARK 923 INTER-LIGAND FREE ENERGY PREDICTED BY IDOCK:  -10.13 KCAL/MOL
REMARK 924 INTRA-LIGAND FREE ENERGY PREDICTED BY IDOCK:   -0.78 KCAL/MOL
REMARK 927      BINDING AFFINITY PREDICTED BY RF-SCORE:    0.00 PKD
ROOT
HETATM    1  C   UNL     1      -5.343  20.538  64.345  1.00  0.00    -0.188 C  
HETATM    2  N   UNL     1      -5.190  20.003  65.697  1.00  0.00    -0.161 NA 
HETATM    3  C   UNL     1      -5.489  21.034  66.712  1.00  0.00    -0.213 C  
HETATM    4  C   UNL     1      -6.993  21.329  66.918  1.00  0.00    -0.105 C  
HETATM    5  N   UNL     1      -7.825  20.136  67.169  1.00  0.00    -0.309 NA 
HETATM    6  C   UNL     1      -6.056  18.823  65.892  1.00  0.00    -0.195 C  
HETATM    7  C   UNL     1      -7.559  19.146  66.100  1.00  0.00    -0.280 C  
ENDROOT
BRANCH   5   8
HETATM    8  C   UNL     1      -7.574  19.512  68.474  1.00  0.00    -0.343 C  
BRANCH   8   9
HETATM    9  C   UNL     1      -8.284  18.194  68.686  1.00  0.00    -0.295 A  
HETATM   10  C   UNL     1      -9.681  18.198  68.555  1.00  0.00    -0.372 A  
HETATM   11  C   UNL     1     -10.437  17.067  68.841  1.00  0.00    -0.347 A  
HETATM   12  C   UNL     1      -9.824  15.897  69.274  1.00  0.00    -0.259 A  
HETATM   13  C   UNL     1      -8.424  15.858  69.329  1.00  0.00    -0.242 A  
HETATM   14  F   UNL     1      -5.622  15.939  68.305  1.00  0.00    -0.090 F  
HETATM   15  C   UNL     1      -7.632  16.999  69.045  1.00  0.00    -0.194 A  
HETATM   16  F   UNL     1      -5.379  17.971  69.040  1.00  0.00    -0.169 F  
HETATM   17  C   UNL     1      -6.129  16.850  69.185  1.00  0.00    -0.184 C  
HETATM   18  F   UNL     1      -5.797  16.371  70.423  1.00  0.00    -0.191 F  
BRANCH  12  19
HETATM   19  N   UNL     1     -10.548  14.761  69.705  1.00  0.00    -0.425 N  
HETATM   20  O   UNL     1     -12.514  15.761  70.475  1.00  0.00    -0.414 OA 
HETATM   21  C   UNL     1     -11.804  14.780  70.293  1.00  0.00    -0.302 C  
HETATM   22  H   UNL     1     -10.108  13.850  69.572  1.00  0.00     0.000 HD 
BRANCH  21  23
HETATM   23  C   UNL     1     -12.315  13.479  70.795  1.00  0.00    -0.440 A  
HETATM   24  C   UNL     1     -11.750  12.310  70.265  1.00  0.00    -0.223 A  
HETATM   25  C   UNL     1     -12.163  11.052  70.711  1.00  0.00    -0.480 A  
HETATM   26  C   UNL     1     -13.288  13.391  71.792  1.00  0.00    -0.479 A  
HETATM   27  C   UNL     1     -13.156  10.957  71.701  1.00  0.00    -0.538 A  
HETATM   28  C   UNL     1     -13.704  12.137  72.239  1.00  0.00    -0.107 A  
HETATM   29  C   UNL     1     -13.658   9.645  72.239  1.00  0.00    -0.449 C  
BRANCH  25  30
HETATM   30  C   UNL     1     -11.568   9.891  70.111  1.00  0.00    -0.281 C  
HETATM   31  C   UNL     1     -11.113   8.896  69.615  1.00  0.00    -0.056 C  
BRANCH  31  32
HETATM   32  C   UNL     1     -10.663   7.654  69.090  1.00  0.00    -0.141 A  
HETATM   33  C   UNL     1     -10.378   7.364  67.775  1.00  0.00    -0.213 A  
HETATM   34  N   UNL     1      -9.959   6.065  67.624  1.00  0.00    -0.126 NA 
HETATM   35  C   UNL     1      -9.984   5.561  68.840  1.00  0.00    -0.174 A  
HETATM   36  C   UNL     1      -9.655   4.268  69.303  1.00  0.00    -0.261 A  
HETATM   37  C   UNL     1      -9.763   3.992  70.608  1.00  0.00    -0.266 A  
HETATM   38  C   UNL     1     -10.232   5.087  71.495  1.00  0.00    -0.204 A  
HETATM   39  N   UNL     1     -10.546   6.288  71.131  1.00  0.00    -0.230 NA 
HETATM   40  N   UNL     1     -10.410   6.491  69.781  1.00  0.00    -0.186 NA 
ENDBRANCH  31  32
ENDBRANCH  25  30
ENDBRANCH  21  23
ENDBRANCH  12  19
ENDBRANCH   8   9
ENDBRANCH   5   8
TORSDOF 6
ENDMDL
MODEL       17
REMARK 921   NORMALIZED FREE ENERGY PREDICTED BY IDOCK:   -6.97 KCAL/MOL
REMARK 922        TOTAL FREE ENERGY PREDICTED BY IDOCK:  -10.73 KCAL/MOL
REMARK 923 INTER-LIGAND FREE ENERGY PREDICTED BY IDOCK:   -9.49 KCAL/MOL
REMARK 924 INTRA-LIGAND FREE ENERGY PREDICTED BY IDOCK:   -1.24 KCAL/MOL
REMARK 927      BINDING AFFINITY PREDICTED BY RF-SCORE:    0.00 PKD
ROOT
HETATM    1  C   UNL     1      -5.902  21.309  68.051  1.00  0.00    -0.319 C  
HETATM    2  N   UNL     1      -5.553  19.950  67.637  1.00  0.00    -0.183 NA 
HETATM    3  C   UNL     1      -6.360  18.950  68.368  1.00  0.00    -0.227 C  
HETATM    4  C   UNL     1      -7.819  18.806  67.877  1.00  0.00    -0.262 C  
HETATM    5  N   UNL     1      -7.960  18.585  66.424  1.00  0.00    -0.269 NA 
HETATM    6  C   UNL     1      -5.729  19.787  66.180  1.00  0.00    -0.169 C  
HETATM    7  C   UNL     1      -7.201  19.641  65.714  1.00  0.00    -0.310 C  
ENDROOT
BRANCH   5   8
HETATM    8  C   UNL     1      -7.480  17.270  65.982  1.00  0.00    -0.197 C  
BRANCH   8   9
HETATM    9  C   UNL     1      -8.106  16.099  66.704  1.00  0.00    -0.323 A  
HETATM   10  C   UNL     1      -9.489  15.920  66.544  1.00  0.00    -0.299 A  
HETATM   11  C   UNL     1     -10.179  14.944  67.254  1.00  0.00    -0.241 A  
HETATM   12  C   UNL     1      -9.512  14.119  68.153  1.00  0.00    -0.213 A  
HETATM   13  C   UNL     1      -8.119  14.234  68.259  1.00  0.00    -0.143 A  
HETATM   14  F   UNL     1      -5.271  14.142  67.374  1.00  0.00    -0.006 F  
HETATM   15  C   UNL     1      -7.395  15.224  67.547  1.00  0.00    -0.223 A  
HETATM   16  F   UNL     1      -5.221  16.309  67.201  1.00  0.00    -0.146 F  
HETATM   17  C   UNL     1      -5.897  15.284  67.779  1.00  0.00    -0.125 C  
HETATM   18  F   UNL     1      -5.611  15.392  69.113  1.00  0.00    -0.097 F  
BRANCH  12  19
HETATM   19  N   UNL     1     -10.179  13.201  68.998  1.00  0.00    -0.432 N  
HETATM   20  O   UNL     1      -9.822  11.202  67.842  1.00  0.00    -0.168 OA 
HETATM   21  C   UNL     1     -10.310  11.840  68.767  1.00  0.00    -0.179 C  
HETATM   22  H   UNL     1     -10.599  13.573  69.850  1.00  0.00     0.000 HD 
BRANCH  21  23
HETATM   23  C   UNL     1     -11.171  11.092  69.717  1.00  0.00    -0.339 A  
HETATM   24  C   UNL     1     -10.804   9.775  70.029  1.00  0.00    -0.319 A  
HETATM   25  C   UNL     1     -11.552   9.021  70.937  1.00  0.00    -0.344 A  
HETATM   26  C   UNL     1     -12.286  11.666  70.331  1.00  0.00    -0.434 A  
HETATM   27  C   UNL     1     -12.685   9.587  71.544  1.00  0.00    -0.461 A  
HETATM   28  C   UNL     1     -13.036  10.916  71.237  1.00  0.00    -0.492 A  
HETATM   29  C   UNL     1     -13.547   8.849  72.532  1.00  0.00    -0.467 C  
BRANCH  25  30
HETATM   30  C   UNL     1     -11.142   7.668  71.195  1.00  0.00    -0.269 C  
HETATM   31  C   UNL     1     -10.847   6.527  71.422  1.00  0.00    -0.289 C  
BRANCH  31  32
HETATM   32  C   UNL     1     -10.600   5.168  71.762  1.00  0.00    -0.168 A  
HETATM   33  C   UNL     1     -10.849   4.558  72.970  1.00  0.00    -0.237 A  
HETATM   34  N   UNL     1     -10.495   3.231  72.948  1.00  0.00    -0.161 NA 
HETATM   35  C   UNL     1     -10.033   3.028  71.731  1.00  0.00    -0.122 A  
HETATM   36  C   UNL     1      -9.527   1.856  71.127  1.00  0.00    -0.206 A  
HETATM   37  C   UNL     1      -9.112   1.901  69.856  1.00  0.00    -0.159 A  
HETATM   38  C   UNL     1      -9.214   3.206  69.156  1.00  0.00    -0.154 A  
HETATM   39  N   UNL     1      -9.668   4.310  69.655  1.00  0.00    -0.213 NA 
HETATM   40  N   UNL     1     -10.073   4.183  70.959  1.00  0.00    -0.128 NA 
ENDBRANCH  31  32
ENDBRANCH  25  30
ENDBRANCH  21  23
ENDBRANCH  12  19
ENDBRANCH   8   9
ENDBRANCH   5   8
TORSDOF 6
ENDMDL
MODEL       18
REMARK 921   NORMALIZED FREE ENERGY PREDICTED BY IDOCK:   -6.94 KCAL/MOL
REMARK 922        TOTAL FREE ENERGY PREDICTED BY IDOCK:  -10.68 KCAL/MOL
REMARK 923 INTER-LIGAND FREE ENERGY PREDICTED BY IDOCK:   -9.46 KCAL/MOL
REMARK 924 INTRA-LIGAND FREE ENERGY PREDICTED BY IDOCK:   -1.23 KCAL/MOL
REMARK 927      BINDING AFFINITY PREDICTED BY RF-SCORE:    0.00 PKD
ROOT
HETATM    1  C   UNL     1      -8.514   2.523  63.130  1.00  0.00    -0.085 C  
HETATM    2  N   UNL     1      -7.895   2.792  64.428  1.00  0.00    -0.077 NA 
HETATM    3  C   UNL     1      -7.219   4.106  64.430  1.00  0.00    -0.058 C  
HETATM    4  C   UNL     1      -8.164   5.325  64.543  1.00  0.00    -0.135 C  
HETATM    5  N   UNL     1      -9.117   5.261  65.668  1.00  0.00    -0.158 NA 
HETATM    6  C   UNL     1      -8.900   2.729  65.508  1.00  0.00    -0.132 C  
HETATM    7  C   UNL     1      -9.832   3.966  65.602  1.00  0.00    -0.146 C  
ENDROOT
BRANCH   5   8
HETATM    8  C   UNL     1      -8.481   5.392  66.984  1.00  0.00    -0.106 C  
BRANCH   8   9
HETATM    9  C   UNL     1      -8.937   6.589  67.786  1.00  0.00    -0.114 A  
HETATM   10  C   UNL     1     -10.181   6.486  68.429  1.00  0.00    -0.192 A  
HETATM   11  C   UNL     1     -10.743   7.569  69.095  1.00  0.00    -0.163 A  
HETATM   12  C   UNL     1     -10.085   8.793  69.136  1.00  0.00    -0.198 A  
HETATM   13  C   UNL     1      -8.807   8.883  68.568  1.00  0.00    -0.134 A  
HETATM   14  F   UNL     1      -5.902   8.298  68.211  1.00  0.00    -0.034 F  
HETATM   15  C   UNL     1      -8.215   7.793  67.881  1.00  0.00    -0.123 A  
HETATM   16  F   UNL     1      -6.336   7.028  66.500  1.00  0.00    -0.042 F  
HETATM   17  C   UNL     1      -6.848   8.025  67.267  1.00  0.00    -0.074 C  
HETATM   18  F   UNL     1      -6.857   9.120  66.446  1.00  0.00    -0.074 F  
BRANCH  12  19
HETATM   19  N   UNL     1     -10.664   9.961  69.682  1.00  0.00    -0.236 N  
HETATM   20  O   UNL     1     -11.775  10.815  67.812  1.00  0.00    -0.547 OA 
HETATM   21  C   UNL     1     -11.426  10.887  68.984  1.00  0.00    -0.302 C  
HETATM   22  H   UNL     1     -10.509  10.139  70.674  1.00  0.00     0.000 HD 
BRANCH  21  23
HETATM   23  C   UNL     1     -11.817  12.112  69.726  1.00  0.00    -0.397 A  
HETATM   24  C   UNL     1     -11.424  13.348  69.194  1.00  0.00    -0.351 A  
HETATM   25  C   UNL     1     -11.780  14.543  69.824  1.00  0.00    -0.356 A  
HETATM   26  C   UNL     1     -12.588  12.069  70.889  1.00  0.00    -0.347 A  
HETATM   27  C   UNL     1     -12.540  14.506  71.005  1.00  0.00    -0.410 A  
HETATM   28  C   UNL     1     -12.945  13.260  71.522  1.00  0.00    -0.426 A  
HETATM   29  C   UNL     1     -12.969  15.742  71.748  1.00  0.00    -0.505 C  
BRANCH  25  30
HETATM   30  C   UNL     1     -11.324  15.776  69.247  1.00  0.00    -0.350 C  
HETATM   31  C   UNL     1     -10.898  16.789  68.761  1.00  0.00    -0.318 C  
BRANCH  31  32
HETATM   32  C   UNL     1     -10.279  17.951  68.226  1.00  0.00    -0.388 A  
HETATM   33  C   UNL     1     -10.899  18.993  67.573  1.00  0.00    -0.391 A  
HETATM   34  N   UNL     1      -9.997  19.958  67.193  1.00  0.00    -0.394 NA 
HETATM   35  C   UNL     1      -8.832  19.511  67.614  1.00  0.00    -0.314 A  
HETATM   36  C   UNL     1      -7.542  20.078  67.512  1.00  0.00    -0.327 A  
HETATM   37  C   UNL     1      -6.496  19.423  68.027  1.00  0.00    -0.252 A  
HETATM   38  C   UNL     1      -6.769  18.119  68.681  1.00  0.00    -0.238 A  
HETATM   39  N   UNL     1      -7.925  17.551  68.806  1.00  0.00    -0.265 NA 
HETATM   40  N   UNL     1      -8.945  18.283  68.254  1.00  0.00    -0.298 NA 
ENDBRANCH  31  32
ENDBRANCH  25  30
ENDBRANCH  21  23
ENDBRANCH  12  19
ENDBRANCH   8   9
ENDBRANCH   5   8
TORSDOF 6
ENDMDL
MODEL       19
REMARK 921   NORMALIZED FREE ENERGY PREDICTED BY IDOCK:   -6.83 KCAL/MOL
REMARK 922        TOTAL FREE ENERGY PREDICTED BY IDOCK:  -10.54 KCAL/MOL
REMARK 923 INTER-LIGAND FREE ENERGY PREDICTED BY IDOCK:   -9.64 KCAL/MOL
REMARK 924 INTRA-LIGAND FREE ENERGY PREDICTED BY IDOCK:   -0.90 KCAL/MOL
REMARK 927      BINDING AFFINITY PREDICTED BY RF-SCORE:    0.00 PKD
ROOT
HETATM    1  C   UNL     1      -6.829   3.392  71.760  1.00  0.00    -0.026 C  
HETATM    2  N   UNL     1      -6.670   4.833  71.951  1.00  0.00    -0.041 NA 
HETATM    3  C   UNL     1      -7.383   5.589  70.900  1.00  0.00    -0.083 C  
HETATM    4  C   UNL     1      -8.918   5.658  71.073  1.00  0.00    -0.141 C  
HETATM    5  N   UNL     1      -9.366   6.122  72.401  1.00  0.00    -0.146 NA 
HETATM    6  C   UNL     1      -7.149   5.237  73.288  1.00  0.00    -0.081 C  
HETATM    7  C   UNL     1      -8.692   5.302  73.435  1.00  0.00    -0.115 C  
ENDROOT
BRANCH   5   8
HETATM    8  C   UNL     1      -9.083   7.540  72.653  1.00  0.00    -0.150 C  
BRANCH   8   9
HETATM    9  C   UNL     1      -9.549   8.476  71.562  1.00  0.00    -0.297 A  
HETATM   10  C   UNL     1      -8.559   9.027  70.732  1.00  0.00    -0.259 A  
HETATM   11  C   UNL     1      -8.870   9.985  69.774  1.00  0.00    -0.205 A  
HETATM   12  C   UNL     1     -10.178  10.431  69.618  1.00  0.00    -0.209 A  
HETATM   13  C   UNL     1     -11.185   9.828  70.384  1.00  0.00    -0.362 A  
HETATM   14  F   UNL     1     -12.952   7.641  71.381  1.00  0.00    -0.335 F  
HETATM   15  C   UNL     1     -10.892   8.851  71.369  1.00  0.00    -0.378 A  
HETATM   16  F   UNL     1     -11.768   7.469  73.197  1.00  0.00    -0.281 F  
HETATM   17  C   UNL     1     -12.059   8.306  72.169  1.00  0.00    -0.367 C  
HETATM   18  F   UNL     1     -12.777   9.319  72.743  1.00  0.00    -0.401 F  
BRANCH  12  19
HETATM   19  N   UNL     1     -10.531  11.495  68.756  1.00  0.00    -0.206 N  
HETATM   20  O   UNL     1     -10.498  10.411  66.686  1.00  0.00    -0.240 OA 
HETATM   21  C   UNL     1     -10.632  11.415  67.375  1.00  0.00    -0.218 C  
HETATM   22  H   UNL     1     -10.729  12.398  69.187  1.00  0.00     0.000 HD 
BRANCH  21  23
HETATM   23  C   UNL     1     -10.881  12.692  66.659  1.00  0.00    -0.286 A  
HETATM   24  C   UNL     1      -9.870  13.662  66.689  1.00  0.00    -0.284 A  
HETATM   25  C   UNL     1     -10.024  14.876  66.014  1.00  0.00    -0.337 A  
HETATM   26  C   UNL     1     -12.050  12.928  65.933  1.00  0.00    -0.503 A  
HETATM   27  C   UNL     1     -11.206  15.127  65.297  1.00  0.00    -0.359 A  
HETATM   28  C   UNL     1     -12.208  14.139  65.258  1.00  0.00    -0.440 A  
HETATM   29  C   UNL     1     -11.456  16.404  64.541  1.00  0.00    -0.074 C  
BRANCH  25  30
HETATM   30  C   UNL     1      -8.966  15.842  66.105  1.00  0.00    -0.376 C  
HETATM   31  C   UNL     1      -8.109  16.678  66.209  1.00  0.00    -0.361 C  
BRANCH  31  32
HETATM   32  C   UNL     1      -7.187  17.749  66.361  1.00  0.00    -0.273 A  
HETATM   33  C   UNL     1      -6.324  18.241  65.408  1.00  0.00    -0.198 A  
HETATM   34  N   UNL     1      -5.578  19.287  65.894  1.00  0.00    -0.154 NA 
HETATM   35  C   UNL     1      -5.984  19.438  67.138  1.00  0.00    -0.178 A  
HETATM   36  C   UNL     1      -5.578  20.359  68.128  1.00  0.00    -0.270 A  
HETATM   37  C   UNL     1      -6.148  20.314  69.338  1.00  0.00    -0.374 A  
HETATM   38  C   UNL     1      -7.188  19.278  69.558  1.00  0.00    -0.129 A  
HETATM   39  N   UNL     1      -7.602  18.410  68.692  1.00  0.00    -0.300 NA 
HETATM   40  N   UNL     1      -6.970  18.520  67.479  1.00  0.00    -0.204 NA 
ENDBRANCH  31  32
ENDBRANCH  25  30
ENDBRANCH  21  23
ENDBRANCH  12  19
ENDBRANCH   8   9
ENDBRANCH   5   8
TORSDOF 6
ENDMDL
MODEL       20
REMARK 921   NORMALIZED FREE ENERGY PREDICTED BY IDOCK:   -6.82 KCAL/MOL
REMARK 922        TOTAL FREE ENERGY PREDICTED BY IDOCK:  -10.53 KCAL/MOL
REMARK 923 INTER-LIGAND FREE ENERGY PREDICTED BY IDOCK:  -10.12 KCAL/MOL
REMARK 924 INTRA-LIGAND FREE ENERGY PREDICTED BY IDOCK:   -0.41 KCAL/MOL
REMARK 927      BINDING AFFINITY PREDICTED BY RF-SCORE:    0.00 PKD
ROOT
HETATM    1  C   UNL     1      -8.067  19.115  66.527  1.00  0.00    -0.298 C  
HETATM    2  N   UNL     1      -8.898  17.990  66.100  1.00  0.00    -0.493 NA 
HETATM    3  C   UNL     1      -8.502  16.746  66.793  1.00  0.00    -0.234 C  
HETATM    4  C   UNL     1      -8.978  16.638  68.261  1.00  0.00    -0.214 C  
HETATM    5  N   UNL     1     -10.422  16.873  68.457  1.00  0.00    -0.338 NA 
HETATM    6  C   UNL     1     -10.327  18.278  66.336  1.00  0.00    -0.400 C  
HETATM    7  C   UNL     1     -10.779  18.159  67.815  1.00  0.00    -0.335 C  
ENDROOT
BRANCH   5   8
HETATM    8  C   UNL     1     -11.269  15.809  67.905  1.00  0.00    -0.313 C  
BRANCH   8   9
HETATM    9  C   UNL     1     -11.083  14.457  68.555  1.00  0.00    -0.270 A  
HETATM   10  C   UNL     1     -10.265  13.536  67.881  1.00  0.00    -0.247 A  
HETATM   11  C   UNL     1     -10.121  12.230  68.335  1.00  0.00    -0.215 A  
HETATM   12  C   UNL     1     -10.793  11.798  69.472  1.00  0.00     0.008 A  
HETATM   13  C   UNL     1     -11.546  12.731  70.198  1.00  0.00    -0.130 A  
HETATM   14  F   UNL     1     -12.073  15.162  71.847  1.00  0.00    -0.333 F  
HETATM   15  C   UNL     1     -11.710  14.068  69.754  1.00  0.00    -0.375 A  
HETATM   16  F   UNL     1     -12.849  16.212  70.108  1.00  0.00    -0.217 F  
HETATM   17  C   UNL     1     -12.586  14.973  70.597  1.00  0.00    -0.374 C  
HETATM   18  F   UNL     1     -13.819  14.414  70.799  1.00  0.00    -0.330 F  
BRANCH  12  19
HETATM   19  N   UNL     1     -10.791  10.451  69.904  1.00  0.00    -0.286 N  
HETATM   20  O   UNL     1     -12.515  10.493  71.480  1.00  0.00    -0.380 OA 
HETATM   21  C   UNL     1     -11.615   9.916  70.882  1.00  0.00    -0.373 C  
HETATM   22  H   UNL     1     -10.125   9.820  69.458  1.00  0.00     0.000 HD 
BRANCH  21  23
HETATM   23  C   UNL     1     -11.344   8.510  71.274  1.00  0.00    -0.325 A  
HETATM   24  C   UNL     1     -10.926   7.624  70.271  1.00  0.00    -0.261 A  
HETATM   25  C   UNL     1     -10.627   6.293  70.573  1.00  0.00    -0.305 A  
HETATM   26  C   UNL     1     -11.445   8.067  72.594  1.00  0.00    -0.465 A  
HETATM   27  C   UNL     1     -10.745   5.836  71.896  1.00  0.00    -0.297 A  
HETATM   28  C   UNL     1     -11.148   6.739  72.899  1.00  0.00    -0.277 A  
HETATM   29  C   UNL     1     -10.442   4.422  72.310  1.00  0.00    -0.192 C  
BRANCH  25  30
HETATM   30  C   UNL     1     -10.231   5.426  69.498  1.00  0.00    -0.336 C  
HETATM   31  C   UNL     1      -9.904   4.663  68.630  1.00  0.00    -0.190 C  
BRANCH  31  32
HETATM   32  C   UNL     1      -9.477   3.682  67.694  1.00  0.00    -0.185 A  
HETATM   33  C   UNL     1      -8.693   2.579  67.948  1.00  0.00    -0.111 A  
HETATM   34  N   UNL     1      -8.480   1.839  66.810  1.00  0.00    -0.089 NA 
HETATM   35  C   UNL     1      -9.133   2.482  65.865  1.00  0.00    -0.098 A  
HETATM   36  C   UNL     1      -9.276   2.191  64.490  1.00  0.00    -0.132 A  
HETATM   37  C   UNL     1     -10.001   3.009  63.720  1.00  0.00    -0.162 A  
HETATM   38  C   UNL     1     -10.615   4.191  64.376  1.00  0.00    -0.134 A  
HETATM   39  N   UNL     1     -10.521   4.509  65.627  1.00  0.00    -0.274 NA 
HETATM   40  N   UNL     1      -9.763   3.622  66.349  1.00  0.00    -0.135 NA 
ENDBRANCH  31  32
ENDBRANCH  25  30
ENDBRANCH  21  23
ENDBRANCH  12  19
ENDBRANCH   8   9
ENDBRANCH   5   8
TORSDOF 6
ENDMDL
MODEL       21
REMARK 921   NORMALIZED FREE ENERGY PREDICTED BY IDOCK:   -6.81 KCAL/MOL
REMARK 922        TOTAL FREE ENERGY PREDICTED BY IDOCK:  -10.51 KCAL/MOL
REMARK 923 INTER-LIGAND FREE ENERGY PREDICTED BY IDOCK:   -9.38 KCAL/MOL
REMARK 924 INTRA-LIGAND FREE ENERGY PREDICTED BY IDOCK:   -1.12 KCAL/MOL
REMARK 927      BINDING AFFINITY PREDICTED BY RF-SCORE:    0.00 PKD
ROOT
HETATM    1  C   UNL     1      -9.641  20.810  67.067  1.00  0.00    -0.271 C  
HETATM    2  N   UNL     1      -9.502  19.698  66.128  1.00  0.00    -0.385 NA 
HETATM    3  C   UNL     1      -8.206  19.009  66.310  1.00  0.00    -0.282 C  
HETATM    4  C   UNL     1      -8.131  18.078  67.543  1.00  0.00    -0.230 C  
HETATM    5  N   UNL     1      -9.228  17.095  67.637  1.00  0.00    -0.236 NA 
HETATM    6  C   UNL     1     -10.617  18.742  66.282  1.00  0.00    -0.369 C  
HETATM    7  C   UNL     1     -10.516  17.817  67.523  1.00  0.00    -0.372 C  
ENDROOT
BRANCH   5   8
HETATM    8  C   UNL     1      -9.170  16.051  66.607  1.00  0.00    -0.249 C  
BRANCH   8   9
HETATM    9  C   UNL     1      -9.505  14.662  67.101  1.00  0.00    -0.234 A  
HETATM   10  C   UNL     1     -10.855  14.280  67.052  1.00  0.00    -0.297 A  
HETATM   11  C   UNL     1     -11.283  13.070  67.586  1.00  0.00    -0.315 A  
HETATM   12  C   UNL     1     -10.380  12.206  68.193  1.00  0.00    -0.207 A  
HETATM   13  C   UNL     1      -9.019  12.540  68.174  1.00  0.00    -0.199 A  
HETATM   14  F   UNL     1      -6.345  13.140  66.994  1.00  0.00    -0.120 F  
HETATM   15  C   UNL     1      -8.559  13.769  67.638  1.00  0.00    -0.187 A  
HETATM   16  F   UNL     1      -6.642  15.269  67.323  1.00  0.00    -0.196 F  
HETATM   17  C   UNL     1      -7.069  14.042  67.717  1.00  0.00    -0.173 C  
HETATM   18  F   UNL     1      -6.614  13.916  69.001  1.00  0.00    -0.085 F  
BRANCH  12  19
HETATM   19  N   UNL     1     -10.775  11.028  68.869  1.00  0.00    -0.199 N  
HETATM   20  O   UNL     1     -12.102  11.924  70.572  1.00  0.00    -0.366 OA 
HETATM   21  C   UNL     1     -11.566  10.977  70.007  1.00  0.00    -0.344 C  
HETATM   22  H   UNL     1     -10.451  10.140  68.487  1.00  0.00     0.000 HD 
BRANCH  21  23
HETATM   23  C   UNL     1     -11.741   9.640  70.629  1.00  0.00    -0.353 A  
HETATM   24  C   UNL     1     -11.144   8.543  69.990  1.00  0.00    -0.152 A  
HETATM   25  C   UNL     1     -11.244   7.260  70.533  1.00  0.00    -0.305 A  
HETATM   26  C   UNL     1     -12.427   9.456  71.830  1.00  0.00    -0.468 A  
HETATM   27  C   UNL     1     -11.949   7.065  71.733  1.00  0.00    -0.361 A  
HETATM   28  C   UNL     1     -12.529   8.176  72.375  1.00  0.00    -0.309 A  
HETATM   29  C   UNL     1     -12.105   5.719  72.388  1.00  0.00    -0.088 C  
BRANCH  25  30
HETATM   30  C   UNL     1     -10.637   6.172  69.818  1.00  0.00    -0.343 C  
HETATM   31  C   UNL     1     -10.120   5.293  69.183  1.00  0.00    -0.289 C  
BRANCH  31  32
HETATM   32  C   UNL     1      -9.534   4.320  68.329  1.00  0.00    -0.154 A  
HETATM   33  C   UNL     1      -8.606   3.364  68.676  1.00  0.00    -0.091 A  
HETATM   34  N   UNL     1      -8.260   2.583  67.600  1.00  0.00    -0.068 NA 
HETATM   35  C   UNL     1      -8.975   3.055  66.600  1.00  0.00    -0.157 A  
HETATM   36  C   UNL     1      -9.041   2.649  65.249  1.00  0.00    -0.138 A  
HETATM   37  C   UNL     1      -9.857   3.295  64.409  1.00  0.00    -0.162 A  
HETATM   38  C   UNL     1     -10.651   4.419  64.967  1.00  0.00    -0.115 A  
HETATM   39  N   UNL     1     -10.634   4.835  66.192  1.00  0.00    -0.302 NA 
HETATM   40  N   UNL     1      -9.774   4.123  66.989  1.00  0.00    -0.210 NA 
ENDBRANCH  31  32
ENDBRANCH  25  30
ENDBRANCH  21  23
ENDBRANCH  12  19
ENDBRANCH   8   9
ENDBRANCH   5   8
TORSDOF 6
ENDMDL
MODEL       22
REMARK 921   NORMALIZED FREE ENERGY PREDICTED BY IDOCK:   -6.79 KCAL/MOL
REMARK 922        TOTAL FREE ENERGY PREDICTED BY IDOCK:  -10.49 KCAL/MOL
REMARK 923 INTER-LIGAND FREE ENERGY PREDICTED BY IDOCK:   -9.44 KCAL/MOL
REMARK 924 INTRA-LIGAND FREE ENERGY PREDICTED BY IDOCK:   -1.04 KCAL/MOL
REMARK 927      BINDING AFFINITY PREDICTED BY RF-SCORE:    0.00 PKD
ROOT
HETATM    1  C   UNL     1      -8.689  20.483  67.082  1.00  0.00    -0.271 C  
HETATM    2  N   UNL     1      -8.909  19.532  65.994  1.00  0.00    -0.429 NA 
HETATM    3  C   UNL     1      -7.978  18.388  66.092  1.00  0.00    -0.185 C  
HETATM    4  C   UNL     1      -8.338  17.347  67.177  1.00  0.00    -0.214 C  
HETATM    5  N   UNL     1      -9.725  16.847  67.113  1.00  0.00    -0.247 NA 
HETATM    6  C   UNL     1     -10.308  19.057  65.992  1.00  0.00    -0.446 C  
HETATM    7  C   UNL     1     -10.641  18.010  67.087  1.00  0.00    -0.325 C  
ENDROOT
BRANCH   5   8
HETATM    8  C   UNL     1      -9.990  16.001  65.943  1.00  0.00    -0.352 C  
BRANCH   8   9
HETATM    9  C   UNL     1     -10.034  14.519  66.237  1.00  0.00    -0.320 A  
HETATM   10  C   UNL     1      -9.084  14.024  67.144  1.00  0.00    -0.239 A  
HETATM   11  C   UNL     1      -8.966  12.662  67.395  1.00  0.00    -0.190 A  
HETATM   12  C   UNL     1      -9.788  11.749  66.744  1.00  0.00    -0.198 A  
HETATM   13  C   UNL     1     -10.793  12.239  65.900  1.00  0.00    -0.306 A  
HETATM   14  F   UNL     1     -13.268  13.720  65.133  1.00  0.00    -0.393 F  
HETATM   15  C   UNL     1     -10.931  13.623  65.626  1.00  0.00    -0.294 A  
HETATM   16  F   UNL     1     -12.078  15.337  64.296  1.00  0.00    -0.452 F  
HETATM   17  C   UNL     1     -12.026  14.030  64.659  1.00  0.00    -0.430 C  
HETATM   18  F   UNL     1     -11.916  13.349  63.478  1.00  0.00    -0.495 F  
BRANCH  12  19
HETATM   19  N   UNL     1      -9.626  10.348  66.858  1.00  0.00    -0.168 N  
HETATM   20  O   UNL     1      -8.196   9.924  65.060  1.00  0.00    -0.130 OA 
HETATM   21  C   UNL     1      -8.881   9.549  66.003  1.00  0.00    -0.156 C  
HETATM   22  H   UNL     1     -10.097   9.886  67.636  1.00  0.00     0.000 HD 
BRANCH  21  23
HETATM   23  C   UNL     1      -8.965   8.085  66.231  1.00  0.00    -0.208 A  
HETATM   24  C   UNL     1      -9.417   7.646  67.485  1.00  0.00    -0.168 A  
HETATM   25  C   UNL     1      -9.547   6.283  67.760  1.00  0.00    -0.118 A  
HETATM   26  C   UNL     1      -8.657   7.153  65.238  1.00  0.00    -0.000 A  
HETATM   27  C   UNL     1      -9.221   5.339  66.771  1.00  0.00    -0.126 A  
HETATM   28  C   UNL     1      -8.785   5.790  65.510  1.00  0.00    -0.141 A  
HETATM   29  C   UNL     1      -9.332   3.854  66.981  1.00  0.00    -0.212 C  
BRANCH  25  30
HETATM   30  C   UNL     1      -9.987   5.894  69.071  1.00  0.00    -0.211 C  
HETATM   31  C   UNL     1     -10.308   5.564  70.180  1.00  0.00    -0.354 C  
BRANCH  31  32
HETATM   32  C   UNL     1     -10.577   5.114  71.501  1.00  0.00    -0.147 A  
HETATM   33  C   UNL     1     -11.164   5.833  72.518  1.00  0.00    -0.297 A  
HETATM   34  N   UNL     1     -11.278   5.085  73.665  1.00  0.00    -0.277 NA 
HETATM   35  C   UNL     1     -10.766   3.912  73.351  1.00  0.00    -0.208 A  
HETATM   36  C   UNL     1     -10.615   2.742  74.128  1.00  0.00    -0.239 A  
HETATM   37  C   UNL     1     -10.056   1.659  73.577  1.00  0.00    -0.139 A  
HETATM   38  C   UNL     1      -9.625   1.764  72.160  1.00  0.00    -0.104 A  
HETATM   39  N   UNL     1      -9.738   2.805  71.400  1.00  0.00    -0.157 NA 
HETATM   40  N   UNL     1     -10.319   3.873  72.036  1.00  0.00    -0.094 NA 
ENDBRANCH  31  32
ENDBRANCH  25  30
ENDBRANCH  21  23
ENDBRANCH  12  19
ENDBRANCH   8   9
ENDBRANCH   5   8
TORSDOF 6
ENDMDL
MODEL       23
REMARK 921   NORMALIZED FREE ENERGY PREDICTED BY IDOCK:   -6.77 KCAL/MOL
REMARK 922        TOTAL FREE ENERGY PREDICTED BY IDOCK:  -10.46 KCAL/MOL
REMARK 923 INTER-LIGAND FREE ENERGY PREDICTED BY IDOCK:   -9.31 KCAL/MOL
REMARK 924 INTRA-LIGAND FREE ENERGY PREDICTED BY IDOCK:   -1.14 KCAL/MOL
REMARK 927      BINDING AFFINITY PREDICTED BY RF-SCORE:    0.00 PKD
ROOT
HETATM    1  C   UNL     1      -6.466  20.474  64.860  1.00  0.00    -0.294 C  
HETATM    2  N   UNL     1      -6.435  19.976  66.235  1.00  0.00    -0.198 NA 
HETATM    3  C   UNL     1      -7.285  20.803  67.117  1.00  0.00    -0.337 C  
HETATM    4  C   UNL     1      -8.804  20.552  66.980  1.00  0.00    -0.242 C  
HETATM    5  N   UNL     1      -9.206  19.137  67.096  1.00  0.00    -0.292 NA 
HETATM    6  C   UNL     1      -6.861  18.563  66.287  1.00  0.00    -0.230 C  
HETATM    7  C   UNL     1      -8.390  18.339  66.151  1.00  0.00    -0.129 C  
ENDROOT
BRANCH   5   8
HETATM    8  C   UNL     1      -9.046  18.591  68.449  1.00  0.00    -0.322 C  
BRANCH   8   9
HETATM    9  C   UNL     1      -9.462  17.146  68.596  1.00  0.00    -0.275 A  
HETATM   10  C   UNL     1     -10.818  16.851  68.386  1.00  0.00    -0.347 A  
HETATM   11  C   UNL     1     -11.324  15.576  68.608  1.00  0.00    -0.348 A  
HETATM   12  C   UNL     1     -10.494  14.554  69.053  1.00  0.00    -0.237 A  
HETATM   13  C   UNL     1      -9.124  14.816  69.187  1.00  0.00    -0.085 A  
HETATM   14  F   UNL     1      -6.358  15.531  68.325  1.00  0.00    -0.096 F  
HETATM   15  C   UNL     1      -8.586  16.109  68.969  1.00  0.00    -0.251 A  
HETATM   16  F   UNL     1      -6.600  17.545  69.110  1.00  0.00    -0.204 F  
HETATM   17  C   UNL     1      -7.096  16.284  69.191  1.00  0.00    -0.214 C  
HETATM   18  F   UNL     1      -6.731  15.851  70.437  1.00  0.00    -0.028 F  
BRANCH  12  19
HETATM   19  N   UNL     1     -10.975  13.275  69.422  1.00  0.00    -0.447 N  
HETATM   20  O   UNL     1     -12.506  13.848  71.091  1.00  0.00    -0.341 OA 
HETATM   21  C   UNL     1     -11.905  13.019  70.418  1.00  0.00    -0.165 C  
HETATM   22  H   UNL     1     -10.606  12.473  68.911  1.00  0.00     0.000 HD 
BRANCH  21  23
HETATM   23  C   UNL     1     -12.160  11.590  70.730  1.00  0.00    -0.410 A  
HETATM   24  C   UNL     1     -11.369  10.632  70.080  1.00  0.00    -0.400 A  
HETATM   25  C   UNL     1     -11.535   9.270  70.345  1.00  0.00    -0.255 A  
HETATM   26  C   UNL     1     -13.113  11.185  71.666  1.00  0.00    -0.529 A  
HETATM   27  C   UNL     1     -12.505   8.856  71.273  1.00  0.00    -0.321 A  
HETATM   28  C   UNL     1     -13.282   9.827  71.933  1.00  0.00    -0.545 A  
HETATM   29  C   UNL     1     -12.749   7.412  71.619  1.00  0.00    -0.399 C  
BRANCH  25  30
HETATM   30  C   UNL     1     -10.715   8.335  69.627  1.00  0.00    -0.196 C  
HETATM   31  C   UNL     1     -10.007   7.590  69.004  1.00  0.00    -0.175 C  
BRANCH  31  32
HETATM   32  C   UNL     1      -9.154   6.802  68.185  1.00  0.00    -0.123 A  
HETATM   33  C   UNL     1      -8.593   5.585  68.501  1.00  0.00    -0.102 A  
HETATM   34  N   UNL     1      -7.825   5.100  67.470  1.00  0.00    -0.095 NA 
HETATM   35  C   UNL     1      -7.917   6.014  66.526  1.00  0.00    -0.105 A  
HETATM   36  C   UNL     1      -7.341   6.060  65.237  1.00  0.00    -0.076 A  
HETATM   37  C   UNL     1      -7.586   7.111  64.447  1.00  0.00    -0.112 A  
HETATM   38  C   UNL     1      -8.462   8.179  64.993  1.00  0.00    -0.099 A  
HETATM   39  N   UNL     1      -9.017   8.192  66.162  1.00  0.00    -0.170 NA 
HETATM   40  N   UNL     1      -8.718   7.082  66.910  1.00  0.00    -0.119 NA 
ENDBRANCH  31  32
ENDBRANCH  25  30
ENDBRANCH  21  23
ENDBRANCH  12  19
ENDBRANCH   8   9
ENDBRANCH   5   8
TORSDOF 6
ENDMDL
MODEL       24
REMARK 921   NORMALIZED FREE ENERGY PREDICTED BY IDOCK:   -6.65 KCAL/MOL
REMARK 922        TOTAL FREE ENERGY PREDICTED BY IDOCK:  -10.29 KCAL/MOL
REMARK 923 INTER-LIGAND FREE ENERGY PREDICTED BY IDOCK:   -9.12 KCAL/MOL
REMARK 924 INTRA-LIGAND FREE ENERGY PREDICTED BY IDOCK:   -1.18 KCAL/MOL
REMARK 927      BINDING AFFINITY PREDICTED BY RF-SCORE:    0.00 PKD
ROOT
HETATM    1  C   UNL     1      -9.170  20.939  67.149  1.00  0.00    -0.120 C  
HETATM    2  N   UNL     1      -9.196  19.991  66.035  1.00  0.00    -0.328 NA 
HETATM    3  C   UNL     1      -8.109  18.998  66.159  1.00  0.00    -0.244 C  
HETATM    4  C   UNL     1      -8.356  17.889  67.208  1.00  0.00    -0.225 C  
HETATM    5  N   UNL     1      -9.649  17.189  67.070  1.00  0.00    -0.252 NA 
HETATM    6  C   UNL     1     -10.506  19.313  65.959  1.00  0.00    -0.487 C  
HETATM    7  C   UNL     1     -10.727  18.203  67.019  1.00  0.00    -0.253 C  
ENDROOT
BRANCH   5   8
HETATM    8  C   UNL     1      -9.731  16.341  65.875  1.00  0.00    -0.321 C  
BRANCH   8   9
HETATM    9  C   UNL     1      -9.942  14.872  66.161  1.00  0.00    -0.323 A  
HETATM   10  C   UNL     1      -8.963  14.229  66.935  1.00  0.00    -0.255 A  
HETATM   11  C   UNL     1      -9.004  12.858  67.160  1.00  0.00    -0.219 A  
HETATM   12  C   UNL     1     -10.019  12.082  66.612  1.00  0.00    -0.201 A  
HETATM   13  C   UNL     1     -11.045  12.725  65.907  1.00  0.00    -0.318 A  
HETATM   14  F   UNL     1     -13.367  14.548  65.472  1.00  0.00    -0.396 F  
HETATM   15  C   UNL     1     -11.024  14.121  65.663  1.00  0.00    -0.308 A  
HETATM   16  F   UNL     1     -12.080  16.008  64.503  1.00  0.00    -0.220 F  
HETATM   17  C   UNL     1     -12.164  14.698  64.846  1.00  0.00    -0.357 C  
HETATM   18  F   UNL     1     -12.298  14.037  63.656  1.00  0.00    -0.516 F  
BRANCH  12  19
HETATM   19  N   UNL     1     -10.039  10.670  66.694  1.00  0.00    -0.212 N  
HETATM   20  O   UNL     1     -11.226  10.364  68.683  1.00  0.00    -0.256 OA 
HETATM   21  C   UNL     1     -10.603   9.929  67.722  1.00  0.00    -0.261 C  
HETATM   22  H   UNL     1      -9.602  10.152  65.931  1.00  0.00     0.000 HD 
BRANCH  21  23
HETATM   23  C   UNL     1     -10.385   8.461  67.672  1.00  0.00    -0.317 A  
HETATM   24  C   UNL     1     -10.399   7.760  68.886  1.00  0.00    -0.224 A  
HETATM   25  C   UNL     1     -10.229   6.374  68.912  1.00  0.00    -0.215 A  
HETATM   26  C   UNL     1     -10.217   7.769  66.471  1.00  0.00    -0.195 A  
HETATM   27  C   UNL     1     -10.041   5.674  67.708  1.00  0.00    -0.209 A  
HETATM   28  C   UNL     1     -10.046   6.385  66.493  1.00  0.00    -0.155 A  
HETATM   29  C   UNL     1      -9.851   4.182  67.643  1.00  0.00    -0.122 C  
BRANCH  25  30
HETATM   30  C   UNL     1     -10.224   5.714  70.188  1.00  0.00    -0.318 C  
HETATM   31  C   UNL     1     -10.189   5.130  71.236  1.00  0.00    -0.292 C  
BRANCH  31  32
HETATM   32  C   UNL     1     -10.112   4.336  72.413  1.00  0.00    -0.176 A  
HETATM   33  C   UNL     1     -11.016   4.302  73.451  1.00  0.00    -0.278 A  
HETATM   34  N   UNL     1     -10.630   3.415  74.427  1.00  0.00    -0.197 NA 
HETATM   35  C   UNL     1      -9.498   2.905  73.988  1.00  0.00    -0.088 A  
HETATM   36  C   UNL     1      -8.644   1.940  74.565  1.00  0.00    -0.057 A  
HETATM   37  C   UNL     1      -7.532   1.578  73.916  1.00  0.00    -0.028 A  
HETATM   38  C   UNL     1      -7.268   2.230  72.608  1.00  0.00    -0.032 A  
HETATM   39  N   UNL     1      -8.011   3.117  72.030  1.00  0.00    -0.054 NA 
HETATM   40  N   UNL     1      -9.131   3.435  72.757  1.00  0.00    -0.088 NA 
ENDBRANCH  31  32
ENDBRANCH  25  30
ENDBRANCH  21  23
ENDBRANCH  12  19
ENDBRANCH   8   9
ENDBRANCH   5   8
TORSDOF 6
ENDMDL
MODEL       25
REMARK 921   NORMALIZED FREE ENERGY PREDICTED BY IDOCK:   -6.60 KCAL/MOL
REMARK 922        TOTAL FREE ENERGY PREDICTED BY IDOCK:  -10.23 KCAL/MOL
REMARK 923 INTER-LIGAND FREE ENERGY PREDICTED BY IDOCK:   -8.96 KCAL/MOL
REMARK 924 INTRA-LIGAND FREE ENERGY PREDICTED BY IDOCK:   -1.27 KCAL/MOL
REMARK 927      BINDING AFFINITY PREDICTED BY RF-SCORE:    0.00 PKD
ROOT
HETATM    1  C   UNL     1      -9.165  19.899  67.438  1.00  0.00    -0.351 C  
HETATM    2  N   UNL     1     -10.345  19.036  67.430  1.00  0.00    -0.396 NA 
HETATM    3  C   UNL     1     -10.408  18.235  66.190  1.00  0.00    -0.398 C  
HETATM    4  C   UNL     1      -9.436  17.034  66.139  1.00  0.00    -0.225 C  
HETATM    5  N   UNL     1      -9.508  16.136  67.309  1.00  0.00    -0.225 NA 
HETATM    6  C   UNL     1     -10.352  18.153  68.613  1.00  0.00    -0.298 C  
HETATM    7  C   UNL     1      -9.371  16.953  68.536  1.00  0.00    -0.259 C  
ENDROOT
BRANCH   5   8
HETATM    8  C   UNL     1     -10.755  15.366  67.381  1.00  0.00    -0.296 C  
BRANCH   8   9
HETATM    9  C   UNL     1     -10.583  13.874  67.213  1.00  0.00    -0.276 A  
HETATM   10  C   UNL     1      -9.817  13.211  68.184  1.00  0.00    -0.228 A  
HETATM   11  C   UNL     1      -9.504  11.862  68.061  1.00  0.00    -0.197 A  
HETATM   12  C   UNL     1      -9.939  11.133  66.961  1.00  0.00    -0.192 A  
HETATM   13  C   UNL     1     -10.773  11.765  66.028  1.00  0.00    -0.324 A  
HETATM   14  F   UNL     1     -13.211  13.148  65.003  1.00  0.00    -0.425 F  
HETATM   15  C   UNL     1     -11.104  13.139  66.131  1.00  0.00    -0.301 A  
HETATM   16  F   UNL     1     -12.186  15.065  65.062  1.00  0.00    -0.318 F  
HETATM   17  C   UNL     1     -11.975  13.725  65.036  1.00  0.00    -0.383 C  
HETATM   18  F   UNL     1     -11.438  13.484  63.801  1.00  0.00    -0.392 F  
BRANCH  12  19
HETATM   19  N   UNL     1      -9.543   9.798  66.715  1.00  0.00    -0.169 N  
HETATM   20  O   UNL     1      -7.899  10.122  65.086  1.00  0.00    -0.132 OA 
HETATM   21  C   UNL     1      -8.591   9.396  65.789  1.00  0.00    -0.145 C  
HETATM   22  H   UNL     1      -9.995   9.068  67.266  1.00  0.00     0.000 HD 
BRANCH  21  23
HETATM   23  C   UNL     1      -8.434   7.931  65.600  1.00  0.00    -0.160 A  
HETATM   24  C   UNL     1      -8.741   7.099  66.687  1.00  0.00    -0.131 A  
HETATM   25  C   UNL     1      -8.642   5.710  66.572  1.00  0.00    -0.119 A  
HETATM   26  C   UNL     1      -8.044   7.370  64.383  1.00  0.00    -0.070 A  
HETATM   27  C   UNL     1      -8.231   5.140  65.355  1.00  0.00    -0.124 A  
HETATM   28  C   UNL     1      -7.943   5.984  64.265  1.00  0.00    -0.121 A  
HETATM   29  C   UNL     1      -8.099   3.656  65.144  1.00  0.00    -0.097 C  
BRANCH  25  30
HETATM   30  C   UNL     1      -8.941   4.911  67.728  1.00  0.00    -0.118 C  
HETATM   31  C   UNL     1      -9.191   4.284  68.721  1.00  0.00    -0.200 C  
BRANCH  31  32
HETATM   32  C   UNL     1      -9.436   3.637  69.963  1.00  0.00    -0.190 A  
HETATM   33  C   UNL     1      -9.154   2.328  70.285  1.00  0.00    -0.106 A  
HETATM   34  N   UNL     1      -9.518   2.037  71.577  1.00  0.00    -0.114 NA 
HETATM   35  C   UNL     1     -10.016   3.162  72.046  1.00  0.00    -0.152 A  
HETATM   36  C   UNL     1     -10.547   3.468  73.319  1.00  0.00    -0.277 A  
HETATM   37  C   UNL     1     -10.999   4.704  73.560  1.00  0.00    -0.395 A  
HETATM   38  C   UNL     1     -10.911   5.686  72.450  1.00  0.00    -0.248 A  
HETATM   39  N   UNL     1     -10.435   5.465  71.267  1.00  0.00    -0.233 NA 
HETATM   40  N   UNL     1      -9.992   4.178  71.098  1.00  0.00    -0.174 NA 
ENDBRANCH  31  32
ENDBRANCH  25  30
ENDBRANCH  21  23
ENDBRANCH  12  19
ENDBRANCH   8   9
ENDBRANCH   5   8
TORSDOF 6
ENDMDL
MODEL       26
REMARK 921   NORMALIZED FREE ENERGY PREDICTED BY IDOCK:   -6.59 KCAL/MOL
REMARK 922        TOTAL FREE ENERGY PREDICTED BY IDOCK:  -10.22 KCAL/MOL
REMARK 923 INTER-LIGAND FREE ENERGY PREDICTED BY IDOCK:   -8.95 KCAL/MOL
REMARK 924 INTRA-LIGAND FREE ENERGY PREDICTED BY IDOCK:   -1.27 KCAL/MOL
REMARK 927      BINDING AFFINITY PREDICTED BY RF-SCORE:    0.00 PKD
ROOT
HETATM    1  C   UNL     1     -10.037  20.071  65.964  1.00  0.00    -0.450 C  
HETATM    2  N   UNL     1     -10.684  19.095  66.841  1.00  0.00    -0.445 NA 
HETATM    3  C   UNL     1     -10.427  17.715  66.379  1.00  0.00    -0.286 C  
HETATM    4  C   UNL     1      -9.012  17.175  66.694  1.00  0.00    -0.253 C  
HETATM    5  N   UNL     1      -8.607  17.304  68.108  1.00  0.00    -0.235 NA 
HETATM    6  C   UNL     1     -10.227  19.263  68.235  1.00  0.00    -0.418 C  
HETATM    7  C   UNL     1      -8.808  18.710  68.527  1.00  0.00    -0.331 C  
ENDROOT
BRANCH   5   8
HETATM    8  C   UNL     1      -9.353  16.422  69.014  1.00  0.00    -0.248 C  
BRANCH   8   9
HETATM    9  C   UNL     1      -9.203  14.947  68.719  1.00  0.00    -0.193 A  
HETATM   10  C   UNL     1      -7.894  14.445  68.648  1.00  0.00    -0.140 A  
HETATM   11  C   UNL     1      -7.645  13.130  68.271  1.00  0.00    -0.139 A  
HETATM   12  C   UNL     1      -8.693  12.276  67.946  1.00  0.00    -0.177 A  
HETATM   13  C   UNL     1     -10.005  12.744  68.094  1.00  0.00    -0.229 A  
HETATM   14  F   UNL     1     -12.418  13.784  69.510  1.00  0.00    -0.362 F  
HETATM   15  C   UNL     1     -10.285  14.081  68.474  1.00  0.00    -0.237 A  
HETATM   16  F   UNL     1     -12.012  15.795  68.790  1.00  0.00    -0.374 F  
HETATM   17  C   UNL     1     -11.744  14.486  68.554  1.00  0.00    -0.318 C  
HETATM   18  F   UNL     1     -12.395  14.208  67.383  1.00  0.00    -0.423 F  
BRANCH  12  19
HETATM   19  N   UNL     1      -8.495  10.974  67.430  1.00  0.00    -0.131 N  
HETATM   20  O   UNL     1      -9.044  11.305  65.184  1.00  0.00    -0.189 OA 
HETATM   21  C   UNL     1      -8.712  10.584  66.117  1.00  0.00    -0.158 C  
HETATM   22  H   UNL     1      -8.163  10.261  68.080  1.00  0.00     0.000 HD 
BRANCH  21  23
HETATM   23  C   UNL     1      -8.573   9.135  65.829  1.00  0.00    -0.171 A  
HETATM   24  C   UNL     1      -8.908   8.234  66.850  1.00  0.00    -0.155 A  
HETATM   25  C   UNL     1      -8.827   6.855  66.641  1.00  0.00    -0.140 A  
HETATM   26  C   UNL     1      -8.172   8.654  64.582  1.00  0.00    -0.167 A  
HETATM   27  C   UNL     1      -8.406   6.364  65.393  1.00  0.00    -0.141 A  
HETATM   28  C   UNL     1      -8.089   7.277  64.369  1.00  0.00    -0.065 A  
HETATM   29  C   UNL     1      -8.291   4.897  65.080  1.00  0.00    -0.133 C  
BRANCH  25  30
HETATM   30  C   UNL     1      -9.155   5.982  67.733  1.00  0.00    -0.109 C  
HETATM   31  C   UNL     1      -9.395   5.274  68.673  1.00  0.00    -0.155 C  
BRANCH  31  32
HETATM   32  C   UNL     1      -9.561   4.459  69.826  1.00  0.00    -0.205 A  
HETATM   33  C   UNL     1      -9.247   3.124  69.950  1.00  0.00    -0.152 A  
HETATM   34  N   UNL     1      -9.533   2.653  71.208  1.00  0.00    -0.138 NA 
HETATM   35  C   UNL     1     -10.016   3.694  71.854  1.00  0.00    -0.153 A  
HETATM   36  C   UNL     1     -10.477   3.814  73.183  1.00  0.00    -0.257 A  
HETATM   37  C   UNL     1     -10.929   4.997  73.615  1.00  0.00    -0.379 A  
HETATM   38  C   UNL     1     -10.915   6.123  72.647  1.00  0.00    -0.256 A  
HETATM   39  N   UNL     1     -10.505   6.074  71.421  1.00  0.00    -0.223 NA 
HETATM   40  N   UNL     1     -10.058   4.830  71.054  1.00  0.00    -0.211 NA 
ENDBRANCH  31  32
ENDBRANCH  25  30
ENDBRANCH  21  23
ENDBRANCH  12  19
ENDBRANCH   8   9
ENDBRANCH   5   8
TORSDOF 6
ENDMDL
MODEL       27
REMARK 921   NORMALIZED FREE ENERGY PREDICTED BY IDOCK:   -6.55 KCAL/MOL
REMARK 922        TOTAL FREE ENERGY PREDICTED BY IDOCK:  -10.16 KCAL/MOL
REMARK 923 INTER-LIGAND FREE ENERGY PREDICTED BY IDOCK:   -9.35 KCAL/MOL
REMARK 924 INTRA-LIGAND FREE ENERGY PREDICTED BY IDOCK:   -0.81 KCAL/MOL
REMARK 927      BINDING AFFINITY PREDICTED BY RF-SCORE:    0.00 PKD
ROOT
HETATM    1  C   UNL     1      -5.295  20.950  70.277  1.00  0.00    -0.253 C  
HETATM    2  N   UNL     1      -5.126  20.042  69.143  1.00  0.00    -0.183 NA 
HETATM    3  C   UNL     1      -5.993  18.853  69.282  1.00  0.00    -0.238 C  
HETATM    4  C   UNL     1      -7.487  19.095  68.964  1.00  0.00    -0.318 C  
HETATM    5  N   UNL     1      -7.741  19.739  67.660  1.00  0.00    -0.274 NA 
HETATM    6  C   UNL     1      -5.409  20.739  67.871  1.00  0.00    -0.238 C  
HETATM    7  C   UNL     1      -6.915  20.965  67.574  1.00  0.00    -0.351 C  
ENDROOT
BRANCH   5   8
HETATM    8  C   UNL     1      -7.440  18.876  66.512  1.00  0.00    -0.240 C  
BRANCH   8   9
HETATM    9  C   UNL     1      -7.948  17.458  66.642  1.00  0.00    -0.293 A  
HETATM   10  C   UNL     1      -7.002  16.474  66.971  1.00  0.00    -0.250 A  
HETATM   11  C   UNL     1      -7.343  15.126  67.003  1.00  0.00    -0.015 A  
HETATM   12  C   UNL     1      -8.637  14.717  66.700  1.00  0.00    -0.094 A  
HETATM   13  C   UNL     1      -9.607  15.697  66.452  1.00  0.00    -0.316 A  
HETATM   14  F   UNL     1     -11.390  18.019  67.030  1.00  0.00    -0.039 F  
HETATM   15  C   UNL     1      -9.283  17.076  66.411  1.00  0.00    -0.298 A  
HETATM   16  F   UNL     1     -10.074  19.346  65.918  1.00  0.00    -0.413 F  
HETATM   17  C   UNL     1     -10.407  18.041  66.084  1.00  0.00    -0.366 C  
HETATM   18  F   UNL     1     -11.029  17.692  64.916  1.00  0.00    -0.374 F  
BRANCH  12  19
HETATM   19  N   UNL     1      -9.008  13.356  66.587  1.00  0.00    -0.421 N  
HETATM   20  O   UNL     1      -9.985  12.993  68.678  1.00  0.00    -0.202 OA 
HETATM   21  C   UNL     1      -9.615  12.600  67.578  1.00  0.00    -0.184 C  
HETATM   22  H   UNL     1      -8.812  12.892  65.700  1.00  0.00     0.000 HD 
BRANCH  21  23
HETATM   23  C   UNL     1      -9.787  11.154  67.290  1.00  0.00    -0.198 A  
HETATM   24  C   UNL     1     -10.072  10.305  68.369  1.00  0.00    -0.178 A  
HETATM   25  C   UNL     1     -10.274   8.937  68.167  1.00  0.00    -0.245 A  
HETATM   26  C   UNL     1      -9.722  10.635  65.995  1.00  0.00    -0.258 A  
HETATM   27  C   UNL     1     -10.192   8.406  66.869  1.00  0.00    -0.383 A  
HETATM   28  C   UNL     1      -9.923   9.270  65.790  1.00  0.00    -0.215 A  
HETATM   29  C   UNL     1     -10.396   6.947  66.561  1.00  0.00    -0.115 C  
BRANCH  25  30
HETATM   30  C   UNL     1     -10.534   8.113  69.315  1.00  0.00    -0.221 C  
HETATM   31  C   UNL     1     -10.703   7.414  70.276  1.00  0.00    -0.250 C  
BRANCH  31  32
HETATM   32  C   UNL     1     -10.797   6.526  71.383  1.00  0.00    -0.245 A  
HETATM   33  C   UNL     1     -11.358   6.791  72.612  1.00  0.00    -0.222 A  
HETATM   34  N   UNL     1     -11.283   5.702  73.446  1.00  0.00    -0.195 NA 
HETATM   35  C   UNL     1     -10.683   4.773  72.731  1.00  0.00    -0.217 A  
HETATM   36  C   UNL     1     -10.336   3.445  73.061  1.00  0.00    -0.247 A  
HETATM   37  C   UNL     1      -9.721   2.682  72.150  1.00  0.00    -0.216 A  
HETATM   38  C   UNL     1      -9.439   3.300  70.829  1.00  0.00    -0.166 A  
HETATM   39  N   UNL     1      -9.733   4.507  70.469  1.00  0.00    -0.203 NA 
HETATM   40  N   UNL     1     -10.360   5.224  71.457  1.00  0.00    -0.218 NA 
ENDBRANCH  31  32
ENDBRANCH  25  30
ENDBRANCH  21  23
ENDBRANCH  12  19
ENDBRANCH   8   9
ENDBRANCH   5   8
TORSDOF 6
ENDMDL
MODEL       28
REMARK 921   NORMALIZED FREE ENERGY PREDICTED BY IDOCK:   -6.40 KCAL/MOL
REMARK 922        TOTAL FREE ENERGY PREDICTED BY IDOCK:   -9.96 KCAL/MOL
REMARK 923 INTER-LIGAND FREE ENERGY PREDICTED BY IDOCK:   -9.59 KCAL/MOL
REMARK 924 INTRA-LIGAND FREE ENERGY PREDICTED BY IDOCK:   -0.37 KCAL/MOL
REMARK 927      BINDING AFFINITY PREDICTED BY RF-SCORE:    0.00 PKD
ROOT
HETATM    1  C   UNL     1      -5.909   1.537  70.549  1.00  0.00    -0.017 C  
HETATM    2  N   UNL     1      -7.240   1.919  71.021  1.00  0.00    -0.032 NA 
HETATM    3  C   UNL     1      -7.291   3.358  71.354  1.00  0.00    -0.036 C  
HETATM    4  C   UNL     1      -7.369   4.306  70.134  1.00  0.00    -0.046 C  
HETATM    5  N   UNL     1      -8.443   3.984  69.174  1.00  0.00    -0.075 NA 
HETATM    6  C   UNL     1      -8.266   1.587  70.013  1.00  0.00    -0.041 C  
HETATM    7  C   UNL     1      -8.326   2.555  68.802  1.00  0.00    -0.063 C  
ENDROOT
BRANCH   5   8
HETATM    8  C   UNL     1      -9.791   4.236  69.696  1.00  0.00    -0.174 C  
BRANCH   8   9
HETATM    9  C   UNL     1     -10.107   5.693  69.943  1.00  0.00    -0.289 A  
HETATM   10  C   UNL     1     -10.107   6.125  71.279  1.00  0.00    -0.227 A  
HETATM   11  C   UNL     1     -10.494   7.415  71.622  1.00  0.00    -0.219 A  
HETATM   12  C   UNL     1     -10.903   8.314  70.643  1.00  0.00    -0.236 A  
HETATM   13  C   UNL     1     -10.828   7.920  69.301  1.00  0.00    -0.077 A  
HETATM   14  F   UNL     1      -9.545   7.043  66.753  1.00  0.00    -0.166 F  
HETATM   15  C   UNL     1     -10.438   6.609  68.927  1.00  0.00    -0.239 A  
HETATM   16  F   UNL     1     -10.195   4.996  67.094  1.00  0.00    -0.182 F  
HETATM   17  C   UNL     1     -10.442   6.283  67.445  1.00  0.00    -0.248 C  
HETATM   18  F   UNL     1     -11.657   6.567  66.884  1.00  0.00    -0.411 F  
BRANCH  12  19
HETATM   19  N   UNL     1     -11.432   9.591  70.943  1.00  0.00    -0.307 N  
HETATM   20  O   UNL     1     -11.586  10.515  68.802  1.00  0.00    -0.252 OA 
HETATM   21  C   UNL     1     -11.700  10.591  70.020  1.00  0.00    -0.312 C  
HETATM   22  H   UNL     1     -11.635   9.793  71.922  1.00  0.00     0.000 HD 
BRANCH  21  23
HETATM   23  C   UNL     1     -12.122  11.902  70.574  1.00  0.00    -0.422 A  
HETATM   24  C   UNL     1     -11.627  13.059  69.955  1.00  0.00    -0.249 A  
HETATM   25  C   UNL     1     -12.004  14.327  70.405  1.00  0.00    -0.402 A  
HETATM   26  C   UNL     1     -13.016  12.012  71.640  1.00  0.00    -0.439 A  
HETATM   27  C   UNL     1     -12.889  14.444  71.491  1.00  0.00    -0.411 A  
HETATM   28  C   UNL     1     -13.394  13.276  72.094  1.00  0.00    -0.618 A  
HETATM   29  C   UNL     1     -13.348  15.768  72.040  1.00  0.00    -0.467 C  
BRANCH  25  30
HETATM   30  C   UNL     1     -11.442  15.475  69.750  1.00  0.00    -0.339 C  
HETATM   31  C   UNL     1     -10.928  16.423  69.221  1.00  0.00    -0.322 C  
BRANCH  31  32
HETATM   32  C   UNL     1     -10.230  17.536  68.680  1.00  0.00    -0.373 A  
HETATM   33  C   UNL     1     -10.389  18.860  69.023  1.00  0.00     0.015 A  
HETATM   34  N   UNL     1      -9.544  19.672  68.306  1.00  0.00    -0.368 NA 
HETATM   35  C   UNL     1      -8.868  18.850  67.530  1.00  0.00    -0.278 A  
HETATM   36  C   UNL     1      -7.858  19.112  66.578  1.00  0.00    -0.288 A  
HETATM   37  C   UNL     1      -7.314  18.093  65.903  1.00  0.00    -0.240 A  
HETATM   38  C   UNL     1      -7.822  16.731  66.208  1.00  0.00    -0.299 A  
HETATM   39  N   UNL     1      -8.741  16.430  67.067  1.00  0.00    -0.188 NA 
HETATM   40  N   UNL     1      -9.249  17.527  67.716  1.00  0.00    -0.250 NA 
ENDBRANCH  31  32
ENDBRANCH  25  30
ENDBRANCH  21  23
ENDBRANCH  12  19
ENDBRANCH   8   9
ENDBRANCH   5   8
TORSDOF 6
ENDMDL
MODEL       29
REMARK 921   NORMALIZED FREE ENERGY PREDICTED BY IDOCK:   -6.34 KCAL/MOL
REMARK 922        TOTAL FREE ENERGY PREDICTED BY IDOCK:   -9.88 KCAL/MOL
REMARK 923 INTER-LIGAND FREE ENERGY PREDICTED BY IDOCK:   -9.13 KCAL/MOL
REMARK 924 INTRA-LIGAND FREE ENERGY PREDICTED BY IDOCK:   -0.75 KCAL/MOL
REMARK 927      BINDING AFFINITY PREDICTED BY RF-SCORE:    0.00 PKD
ROOT
HETATM    1  C   UNL     1      -7.538   1.702  68.934  1.00  0.00    -0.042 C  
HETATM    2  N   UNL     1      -7.016   3.058  69.098  1.00  0.00    -0.041 NA 
HETATM    3  C   UNL     1      -7.872   4.043  68.404  1.00  0.00    -0.069 C  
HETATM    4  C   UNL     1      -9.195   4.382  69.131  1.00  0.00    -0.140 C  
HETATM    5  N   UNL     1      -9.035   4.778  70.544  1.00  0.00    -0.113 NA 
HETATM    6  C   UNL     1      -6.894   3.400  70.529  1.00  0.00    -0.033 C  
HETATM    7  C   UNL     1      -8.233   3.741  71.233  1.00  0.00    -0.071 C  
ENDROOT
BRANCH   5   8
HETATM    8  C   UNL     1      -8.383   6.082  70.717  1.00  0.00    -0.126 C  
BRANCH   8   9
HETATM    9  C   UNL     1      -8.974   7.195  69.883  1.00  0.00    -0.142 A  
HETATM   10  C   UNL     1      -8.213   7.644  68.793  1.00  0.00    -0.128 A  
HETATM   11  C   UNL     1      -8.613   8.737  68.032  1.00  0.00    -0.134 A  
HETATM   12  C   UNL     1      -9.783   9.422  68.340  1.00  0.00    -0.149 A  
HETATM   13  C   UNL     1     -10.591   8.932  69.374  1.00  0.00    -0.226 A  
HETATM   14  F   UNL     1     -12.351   7.002  70.819  1.00  0.00    -0.384 F  
HETATM   15  C   UNL     1     -10.203   7.821  70.165  1.00  0.00    -0.205 A  
HETATM   16  F   UNL     1     -10.708   6.434  72.125  1.00  0.00    -0.227 F  
HETATM   17  C   UNL     1     -11.137   7.412  71.288  1.00  0.00    -0.246 C  
HETATM   18  F   UNL     1     -11.412   8.472  72.108  1.00  0.00    -0.347 F  
BRANCH  12  19
HETATM   19  N   UNL     1     -10.171  10.616  67.689  1.00  0.00    -0.186 N  
HETATM   20  O   UNL     1     -10.189   9.913  65.460  1.00  0.00    -0.273 OA 
HETATM   21  C   UNL     1     -10.311  10.779  66.319  1.00  0.00    -0.244 C  
HETATM   22  H   UNL     1     -10.364  11.427  68.277  1.00  0.00     0.000 HD 
BRANCH  21  23
HETATM   23  C   UNL     1     -10.592  12.158  65.845  1.00  0.00    -0.293 A  
HETATM   24  C   UNL     1      -9.757  13.187  66.305  1.00  0.00    -0.269 A  
HETATM   25  C   UNL     1      -9.946  14.504  65.880  1.00  0.00    -0.352 A  
HETATM   26  C   UNL     1     -11.613  12.445  64.938  1.00  0.00    -0.392 A  
HETATM   27  C   UNL     1     -10.984  14.802  64.981  1.00  0.00    -0.426 A  
HETATM   28  C   UNL     1     -11.805  13.760  64.511  1.00  0.00    -0.445 A  
HETATM   29  C   UNL     1     -11.258  16.191  64.470  1.00  0.00    -0.275 C  
BRANCH  25  30
HETATM   30  C   UNL     1      -9.077  15.518  66.408  1.00  0.00    -0.351 C  
HETATM   31  C   UNL     1      -8.380  16.370  66.889  1.00  0.00    -0.263 C  
BRANCH  31  32
HETATM   32  C   UNL     1      -7.656  17.416  67.524  1.00  0.00    -0.187 A  
HETATM   33  C   UNL     1      -7.203  17.439  68.824  1.00  0.00    -0.249 A  
HETATM   34  N   UNL     1      -6.532  18.605  69.104  1.00  0.00    -0.263 NA 
HETATM   35  C   UNL     1      -6.570  19.291  67.980  1.00  0.00    -0.234 A  
HETATM   36  C   UNL     1      -6.044  20.563  67.666  1.00  0.00    -0.290 A  
HETATM   37  C   UNL     1      -6.214  21.056  66.434  1.00  0.00    -0.330 A  
HETATM   38  C   UNL     1      -6.962  20.216  65.465  1.00  0.00    -0.304 A  
HETATM   39  N   UNL     1      -7.465  19.046  65.694  1.00  0.00    -0.479 NA 
HETATM   40  N   UNL     1      -7.249  18.610  66.976  1.00  0.00    -0.204 NA 
ENDBRANCH  31  32
ENDBRANCH  25  30
ENDBRANCH  21  23
ENDBRANCH  12  19
ENDBRANCH   8   9
ENDBRANCH   5   8
TORSDOF 6
ENDMDL
MODEL       30
REMARK 921   NORMALIZED FREE ENERGY PREDICTED BY IDOCK:   -6.18 KCAL/MOL
REMARK 922        TOTAL FREE ENERGY PREDICTED BY IDOCK:   -9.66 KCAL/MOL
REMARK 923 INTER-LIGAND FREE ENERGY PREDICTED BY IDOCK:   -8.45 KCAL/MOL
REMARK 924 INTRA-LIGAND FREE ENERGY PREDICTED BY IDOCK:   -1.21 KCAL/MOL
REMARK 927      BINDING AFFINITY PREDICTED BY RF-SCORE:    0.00 PKD
ROOT
HETATM    1  C   UNL     1     -12.858  16.050  74.368  1.00  0.00    -0.145 C  
HETATM    2  N   UNL     1     -13.129  16.336  72.959  1.00  0.00    -0.357 NA 
HETATM    3  C   UNL     1     -11.872  16.442  72.189  1.00  0.00    -0.418 C  
HETATM    4  C   UNL     1     -11.191  15.092  71.863  1.00  0.00    -0.192 C  
HETATM    5  N   UNL     1     -12.075  14.096  71.226  1.00  0.00    -0.337 NA 
HETATM    6  C   UNL     1     -14.003  15.298  72.376  1.00  0.00    -0.543 C  
HETATM    7  C   UNL     1     -13.295  13.956  72.054  1.00  0.00    -0.435 C  
ENDROOT
BRANCH   5   8
HETATM    8  C   UNL     1     -12.464  14.448  69.855  1.00  0.00    -0.261 C  
BRANCH   8   9
HETATM    9  C   UNL     1     -11.795  13.622  68.781  1.00  0.00    -0.395 A  
HETATM   10  C   UNL     1     -11.970  12.231  68.850  1.00  0.00    -0.300 A  
HETATM   11  C   UNL     1     -11.305  11.374  67.980  1.00  0.00    -0.372 A  
HETATM   12  C   UNL     1     -10.438  11.878  67.017  1.00  0.00    -0.224 A  
HETATM   13  C   UNL     1     -10.320  13.268  66.887  1.00  0.00    -0.255 A  
HETATM   14  F   UNL     1     -11.193  16.069  66.340  1.00  0.00    -0.212 F  
HETATM   15  C   UNL     1     -10.986  14.161  67.764  1.00  0.00    -0.274 A  
HETATM   16  F   UNL     1     -11.274  16.493  68.471  1.00  0.00    -0.334 F  
HETATM   17  C   UNL     1     -10.743  15.644  67.556  1.00  0.00    -0.303 C  
HETATM   18  F   UNL     1      -9.405  15.927  67.559  1.00  0.00    -0.209 F  
BRANCH  12  19
HETATM   19  N   UNL     1      -9.636  11.053  66.195  1.00  0.00    -0.200 N  
HETATM   20  O   UNL     1     -10.743  11.264  64.148  1.00  0.00    -0.348 OA 
HETATM   21  C   UNL     1      -9.862  10.786  64.853  1.00  0.00    -0.292 C  
HETATM   22  H   UNL     1      -8.821  10.617  66.626  1.00  0.00     0.000 HD 
BRANCH  21  23
HETATM   23  C   UNL     1      -8.971   9.780  64.223  1.00  0.00    -0.276 A  
HETATM   24  C   UNL     1      -8.841   8.537  64.859  1.00  0.00    -0.029 A  
HETATM   25  C   UNL     1      -8.041   7.533  64.307  1.00  0.00    -0.064 A  
HETATM   26  C   UNL     1      -8.310  10.015  63.016  1.00  0.00    -0.166 A  
HETATM   27  C   UNL     1      -7.359   7.770  63.102  1.00  0.00    -0.104 A  
HETATM   28  C   UNL     1      -7.510   9.016  62.463  1.00  0.00    -0.102 A  
HETATM   29  C   UNL     1      -6.478   6.747  62.438  1.00  0.00    -0.043 C  
BRANCH  25  30
HETATM   30  C   UNL     1      -7.924   6.291  65.019  1.00  0.00    -0.120 C  
HETATM   31  C   UNL     1      -7.876   5.249  65.616  1.00  0.00    -0.100 C  
BRANCH  31  32
HETATM   32  C   UNL     1      -7.935   4.040  66.361  1.00  0.00    -0.097 A  
HETATM   33  C   UNL     1      -7.444   2.810  65.986  1.00  0.00    -0.072 A  
HETATM   34  N   UNL     1      -7.668   1.861  66.953  1.00  0.00    -0.065 NA 
HETATM   35  C   UNL     1      -8.290   2.506  67.918  1.00  0.00    -0.076 A  
HETATM   36  C   UNL     1      -8.768   2.049  69.166  1.00  0.00    -0.122 A  
HETATM   37  C   UNL     1      -9.376   2.910  69.990  1.00  0.00    -0.212 A  
HETATM   38  C   UNL     1      -9.511   4.314  69.524  1.00  0.00    -0.187 A  
HETATM   39  N   UNL     1      -9.093   4.790  68.396  1.00  0.00    -0.112 NA 
HETATM   40  N   UNL     1      -8.482   3.848  67.609  1.00  0.00    -0.094 NA 
ENDBRANCH  31  32
ENDBRANCH  25  30
ENDBRANCH  21  23
ENDBRANCH  12  19
ENDBRANCH   8   9
ENDBRANCH   5   8
TORSDOF 6
ENDMDL
MODEL       31
REMARK 921   NORMALIZED FREE ENERGY PREDICTED BY IDOCK:   -5.92 KCAL/MOL
REMARK 922        TOTAL FREE ENERGY PREDICTED BY IDOCK:   -9.30 KCAL/MOL
REMARK 923 INTER-LIGAND FREE ENERGY PREDICTED BY IDOCK:   -8.42 KCAL/MOL
REMARK 924 INTRA-LIGAND FREE ENERGY PREDICTED BY IDOCK:   -0.88 KCAL/MOL
REMARK 927      BINDING AFFINITY PREDICTED BY RF-SCORE:    0.00 PKD
ROOT
HETATM    1  C   UNL     1      -9.517   2.824  62.367  1.00  0.00    -0.089 C  
HETATM    2  N   UNL     1      -9.930   2.585  63.749  1.00  0.00    -0.143 NA 
HETATM    3  C   UNL     1      -8.834   1.977  64.533  1.00  0.00    -0.106 C  
HETATM    4  C   UNL     1      -7.715   2.957  64.957  1.00  0.00    -0.081 C  
HETATM    5  N   UNL     1      -8.193   4.175  65.641  1.00  0.00    -0.108 NA 
HETATM    6  C   UNL     1     -10.381   3.840  64.383  1.00  0.00    -0.227 C  
HETATM    7  C   UNL     1      -9.240   4.804  64.803  1.00  0.00    -0.097 C  
ENDROOT
BRANCH   5   8
HETATM    8  C   UNL     1      -8.738   3.920  66.979  1.00  0.00    -0.111 C  
BRANCH   8   9
HETATM    9  C   UNL     1      -9.204   5.156  67.713  1.00  0.00    -0.125 A  
HETATM   10  C   UNL     1     -10.590   5.371  67.776  1.00  0.00    -0.172 A  
HETATM   11  C   UNL     1     -11.117   6.534  68.328  1.00  0.00    -0.332 A  
HETATM   12  C   UNL     1     -10.277   7.522  68.828  1.00  0.00    -0.197 A  
HETATM   13  C   UNL     1      -8.897   7.281  68.845  1.00  0.00    -0.127 A  
HETATM   14  F   UNL     1      -6.345   5.928  69.595  1.00  0.00    -0.033 F  
HETATM   15  C   UNL     1      -8.336   6.104  68.286  1.00  0.00    -0.114 A  
HETATM   16  F   UNL     1      -6.280   4.915  67.672  1.00  0.00    -0.032 F  
HETATM   17  C   UNL     1      -6.826   5.976  68.319  1.00  0.00    -0.070 C  
HETATM   18  F   UNL     1      -6.227   7.069  67.754  1.00  0.00    -0.034 F  
BRANCH  12  19
HETATM   19  N   UNL     1     -10.747   8.778  69.278  1.00  0.00    -0.356 N  
HETATM   20  O   UNL     1     -11.080   9.876  67.243  1.00  0.00    -0.208 OA 
HETATM   21  C   UNL     1     -11.078   9.854  68.468  1.00  0.00    -0.129 C  
HETATM   22  H   UNL     1     -10.853   8.903  70.285  1.00  0.00     0.000 HD 
BRANCH  21  23
HETATM   23  C   UNL     1     -11.417  11.122  69.163  1.00  0.00    -0.366 A  
HETATM   24  C   UNL     1     -10.684  12.267  68.819  1.00  0.00    -0.247 A  
HETATM   25  C   UNL     1     -10.968  13.500  69.412  1.00  0.00    -0.101 A  
HETATM   26  C   UNL     1     -12.453  11.212  70.094  1.00  0.00    -0.316 A  
HETATM   27  C   UNL     1     -11.997  13.594  70.364  1.00  0.00    -0.372 A  
HETATM   28  C   UNL     1     -12.738  12.441  70.689  1.00  0.00    -0.131 A  
HETATM   29  C   UNL     1     -12.370  14.880  71.051  1.00  0.00    -0.388 C  
BRANCH  25  30
HETATM   30  C   UNL     1     -10.165  14.632  69.041  1.00  0.00    -0.222 C  
HETATM   31  C   UNL     1      -9.515  15.604  68.767  1.00  0.00    -0.214 C  
BRANCH  31  32
HETATM   32  C   UNL     1      -8.834  16.823  68.499  1.00  0.00    -0.248 A  
HETATM   33  C   UNL     1      -7.501  17.092  68.713  1.00  0.00    -0.242 A  
HETATM   34  N   UNL     1      -7.178  18.372  68.334  1.00  0.00    -0.259 NA 
HETATM   35  C   UNL     1      -8.306  18.884  67.887  1.00  0.00    -0.281 A  
HETATM   36  C   UNL     1      -8.586  20.166  67.364  1.00  0.00    -0.413 A  
HETATM   37  C   UNL     1      -9.831  20.454  66.969  1.00  0.00    -0.594 A  
HETATM   38  C   UNL     1     -10.852  19.386  67.114  1.00  0.00    -0.450 A  
HETATM   39  N   UNL     1     -10.656  18.197  67.584  1.00  0.00    -0.420 NA 
HETATM   40  N   UNL     1      -9.357  17.978  67.966  1.00  0.00    -0.265 NA 
ENDBRANCH  31  32
ENDBRANCH  25  30
ENDBRANCH  21  23
ENDBRANCH  12  19
ENDBRANCH   8   9
ENDBRANCH   5   8
TORSDOF 6
ENDMDL
MODEL       32
REMARK 921   NORMALIZED FREE ENERGY PREDICTED BY IDOCK:   -5.79 KCAL/MOL
REMARK 922        TOTAL FREE ENERGY PREDICTED BY IDOCK:   -9.13 KCAL/MOL
REMARK 923 INTER-LIGAND FREE ENERGY PREDICTED BY IDOCK:   -7.99 KCAL/MOL
REMARK 924 INTRA-LIGAND FREE ENERGY PREDICTED BY IDOCK:   -1.14 KCAL/MOL
REMARK 927      BINDING AFFINITY PREDICTED BY RF-SCORE:    0.00 PKD
ROOT
HETATM    1  C   UNL     1      -9.872  19.394  69.033  1.00  0.00    -0.419 C  
HETATM    2  N   UNL     1     -10.321  18.411  68.048  1.00  0.00    -0.382 NA 
HETATM    3  C   UNL     1      -9.335  18.265  66.957  1.00  0.00    -0.274 C  
HETATM    4  C   UNL     1      -8.079  17.439  67.321  1.00  0.00    -0.201 C  
HETATM    5  N   UNL     1      -8.363  16.115  67.908  1.00  0.00    -0.160 NA 
HETATM    6  C   UNL     1     -10.573  17.106  68.692  1.00  0.00    -0.352 C  
HETATM    7  C   UNL     1      -9.298  16.296  69.043  1.00  0.00    -0.254 C  
ENDROOT
BRANCH   5   8
HETATM    8  C   UNL     1      -8.945  15.163  66.954  1.00  0.00    -0.252 C  
BRANCH   8   9
HETATM    9  C   UNL     1      -9.165  13.774  67.508  1.00  0.00    -0.216 A  
HETATM   10  C   UNL     1      -8.018  13.027  67.821  1.00  0.00    -0.164 A  
HETATM   11  C   UNL     1      -8.109  11.701  68.228  1.00  0.00    -0.150 A  
HETATM   12  C   UNL     1      -9.346  11.075  68.328  1.00  0.00    -0.172 A  
HETATM   13  C   UNL     1     -10.500  11.835  68.097  1.00  0.00    -0.221 A  
HETATM   14  F   UNL     1     -12.512  13.994  68.539  1.00  0.00    -0.350 F  
HETATM   15  C   UNL     1     -10.433  13.188  67.679  1.00  0.00    -0.225 A  
HETATM   16  F   UNL     1     -11.685  15.145  66.890  1.00  0.00    -0.331 F  
HETATM   17  C   UNL     1     -11.748  13.895  67.413  1.00  0.00    -0.389 C  
HETATM   18  F   UNL     1     -12.514  13.189  66.526  1.00  0.00    -0.408 F  
BRANCH  12  19
HETATM   19  N   UNL     1      -9.491   9.696  68.606  1.00  0.00    -0.144 N  
HETATM   20  O   UNL     1      -9.240   9.689  70.929  1.00  0.00    -0.167 OA 
HETATM   21  C   UNL     1      -9.397   9.111  69.861  1.00  0.00    -0.186 C  
HETATM   22  H   UNL     1      -9.681   9.078  67.817  1.00  0.00     0.000 HD 
BRANCH  21  23
HETATM   23  C   UNL     1      -9.444   7.628  69.901  1.00  0.00    -0.160 A  
HETATM   24  C   UNL     1      -9.537   6.947  68.679  1.00  0.00    -0.133 A  
HETATM   25  C   UNL     1      -9.558   5.550  68.639  1.00  0.00    -0.172 A  
HETATM   26  C   UNL     1      -9.354   6.907  71.093  1.00  0.00    -0.162 A  
HETATM   27  C   UNL     1      -9.486   4.820  69.837  1.00  0.00    -0.231 A  
HETATM   28  C   UNL     1      -9.376   5.513  71.058  1.00  0.00    -0.186 A  
HETATM   29  C   UNL     1      -9.501   3.316  69.887  1.00  0.00    -0.216 C  
BRANCH  25  30
HETATM   30  C   UNL     1      -9.683   4.910  67.360  1.00  0.00    -0.195 C  
HETATM   31  C   UNL     1      -9.740   4.359  66.294  1.00  0.00    -0.224 C  
BRANCH  31  32
HETATM   32  C   UNL     1      -9.684   3.718  65.026  1.00  0.00    -0.183 A  
HETATM   33  C   UNL     1     -10.689   3.645  64.088  1.00  0.00    -0.210 A  
HETATM   34  N   UNL     1     -10.287   2.953  62.971  1.00  0.00    -0.140 NA 
HETATM   35  C   UNL     1      -9.042   2.606  63.222  1.00  0.00    -0.091 A  
HETATM   36  C   UNL     1      -8.117   1.882  62.438  1.00  0.00    -0.062 A  
HETATM   37  C   UNL     1      -6.890   1.652  62.917  1.00  0.00    -0.022 A  
HETATM   38  C   UNL     1      -6.580   2.185  64.268  1.00  0.00    -0.026 A  
HETATM   39  N   UNL     1      -7.382   2.854  65.031  1.00  0.00    -0.066 NA 
HETATM   40  N   UNL     1      -8.619   3.048  64.470  1.00  0.00    -0.094 NA 
ENDBRANCH  31  32
ENDBRANCH  25  30
ENDBRANCH  21  23
ENDBRANCH  12  19
ENDBRANCH   8   9
ENDBRANCH   5   8
TORSDOF 6
ENDMDL
MODEL       33
REMARK 921   NORMALIZED FREE ENERGY PREDICTED BY IDOCK:   -5.68 KCAL/MOL
REMARK 922        TOTAL FREE ENERGY PREDICTED BY IDOCK:   -8.99 KCAL/MOL
REMARK 923 INTER-LIGAND FREE ENERGY PREDICTED BY IDOCK:   -7.73 KCAL/MOL
REMARK 924 INTRA-LIGAND FREE ENERGY PREDICTED BY IDOCK:   -1.26 KCAL/MOL
REMARK 927      BINDING AFFINITY PREDICTED BY RF-SCORE:    0.00 PKD
ROOT
HETATM    1  C   UNL     1      -8.417  20.391  65.971  1.00  0.00     0.081 C  
HETATM    2  N   UNL     1      -8.298  19.574  67.178  1.00  0.00    -0.281 NA 
HETATM    3  C   UNL     1      -9.503  19.701  68.025  1.00  0.00    -0.354 C  
HETATM    4  C   UNL     1     -10.738  18.916  67.523  1.00  0.00    -0.434 C  
HETATM    5  N   UNL     1     -10.485  17.490  67.238  1.00  0.00    -0.342 NA 
HETATM    6  C   UNL     1      -8.063  18.159  66.828  1.00  0.00    -0.246 C  
HETATM    7  C   UNL     1      -9.317  17.393  66.332  1.00  0.00    -0.252 C  
ENDROOT
BRANCH   5   8
HETATM    8  C   UNL     1     -10.227  16.689  68.441  1.00  0.00    -0.284 C  
BRANCH   8   9
HETATM    9  C   UNL     1      -9.900  15.239  68.170  1.00  0.00    -0.217 A  
HETATM   10  C   UNL     1     -10.891  14.473  67.535  1.00  0.00    -0.289 A  
HETATM   11  C   UNL     1     -10.735  13.104  67.344  1.00  0.00    -0.262 A  
HETATM   12  C   UNL     1      -9.588  12.455  67.787  1.00  0.00    -0.202 A  
HETATM   13  C   UNL     1      -8.559  13.223  68.348  1.00  0.00    -0.130 A  
HETATM   14  F   UNL     1      -6.403  15.284  68.454  1.00  0.00    -0.092 F  
HETATM   15  C   UNL     1      -8.696  14.619  68.555  1.00  0.00    -0.176 A  
HETATM   16  F   UNL     1      -7.713  16.645  69.531  1.00  0.00    -0.225 F  
HETATM   17  C   UNL     1      -7.534  15.337  69.214  1.00  0.00    -0.200 C  
HETATM   18  F   UNL     1      -7.196  14.739  70.398  1.00  0.00    -0.119 F  
BRANCH  12  19
HETATM   19  N   UNL     1      -9.432  11.050  67.741  1.00  0.00    -0.160 N  
HETATM   20  O   UNL     1      -8.657  10.768  65.555  1.00  0.00    -0.182 OA 
HETATM   21  C   UNL     1      -9.016  10.320  66.637  1.00  0.00    -0.140 C  
HETATM   22  H   UNL     1      -9.643  10.529  68.592  1.00  0.00     0.000 HD 
BRANCH  21  23
HETATM   23  C   UNL     1      -9.058   8.842  66.771  1.00  0.00    -0.180 A  
HETATM   24  C   UNL     1      -9.393   8.312  68.026  1.00  0.00    -0.141 A  
HETATM   25  C   UNL     1      -9.478   6.931  68.218  1.00  0.00    -0.126 A  
HETATM   26  C   UNL     1      -8.823   7.985  65.695  1.00  0.00    -0.133 A  
HETATM   27  C   UNL     1      -9.225   6.062  67.143  1.00  0.00    -0.117 A  
HETATM   28  C   UNL     1      -8.906   6.605  65.883  1.00  0.00    -0.126 A  
HETATM   29  C   UNL     1      -9.295   4.564  67.260  1.00  0.00    -0.165 C  
BRANCH  25  30
HETATM   30  C   UNL     1      -9.797   6.447  69.532  1.00  0.00    -0.176 C  
HETATM   31  C   UNL     1     -10.047   5.999  70.618  1.00  0.00    -0.246 C  
BRANCH  31  32
HETATM   32  C   UNL     1     -10.343   5.354  71.850  1.00  0.00    -0.212 A  
HETATM   33  C   UNL     1     -10.861   5.935  72.986  1.00  0.00    -0.267 A  
HETATM   34  N   UNL     1     -11.028   5.015  73.992  1.00  0.00    -0.284 NA 
HETATM   35  C   UNL     1     -10.619   3.875  73.474  1.00  0.00    -0.200 A  
HETATM   36  C   UNL     1     -10.560   2.582  74.039  1.00  0.00    -0.238 A  
HETATM   37  C   UNL     1     -10.099   1.566  73.301  1.00  0.00    -0.151 A  
HETATM   38  C   UNL     1      -9.670   1.876  71.914  1.00  0.00    -0.132 A  
HETATM   39  N   UNL     1      -9.701   3.036  71.343  1.00  0.00    -0.157 NA 
HETATM   40  N   UNL     1     -10.186   4.024  72.162  1.00  0.00    -0.170 NA 
ENDBRANCH  31  32
ENDBRANCH  25  30
ENDBRANCH  21  23
ENDBRANCH  12  19
ENDBRANCH   8   9
ENDBRANCH   5   8
TORSDOF 6
ENDMDL
MODEL       34
REMARK 921   NORMALIZED FREE ENERGY PREDICTED BY IDOCK:   -5.66 KCAL/MOL
REMARK 922        TOTAL FREE ENERGY PREDICTED BY IDOCK:   -8.96 KCAL/MOL
REMARK 923 INTER-LIGAND FREE ENERGY PREDICTED BY IDOCK:   -7.85 KCAL/MOL
REMARK 924 INTRA-LIGAND FREE ENERGY PREDICTED BY IDOCK:   -1.11 KCAL/MOL
REMARK 927      BINDING AFFINITY PREDICTED BY RF-SCORE:    0.00 PKD
ROOT
HETATM    1  C   UNL     1      -9.567   3.143  74.311  1.00  0.00    -0.092 C  
HETATM    2  N   UNL     1      -9.393   3.373  72.877  1.00  0.00    -0.095 NA 
HETATM    3  C   UNL     1     -10.399   4.329  72.367  1.00  0.00    -0.160 C  
HETATM    4  C   UNL     1     -10.126   5.811  72.715  1.00  0.00    -0.179 C  
HETATM    5  N   UNL     1      -8.773   6.285  72.362  1.00  0.00    -0.122 NA 
HETATM    6  C   UNL     1      -8.029   3.862  72.589  1.00  0.00    -0.082 C  
HETATM    7  C   UNL     1      -7.782   5.351  72.944  1.00  0.00    -0.098 C  
ENDROOT
BRANCH   5   8
HETATM    8  C   UNL     1      -8.547   6.386  70.915  1.00  0.00    -0.135 C  
BRANCH   8   9
HETATM    9  C   UNL     1      -8.880   7.735  70.320  1.00  0.00    -0.144 A  
HETATM   10  C   UNL     1     -10.181   7.904  69.821  1.00  0.00    -0.212 A  
HETATM   11  C   UNL     1     -10.554   9.065  69.153  1.00  0.00    -0.219 A  
HETATM   12  C   UNL     1      -9.638  10.091  68.954  1.00  0.00    -0.181 A  
HETATM   13  C   UNL     1      -8.362   9.966  69.519  1.00  0.00    -0.174 A  
HETATM   14  F   UNL     1      -6.317   9.710  71.677  1.00  0.00    -0.055 F  
HETATM   15  C   UNL     1      -7.958   8.792  70.203  1.00  0.00    -0.107 A  
HETATM   16  F   UNL     1      -6.108   7.584  71.269  1.00  0.00    -0.035 F  
HETATM   17  C   UNL     1      -6.537   8.753  70.730  1.00  0.00    -0.050 C  
HETATM   18  F   UNL     1      -5.637   9.024  69.735  1.00  0.00    -0.032 F  
BRANCH  12  19
HETATM   19  N   UNL     1      -9.919  11.234  68.169  1.00  0.00    -0.176 N  
HETATM   20  O   UNL     1     -11.374  12.391  69.584  1.00  0.00    -0.217 OA 
HETATM   21  C   UNL     1     -10.776  12.265  68.522  1.00  0.00    -0.237 C  
HETATM   22  H   UNL     1      -9.451  11.305  67.265  1.00  0.00     0.000 HD 
BRANCH  21  23
HETATM   23  C   UNL     1     -11.029  13.296  67.484  1.00  0.00    -0.281 A  
HETATM   24  C   UNL     1     -10.358  14.521  67.607  1.00  0.00    -0.237 A  
HETATM   25  C   UNL     1     -10.526  15.526  66.652  1.00  0.00    -0.299 A  
HETATM   26  C   UNL     1     -11.862  13.067  66.387  1.00  0.00    -0.465 A  
HETATM   27  C   UNL     1     -11.378  15.309  65.556  1.00  0.00    -0.220 A  
HETATM   28  C   UNL     1     -12.034  14.069  65.432  1.00  0.00    -0.386 A  
HETATM   29  C   UNL     1     -11.617  16.335  64.481  1.00  0.00    -0.091 C  
BRANCH  25  30
HETATM   30  C   UNL     1      -9.835  16.770  66.847  1.00  0.00    -0.269 C  
HETATM   31  C   UNL     1      -9.214  17.787  66.997  1.00  0.00    -0.257 C  
BRANCH  31  32
HETATM   32  C   UNL     1      -8.378  18.920  67.191  1.00  0.00    -0.274 A  
HETATM   33  C   UNL     1      -8.423  20.112  66.503  1.00  0.00    -0.258 A  
HETATM   34  N   UNL     1      -7.471  20.992  66.956  1.00  0.00    -0.293 NA 
HETATM   35  C   UNL     1      -6.848  20.346  67.919  1.00  0.00    -0.301 A  
HETATM   36  C   UNL     1      -5.779  20.748  68.750  1.00  0.00    -0.398 A  
HETATM   37  C   UNL     1      -5.311  19.900  69.672  1.00  0.00    -0.241 A  
HETATM   38  C   UNL     1      -5.958  18.566  69.757  1.00  0.00    -0.245 A  
HETATM   39  N   UNL     1      -6.938  18.142  69.026  1.00  0.00    -0.271 NA 
HETATM   40  N   UNL     1      -7.361  19.068  68.107  1.00  0.00    -0.260 NA 
ENDBRANCH  31  32
ENDBRANCH  25  30
ENDBRANCH  21  23
ENDBRANCH  12  19
ENDBRANCH   8   9
ENDBRANCH   5   8
TORSDOF 6
ENDMDL
MODEL       35
REMARK 921   NORMALIZED FREE ENERGY PREDICTED BY IDOCK:   -5.51 KCAL/MOL
REMARK 922        TOTAL FREE ENERGY PREDICTED BY IDOCK:   -8.75 KCAL/MOL
REMARK 923 INTER-LIGAND FREE ENERGY PREDICTED BY IDOCK:   -7.99 KCAL/MOL
REMARK 924 INTRA-LIGAND FREE ENERGY PREDICTED BY IDOCK:   -0.77 KCAL/MOL
REMARK 927      BINDING AFFINITY PREDICTED BY RF-SCORE:    0.00 PKD
ROOT
HETATM    1  C   UNL     1      -6.013  21.108  64.768  1.00  0.00    -0.182 C  
HETATM    2  N   UNL     1      -5.907  20.626  66.144  1.00  0.00    -0.192 NA 
HETATM    3  C   UNL     1      -7.171  20.841  66.880  1.00  0.00    -0.276 C  
HETATM    4  C   UNL     1      -8.303  19.844  66.536  1.00  0.00    -0.336 C  
HETATM    5  N   UNL     1      -7.917  18.422  66.626  1.00  0.00    -0.249 NA 
HETATM    6  C   UNL     1      -5.535  19.197  66.169  1.00  0.00    -0.155 C  
HETATM    7  C   UNL     1      -6.689  18.218  65.825  1.00  0.00    -0.282 C  
ENDROOT
BRANCH   5   8
HETATM    8  C   UNL     1      -7.674  17.967  68.001  1.00  0.00    -0.245 C  
BRANCH   8   9
HETATM    9  C   UNL     1      -8.060  16.529  68.263  1.00  0.00    -0.179 A  
HETATM   10  C   UNL     1      -7.065  15.559  68.064  1.00  0.00    -0.136 A  
HETATM   11  C   UNL     1      -7.348  14.202  68.167  1.00  0.00    -0.130 A  
HETATM   12  C   UNL     1      -8.635  13.768  68.466  1.00  0.00    -0.122 A  
HETATM   13  C   UNL     1      -9.615  14.729  68.748  1.00  0.00    -0.215 A  
HETATM   14  F   UNL     1     -10.943  16.962  70.215  1.00  0.00    -0.328 F  
HETATM   15  C   UNL     1      -9.351  16.119  68.646  1.00  0.00    -0.222 A  
HETATM   16  F   UNL     1     -10.289  18.385  68.707  1.00  0.00    -0.366 F  
HETATM   17  C   UNL     1     -10.503  17.063  68.928  1.00  0.00    -0.347 C  
HETATM   18  F   UNL     1     -11.590  16.756  68.156  1.00  0.00    -0.253 F  
BRANCH  12  19
HETATM   19  N   UNL     1      -9.011  12.405  68.453  1.00  0.00    -0.306 N  
HETATM   20  O   UNL     1      -7.679  11.599  66.711  1.00  0.00    -0.156 OA 
HETATM   21  C   UNL     1      -8.538  11.445  67.571  1.00  0.00    -0.137 C  
HETATM   22  H   UNL     1      -9.688  12.102  69.153  1.00  0.00     0.000 HD 
BRANCH  21  23
HETATM   23  C   UNL     1      -9.175  10.106  67.651  1.00  0.00    -0.151 A  
HETATM   24  C   UNL     1      -8.868   9.305  68.760  1.00  0.00    -0.132 A  
HETATM   25  C   UNL     1      -9.452   8.045  68.915  1.00  0.00    -0.151 A  
HETATM   26  C   UNL     1     -10.088   9.653  66.697  1.00  0.00    -0.307 A  
HETATM   27  C   UNL     1     -10.358   7.575  67.948  1.00  0.00    -0.266 A  
HETATM   28  C   UNL     1     -10.672   8.395  66.847  1.00  0.00    -0.163 A  
HETATM   29  C   UNL     1     -11.033   6.234  68.036  1.00  0.00    -0.418 C  
BRANCH  25  30
HETATM   30  C   UNL     1      -9.077   7.259  70.057  1.00  0.00    -0.148 C  
HETATM   31  C   UNL     1      -8.762   6.562  70.982  1.00  0.00    -0.138 C  
BRANCH  31  32
HETATM   32  C   UNL     1      -8.432   5.639  72.013  1.00  0.00    -0.126 A  
HETATM   33  C   UNL     1      -7.172   5.311  72.459  1.00  0.00    -0.092 A  
HETATM   34  N   UNL     1      -7.222   4.387  73.475  1.00  0.00    -0.073 NA 
HETATM   35  C   UNL     1      -8.506   4.153  73.652  1.00  0.00    -0.092 A  
HETATM   36  C   UNL     1      -9.163   3.294  74.560  1.00  0.00    -0.109 A  
HETATM   37  C   UNL     1     -10.499   3.228  74.549  1.00  0.00    -0.224 A  
HETATM   38  C   UNL     1     -11.211   4.077  73.561  1.00  0.00    -0.232 A  
HETATM   39  N   UNL     1     -10.666   4.881  72.707  1.00  0.00    -0.218 NA 
HETATM   40  N   UNL     1      -9.296   4.893  72.781  1.00  0.00    -0.131 NA 
ENDBRANCH  31  32
ENDBRANCH  25  30
ENDBRANCH  21  23
ENDBRANCH  12  19
ENDBRANCH   8   9
ENDBRANCH   5   8
TORSDOF 6
ENDMDL
MODEL       36
REMARK 921   NORMALIZED FREE ENERGY PREDICTED BY IDOCK:   -5.49 KCAL/MOL
REMARK 922        TOTAL FREE ENERGY PREDICTED BY IDOCK:   -8.73 KCAL/MOL
REMARK 923 INTER-LIGAND FREE ENERGY PREDICTED BY IDOCK:   -8.64 KCAL/MOL
REMARK 924 INTRA-LIGAND FREE ENERGY PREDICTED BY IDOCK:   -0.08 KCAL/MOL
REMARK 927      BINDING AFFINITY PREDICTED BY RF-SCORE:    0.00 PKD
ROOT
HETATM    1  C   UNL     1      -9.846  20.822  67.856  1.00  0.00    -0.035 C  
HETATM    2  N   UNL     1      -8.919  19.736  68.175  1.00  0.00    -0.326 NA 
HETATM    3  C   UNL     1      -9.555  18.418  67.968  1.00  0.00    -0.298 C  
HETATM    4  C   UNL     1      -9.680  17.979  66.490  1.00  0.00    -0.338 C  
HETATM    5  N   UNL     1      -8.421  18.044  65.722  1.00  0.00    -0.410 NA 
HETATM    6  C   UNL     1      -7.689  19.846  67.365  1.00  0.00    -0.281 C  
HETATM    7  C   UNL     1      -7.839  19.396  65.888  1.00  0.00    -0.215 C  
ENDROOT
BRANCH   5   8
HETATM    8  C   UNL     1      -7.431  17.041  66.135  1.00  0.00    -0.220 C  
BRANCH   8   9
HETATM    9  C   UNL     1      -8.001  15.883  66.920  1.00  0.00    -0.287 A  
HETATM   10  C   UNL     1      -9.104  15.218  66.360  1.00  0.00    -0.347 A  
HETATM   11  C   UNL     1      -9.772  14.215  67.053  1.00  0.00    -0.258 A  
HETATM   12  C   UNL     1      -9.365  13.848  68.331  1.00  0.00    -0.201 A  
HETATM   13  C   UNL     1      -8.216  14.446  68.865  1.00  0.00    -0.082 A  
HETATM   14  F   UNL     1      -5.328  15.164  69.076  1.00  0.00    -0.095 F  
HETATM   15  C   UNL     1      -7.520  15.473  68.178  1.00  0.00    -0.119 A  
HETATM   16  F   UNL     1      -5.730  17.148  68.281  1.00  0.00    -0.121 F  
HETATM   17  C   UNL     1      -6.319  16.080  68.877  1.00  0.00    -0.129 C  
HETATM   18  F   UNL     1      -6.651  16.523  70.128  1.00  0.00    -0.164 F  
BRANCH  12  19
HETATM   19  N   UNL     1     -10.084  12.931  69.134  1.00  0.00    -0.379 N  
HETATM   20  O   UNL     1      -9.854  10.974  67.879  1.00  0.00    -0.166 OA 
HETATM   21  C   UNL     1     -10.299  11.594  68.838  1.00  0.00    -0.153 C  
HETATM   22  H   UNL     1     -10.477  13.285  70.007  1.00  0.00     0.000 HD 
BRANCH  21  23
HETATM   23  C   UNL     1     -11.200  10.853  69.756  1.00  0.00    -0.351 A  
HETATM   24  C   UNL     1     -10.687   9.712  70.390  1.00  0.00    -0.356 A  
HETATM   25  C   UNL     1     -11.470   8.981  71.288  1.00  0.00    -0.390 A  
HETATM   26  C   UNL     1     -12.500  11.278  70.035  1.00  0.00    -0.251 A  
HETATM   27  C   UNL     1     -12.785   9.394  71.559  1.00  0.00    -0.444 A  
HETATM   28  C   UNL     1     -13.285  10.551  70.930  1.00  0.00    -0.281 A  
HETATM   29  C   UNL     1     -13.697   8.668  72.511  1.00  0.00    -0.362 C  
BRANCH  25  30
HETATM   30  C   UNL     1     -10.899   7.806  71.884  1.00  0.00    -0.281 C  
HETATM   31  C   UNL     1     -10.456   6.826  72.418  1.00  0.00    -0.230 C  
BRANCH  31  32
HETATM   32  C   UNL     1      -9.984   5.706  73.157  1.00  0.00    -0.175 A  
HETATM   33  C   UNL     1     -10.717   4.900  73.998  1.00  0.00    -0.294 A  
HETATM   34  N   UNL     1      -9.943   3.905  74.544  1.00  0.00    -0.148 NA 
HETATM   35  C   UNL     1      -8.743   4.098  74.038  1.00  0.00    -0.096 A  
HETATM   36  C   UNL     1      -7.540   3.384  74.234  1.00  0.00    -0.057 A  
HETATM   37  C   UNL     1      -6.432   3.780  73.598  1.00  0.00    -0.033 A  
HETATM   38  C   UNL     1      -6.547   4.967  72.713  1.00  0.00    -0.060 A  
HETATM   39  N   UNL     1      -7.618   5.659  72.494  1.00  0.00    -0.097 NA 
HETATM   40  N   UNL     1      -8.709   5.191  73.181  1.00  0.00    -0.116 NA 
ENDBRANCH  31  32
ENDBRANCH  25  30
ENDBRANCH  21  23
ENDBRANCH  12  19
ENDBRANCH   8   9
ENDBRANCH   5   8
TORSDOF 6
ENDMDL
MODEL       37
REMARK 921   NORMALIZED FREE ENERGY PREDICTED BY IDOCK:   -5.47 KCAL/MOL
REMARK 922        TOTAL FREE ENERGY PREDICTED BY IDOCK:   -8.70 KCAL/MOL
REMARK 923 INTER-LIGAND FREE ENERGY PREDICTED BY IDOCK:   -7.96 KCAL/MOL
REMARK 924 INTRA-LIGAND FREE ENERGY PREDICTED BY IDOCK:   -0.74 KCAL/MOL
REMARK 927      BINDING AFFINITY PREDICTED BY RF-SCORE:    0.00 PKD
ROOT
HETATM    1  C   UNL     1      -7.157  19.972  68.203  1.00  0.00    -0.289 C  
HETATM    2  N   UNL     1      -8.308  19.175  67.780  1.00  0.00    -0.285 NA 
HETATM    3  C   UNL     1      -8.245  18.879  66.333  1.00  0.00    -0.294 C  
HETATM    4  C   UNL     1      -7.239  17.774  65.937  1.00  0.00    -0.225 C  
HETATM    5  N   UNL     1      -7.382  16.513  66.691  1.00  0.00    -0.238 NA 
HETATM    6  C   UNL     1      -8.388  17.922  68.558  1.00  0.00    -0.300 C  
HETATM    7  C   UNL     1      -7.371  16.829  68.138  1.00  0.00    -0.173 C  
ENDROOT
BRANCH   5   8
HETATM    8  C   UNL     1      -8.609  15.775  66.370  1.00  0.00    -0.311 C  
BRANCH   8   9
HETATM    9  C   UNL     1      -8.881  14.589  67.266  1.00  0.00    -0.221 A  
HETATM   10  C   UNL     1      -7.885  13.602  67.331  1.00  0.00    -0.162 A  
HETATM   11  C   UNL     1      -8.084  12.419  68.035  1.00  0.00    -0.162 A  
HETATM   12  C   UNL     1      -9.286  12.181  68.691  1.00  0.00    -0.025 A  
HETATM   13  C   UNL     1     -10.254  13.194  68.701  1.00  0.00    -0.177 A  
HETATM   14  F   UNL     1     -11.441  15.866  69.298  1.00  0.00    -0.290 F  
HETATM   15  C   UNL     1     -10.075  14.407  67.988  1.00  0.00    -0.232 A  
HETATM   16  F   UNL     1     -11.098  16.511  67.250  1.00  0.00    -0.267 F  
HETATM   17  C   UNL     1     -11.213  15.409  68.034  1.00  0.00    -0.325 C  
HETATM   18  F   UNL     1     -12.391  14.832  67.646  1.00  0.00    -0.308 F  
BRANCH  12  19
HETATM   19  N   UNL     1      -9.595  10.947  69.309  1.00  0.00    -0.407 N  
HETATM   20  O   UNL     1      -7.465  10.228  69.942  1.00  0.00    -0.155 OA 
HETATM   21  C   UNL     1      -8.675  10.062  69.850  1.00  0.00    -0.142 C  
HETATM   22  H   UNL     1     -10.580  10.685  69.360  1.00  0.00     0.000 HD 
BRANCH  21  23
HETATM   23  C   UNL     1      -9.211   8.761  70.323  1.00  0.00    -0.191 A  
HETATM   24  C   UNL     1      -9.040   7.646  69.490  1.00  0.00    -0.146 A  
HETATM   25  C   UNL     1      -9.495   6.385  69.883  1.00  0.00    -0.163 A  
HETATM   26  C   UNL     1      -9.827   8.612  71.567  1.00  0.00    -0.342 A  
HETATM   27  C   UNL     1     -10.132   6.231  71.126  1.00  0.00    -0.218 A  
HETATM   28  C   UNL     1     -10.283   7.354  71.963  1.00  0.00    -0.221 A  
HETATM   29  C   UNL     1     -10.651   4.911  71.629  1.00  0.00    -0.143 C  
BRANCH  25  30
HETATM   30  C   UNL     1      -9.316   5.286  68.976  1.00  0.00    -0.171 C  
HETATM   31  C   UNL     1      -9.120   4.381  68.210  1.00  0.00    -0.165 C  
BRANCH  31  32
HETATM   32  C   UNL     1      -8.793   3.377  67.258  1.00  0.00    -0.134 A  
HETATM   33  C   UNL     1      -7.965   2.294  67.448  1.00  0.00    -0.065 A  
HETATM   34  N   UNL     1      -7.878   1.521  66.315  1.00  0.00    -0.069 NA 
HETATM   35  C   UNL     1      -8.651   2.126  65.437  1.00  0.00    -0.111 A  
HETATM   36  C   UNL     1      -8.954   1.791  64.099  1.00  0.00    -0.104 A  
HETATM   37  C   UNL     1      -9.782   2.574  63.398  1.00  0.00    -0.105 A  
HETATM   38  C   UNL     1     -10.332   3.767  64.090  1.00  0.00    -0.252 A  
HETATM   39  N   UNL     1     -10.093   4.125  65.310  1.00  0.00    -0.214 NA 
HETATM   40  N   UNL     1      -9.238   3.272  65.961  1.00  0.00    -0.157 NA 
ENDBRANCH  31  32
ENDBRANCH  25  30
ENDBRANCH  21  23
ENDBRANCH  12  19
ENDBRANCH   8   9
ENDBRANCH   5   8
TORSDOF 6
ENDMDL
MODEL       38
REMARK 921   NORMALIZED FREE ENERGY PREDICTED BY IDOCK:   -5.45 KCAL/MOL
REMARK 922        TOTAL FREE ENERGY PREDICTED BY IDOCK:   -8.67 KCAL/MOL
REMARK 923 INTER-LIGAND FREE ENERGY PREDICTED BY IDOCK:   -8.96 KCAL/MOL
REMARK 924 INTRA-LIGAND FREE ENERGY PREDICTED BY IDOCK:    0.29 KCAL/MOL
REMARK 927      BINDING AFFINITY PREDICTED BY RF-SCORE:    0.00 PKD
ROOT
HETATM    1  C   UNL     1      -6.334   3.763  74.299  1.00  0.00    -0.037 C  
HETATM    2  N   UNL     1      -6.598   4.545  73.092  1.00  0.00    -0.049 NA 
HETATM    3  C   UNL     1      -6.548   3.692  71.886  1.00  0.00    -0.015 C  
HETATM    4  C   UNL     1      -7.790   2.797  71.668  1.00  0.00    -0.048 C  
HETATM    5  N   UNL     1      -9.079   3.515  71.710  1.00  0.00    -0.105 NA 
HETATM    6  C   UNL     1      -7.905   5.225  73.187  1.00  0.00    -0.097 C  
HETATM    7  C   UNL     1      -9.135   4.306  72.961  1.00  0.00    -0.111 C  
ENDROOT
BRANCH   5   8
HETATM    8  C   UNL     1      -9.289   4.411  70.566  1.00  0.00    -0.143 C  
BRANCH   8   9
HETATM    9  C   UNL     1      -9.775   5.794  70.932  1.00  0.00    -0.218 A  
HETATM   10  C   UNL     1     -11.058   5.887  71.494  1.00  0.00    -0.314 A  
HETATM   11  C   UNL     1     -11.642   7.120  71.760  1.00  0.00    -0.314 A  
HETATM   12  C   UNL     1     -10.968   8.300  71.467  1.00  0.00    -0.254 A  
HETATM   13  C   UNL     1      -9.656   8.218  70.983  1.00  0.00    -0.197 A  
HETATM   14  F   UNL     1      -6.745   7.562  71.009  1.00  0.00    -0.042 F  
HETATM   15  C   UNL     1      -9.040   6.972  70.701  1.00  0.00    -0.158 A  
HETATM   16  F   UNL     1      -7.092   5.828  69.744  1.00  0.00    -0.058 F  
HETATM   17  C   UNL     1      -7.634   7.009  70.135  1.00  0.00    -0.095 C  
HETATM   18  F   UNL     1      -7.575   7.801  69.020  1.00  0.00    -0.090 F  
BRANCH  12  19
HETATM   19  N   UNL     1     -11.562   9.578  71.591  1.00  0.00    -0.393 N  
HETATM   20  O   UNL     1     -11.633  10.248  69.354  1.00  0.00    -0.220 OA 
HETATM   21  C   UNL     1     -11.816  10.455  70.548  1.00  0.00    -0.337 C  
HETATM   22  H   UNL     1     -11.826   9.880  72.529  1.00  0.00     0.000 HD 
BRANCH  21  23
HETATM   23  C   UNL     1     -12.318  11.801  70.926  1.00  0.00    -0.420 A  
HETATM   24  C   UNL     1     -11.731  12.912  70.304  1.00  0.00    -0.187 A  
HETATM   25  C   UNL     1     -12.172  14.206  70.591  1.00  0.00    -0.432 A  
HETATM   26  C   UNL     1     -13.368  11.983  71.828  1.00  0.00    -0.338 A  
HETATM   27  C   UNL     1     -13.215  14.397  71.512  1.00  0.00    -0.419 A  
HETATM   28  C   UNL     1     -13.810  13.274  72.118  1.00  0.00    -0.555 A  
HETATM   29  C   UNL     1     -13.753  15.754  71.879  1.00  0.00    -0.371 C  
BRANCH  25  30
HETATM   30  C   UNL     1     -11.512  15.306  69.944  1.00  0.00    -0.325 C  
HETATM   31  C   UNL     1     -10.923  16.197  69.394  1.00  0.00    -0.333 C  
BRANCH  31  32
HETATM   32  C   UNL     1     -10.119  17.188  68.767  1.00  0.00    -0.329 A  
HETATM   33  C   UNL     1     -10.556  18.325  68.125  1.00  0.00    -0.282 A  
HETATM   34  N   UNL     1      -9.505  19.064  67.639  1.00  0.00    -0.301 NA 
HETATM   35  C   UNL     1      -8.431  18.386  67.983  1.00  0.00    -0.276 A  
HETATM   36  C   UNL     1      -7.063  18.660  67.758  1.00  0.00    -0.230 A  
HETATM   37  C   UNL     1      -6.140  17.805  68.213  1.00  0.00    -0.171 A  
HETATM   38  C   UNL     1      -6.628  16.604  68.937  1.00  0.00    -0.178 A  
HETATM   39  N   UNL     1      -7.863  16.301  69.174  1.00  0.00    -0.242 NA 
HETATM   40  N   UNL     1      -8.747  17.224  68.677  1.00  0.00    -0.278 NA 
ENDBRANCH  31  32
ENDBRANCH  25  30
ENDBRANCH  21  23
ENDBRANCH  12  19
ENDBRANCH   8   9
ENDBRANCH   5   8
TORSDOF 6
ENDMDL
MODEL       39
REMARK 921   NORMALIZED FREE ENERGY PREDICTED BY IDOCK:   -5.43 KCAL/MOL
REMARK 922        TOTAL FREE ENERGY PREDICTED BY IDOCK:   -8.65 KCAL/MOL
REMARK 923 INTER-LIGAND FREE ENERGY PREDICTED BY IDOCK:   -7.96 KCAL/MOL
REMARK 924 INTRA-LIGAND FREE ENERGY PREDICTED BY IDOCK:   -0.69 KCAL/MOL
REMARK 927      BINDING AFFINITY PREDICTED BY RF-SCORE:    0.00 PKD
ROOT
HETATM    1  C   UNL     1     -11.148   1.950  74.029  1.00  0.00    -0.153 C  
HETATM    2  N   UNL     1     -10.312   2.374  72.906  1.00  0.00    -0.146 NA 
HETATM    3  C   UNL     1     -10.656   3.746  72.478  1.00  0.00    -0.031 C  
HETATM    4  C   UNL     1     -10.122   4.869  73.398  1.00  0.00    -0.166 C  
HETATM    5  N   UNL     1      -8.677   4.792  73.686  1.00  0.00    -0.107 NA 
HETATM    6  C   UNL     1      -8.881   2.290  73.261  1.00  0.00    -0.070 C  
HETATM    7  C   UNL     1      -8.370   3.430  74.180  1.00  0.00    -0.077 C  
ENDROOT
BRANCH   5   8
HETATM    8  C   UNL     1      -7.831   5.082  72.522  1.00  0.00    -0.097 C  
BRANCH   8   9
HETATM    9  C   UNL     1      -8.298   6.248  71.681  1.00  0.00    -0.129 A  
HETATM   10  C   UNL     1      -8.924   5.941  70.463  1.00  0.00    -0.151 A  
HETATM   11  C   UNL     1      -9.287   6.939  69.565  1.00  0.00    -0.147 A  
HETATM   12  C   UNL     1      -9.031   8.275  69.852  1.00  0.00    -0.139 A  
HETATM   13  C   UNL     1      -8.482   8.597  71.100  1.00  0.00    -0.211 A  
HETATM   14  F   UNL     1      -8.336   8.815  74.073  1.00  0.00    -0.208 F  
HETATM   15  C   UNL     1      -8.101   7.597  72.030  1.00  0.00    -0.115 A  
HETATM   16  F   UNL     1      -6.990   7.109  74.163  1.00  0.00    -0.083 F  
HETATM   17  C   UNL     1      -7.473   8.065  73.329  1.00  0.00    -0.139 C  
HETATM   18  F   UNL     1      -6.404   8.885  73.090  1.00  0.00    -0.113 F  
BRANCH  12  19
HETATM   19  N   UNL     1      -9.256   9.318  68.924  1.00  0.00    -0.141 N  
HETATM   20  O   UNL     1     -11.092  10.384  69.899  1.00  0.00    -0.263 OA 
HETATM   21  C   UNL     1     -10.272  10.259  68.998  1.00  0.00    -0.210 C  
HETATM   22  H   UNL     1      -8.615   9.385  68.133  1.00  0.00     0.000 HD 
BRANCH  21  23
HETATM   23  C   UNL     1     -10.403  11.179  67.840  1.00  0.00    -0.211 A  
HETATM   24  C   UNL     1     -10.099  12.532  68.046  1.00  0.00    -0.220 A  
HETATM   25  C   UNL     1     -10.175  13.449  66.995  1.00  0.00    -0.249 A  
HETATM   26  C   UNL     1     -10.768  10.734  66.568  1.00  0.00    -0.245 A  
HETATM   27  C   UNL     1     -10.559  13.011  65.716  1.00  0.00    -0.291 A  
HETATM   28  C   UNL     1     -10.845  11.647  65.516  1.00  0.00    -0.334 A  
HETATM   29  C   UNL     1     -10.665  13.929  64.528  1.00  0.00    -0.382 C  
BRANCH  25  30
HETATM   30  C   UNL     1      -9.879  14.827  67.274  1.00  0.00    -0.230 C  
HETATM   31  C   UNL     1      -9.614  15.965  67.551  1.00  0.00    -0.221 C  
BRANCH  31  32
HETATM   32  C   UNL     1      -9.303  17.278  67.999  1.00  0.00    -0.264 A  
HETATM   33  C   UNL     1     -10.180  18.327  68.165  1.00  0.00    -0.387 A  
HETATM   34  N   UNL     1      -9.538  19.453  68.621  1.00  0.00    -0.404 NA 
HETATM   35  C   UNL     1      -8.277  19.095  68.738  1.00  0.00    -0.347 A  
HETATM   36  C   UNL     1      -7.151  19.834  69.166  1.00  0.00    -0.349 A  
HETATM   37  C   UNL     1      -5.953  19.241  69.199  1.00  0.00    -0.276 A  
HETATM   38  C   UNL     1      -5.888  17.820  68.775  1.00  0.00    -0.183 A  
HETATM   39  N   UNL     1      -6.881  17.093  68.375  1.00  0.00    -0.183 NA 
HETATM   40  N   UNL     1      -8.073  17.771  68.368  1.00  0.00    -0.289 NA 
ENDBRANCH  31  32
ENDBRANCH  25  30
ENDBRANCH  21  23
ENDBRANCH  12  19
ENDBRANCH   8   9
ENDBRANCH   5   8
TORSDOF 6
ENDMDL
MODEL       40
REMARK 921   NORMALIZED FREE ENERGY PREDICTED BY IDOCK:   -5.40 KCAL/MOL
REMARK 922        TOTAL FREE ENERGY PREDICTED BY IDOCK:   -8.61 KCAL/MOL
REMARK 923 INTER-LIGAND FREE ENERGY PREDICTED BY IDOCK:   -7.25 KCAL/MOL
REMARK 924 INTRA-LIGAND FREE ENERGY PREDICTED BY IDOCK:   -1.36 KCAL/MOL
REMARK 927      BINDING AFFINITY PREDICTED BY RF-SCORE:    0.00 PKD
ROOT
HETATM    1  C   UNL     1      -8.922  19.378  66.412  1.00  0.00    -0.363 C  
HETATM    2  N   UNL     1      -8.531  18.406  67.432  1.00  0.00    -0.251 NA 
HETATM    3  C   UNL     1      -9.663  18.094  68.329  1.00  0.00    -0.337 C  
HETATM    4  C   UNL     1     -10.730  17.148  67.728  1.00  0.00    -0.329 C  
HETATM    5  N   UNL     1     -10.191  15.896  67.162  1.00  0.00    -0.272 NA 
HETATM    6  C   UNL     1      -8.017  17.172  66.805  1.00  0.00    -0.235 C  
HETATM    7  C   UNL     1      -9.106  16.239  66.214  1.00  0.00    -0.331 C  
ENDROOT
BRANCH   5   8
HETATM    8  C   UNL     1      -9.668  14.972  68.175  1.00  0.00    -0.215 C  
BRANCH   8   9
HETATM    9  C   UNL     1      -9.311  13.601  67.650  1.00  0.00    -0.215 A  
HETATM   10  C   UNL     1     -10.353  12.844  67.091  1.00  0.00    -0.239 A  
HETATM   11  C   UNL     1     -10.154  11.530  66.683  1.00  0.00    -0.242 A  
HETATM   12  C   UNL     1      -8.911  10.925  66.828  1.00  0.00    -0.145 A  
HETATM   13  C   UNL     1      -7.844  11.697  67.308  1.00  0.00    -0.157 A  
HETATM   14  F   UNL     1      -5.829  13.898  67.337  1.00  0.00    -0.111 F  
HETATM   15  C   UNL     1      -8.023  13.038  67.732  1.00  0.00    -0.164 A  
HETATM   16  F   UNL     1      -7.001  14.994  68.804  1.00  0.00    -0.095 F  
HETATM   17  C   UNL     1      -6.806  13.758  68.279  1.00  0.00    -0.109 C  
HETATM   18  F   UNL     1      -6.225  13.042  69.290  1.00  0.00    -0.079 F  
BRANCH  12  19
HETATM   19  N   UNL     1      -8.683   9.556  66.556  1.00  0.00    -0.133 N  
HETATM   20  O   UNL     1      -8.010   9.659  64.321  1.00  0.00    -0.124 OA 
HETATM   21  C   UNL     1      -8.288   9.030  65.335  1.00  0.00    -0.144 C  
HETATM   22  H   UNL     1      -8.822   8.899  67.324  1.00  0.00     0.000 HD 
BRANCH  21  23
HETATM   23  C   UNL     1      -8.245   7.549  65.239  1.00  0.00    -0.130 A  
HETATM   24  C   UNL     1      -8.533   6.814  66.398  1.00  0.00    -0.126 A  
HETATM   25  C   UNL     1      -8.538   5.417  66.374  1.00  0.00    -0.119 A  
HETATM   26  C   UNL     1      -7.977   6.883  64.042  1.00  0.00    -0.070 A  
HETATM   27  C   UNL     1      -8.251   4.741  65.176  1.00  0.00    -0.121 A  
HETATM   28  C   UNL     1      -7.980   5.488  64.014  1.00  0.00    -0.116 A  
HETATM   29  C   UNL     1      -8.235   3.240  65.061  1.00  0.00    -0.094 C  
BRANCH  25  30
HETATM   30  C   UNL     1      -8.812   4.719  67.599  1.00  0.00    -0.110 C  
HETATM   31  C   UNL     1      -9.067   4.173  68.638  1.00  0.00    -0.185 C  
BRANCH  31  32
HETATM   32  C   UNL     1      -9.392   3.642  69.916  1.00  0.00    -0.176 A  
HETATM   33  C   UNL     1      -9.149   2.364  70.369  1.00  0.00    -0.107 A  
HETATM   34  N   UNL     1      -9.589   2.194  71.659  1.00  0.00    -0.129 NA 
HETATM   35  C   UNL     1     -10.095   3.362  71.997  1.00  0.00    -0.109 A  
HETATM   36  C   UNL     1     -10.693   3.786  73.204  1.00  0.00    -0.267 A  
HETATM   37  C   UNL     1     -11.138   5.043  73.309  1.00  0.00    -0.406 A  
HETATM   38  C   UNL     1     -10.972   5.921  72.123  1.00  0.00    -0.266 A  
HETATM   39  N   UNL     1     -10.434   5.591  70.994  1.00  0.00    -0.241 NA 
HETATM   40  N   UNL     1     -10.003   4.288  70.966  1.00  0.00    -0.182 NA 
ENDBRANCH  31  32
ENDBRANCH  25  30
ENDBRANCH  21  23
ENDBRANCH  12  19
ENDBRANCH   8   9
ENDBRANCH   5   8
TORSDOF 6
ENDMDL
MODEL       41
REMARK 921   NORMALIZED FREE ENERGY PREDICTED BY IDOCK:   -5.37 KCAL/MOL
REMARK 922        TOTAL FREE ENERGY PREDICTED BY IDOCK:   -8.56 KCAL/MOL
REMARK 923 INTER-LIGAND FREE ENERGY PREDICTED BY IDOCK:   -7.71 KCAL/MOL
REMARK 924 INTRA-LIGAND FREE ENERGY PREDICTED BY IDOCK:   -0.85 KCAL/MOL
REMARK 927      BINDING AFFINITY PREDICTED BY RF-SCORE:    0.00 PKD
ROOT
HETATM    1  C   UNL     1      -5.541  21.025  64.561  1.00  0.00    -0.232 C  
HETATM    2  N   UNL     1      -5.561  20.653  65.975  1.00  0.00    -0.186 NA 
HETATM    3  C   UNL     1      -6.872  20.957  66.585  1.00  0.00    -0.249 C  
HETATM    4  C   UNL     1      -8.003  19.963  66.230  1.00  0.00    -0.327 C  
HETATM    5  N   UNL     1      -7.669  18.544  66.463  1.00  0.00    -0.245 NA 
HETATM    6  C   UNL     1      -5.236  19.222  66.142  1.00  0.00    -0.151 C  
HETATM    7  C   UNL     1      -6.387  18.246  65.783  1.00  0.00    -0.263 C  
ENDROOT
BRANCH   5   8
HETATM    8  C   UNL     1      -7.551  18.196  67.884  1.00  0.00    -0.233 C  
BRANCH   8   9
HETATM    9  C   UNL     1      -7.909  16.765  68.212  1.00  0.00    -0.194 A  
HETATM   10  C   UNL     1      -6.901  15.803  68.039  1.00  0.00    -0.141 A  
HETATM   11  C   UNL     1      -7.161  14.447  68.203  1.00  0.00    -0.126 A  
HETATM   12  C   UNL     1      -8.436  14.006  68.537  1.00  0.00    -0.143 A  
HETATM   13  C   UNL     1      -9.428  14.963  68.792  1.00  0.00    -0.214 A  
HETATM   14  F   UNL     1     -10.774  17.234  70.182  1.00  0.00    -0.190 F  
HETATM   15  C   UNL     1      -9.188  16.351  68.629  1.00  0.00    -0.231 A  
HETATM   16  F   UNL     1     -10.163  18.602  68.607  1.00  0.00    -0.366 F  
HETATM   17  C   UNL     1     -10.352  17.288  68.886  1.00  0.00    -0.352 C  
HETATM   18  F   UNL     1     -11.444  16.931  68.142  1.00  0.00    -0.295 F  
BRANCH  12  19
HETATM   19  N   UNL     1      -8.790  12.638  68.587  1.00  0.00    -0.386 N  
HETATM   20  O   UNL     1     -10.585  12.595  67.091  1.00  0.00    -0.233 OA 
HETATM   21  C   UNL     1      -9.840  12.050  67.897  1.00  0.00    -0.196 C  
HETATM   22  H   UNL     1      -8.225  12.031  69.181  1.00  0.00     0.000 HD 
BRANCH  21  23
HETATM   23  C   UNL     1     -10.115  10.624  68.207  1.00  0.00    -0.176 A  
HETATM   24  C   UNL     1      -9.658   9.661  67.297  1.00  0.00    -0.203 A  
HETATM   25  C   UNL     1      -9.858   8.299  67.538  1.00  0.00    -0.231 A  
HETATM   26  C   UNL     1     -10.761  10.223  69.378  1.00  0.00    -0.272 A  
HETATM   27  C   UNL     1     -10.523   7.890  68.706  1.00  0.00    -0.198 A  
HETATM   28  C   UNL     1     -10.963   8.865  69.622  1.00  0.00    -0.132 A  
HETATM   29  C   UNL     1     -10.780   6.447  69.045  1.00  0.00    -0.339 C  
BRANCH  25  30
HETATM   30  C   UNL     1      -9.393   7.361  66.555  1.00  0.00    -0.222 C  
HETATM   31  C   UNL     1      -8.959   6.596  65.736  1.00  0.00    -0.050 C  
BRANCH  31  32
HETATM   32  C   UNL     1      -8.355   5.775  64.746  1.00  0.00    -0.116 A  
HETATM   33  C   UNL     1      -7.154   5.993  64.108  1.00  0.00    -0.053 A  
HETATM   34  N   UNL     1      -6.870   4.992  63.211  1.00  0.00    -0.037 NA 
HETATM   35  C   UNL     1      -7.890   4.163  63.301  1.00  0.00    -0.074 A  
HETATM   36  C   UNL     1      -8.149   2.954  62.619  1.00  0.00    -0.072 A  
HETATM   37  C   UNL     1      -9.273   2.279  62.887  1.00  0.00    -0.091 A  
HETATM   38  C   UNL     1     -10.188   2.863  63.900  1.00  0.00    -0.156 A  
HETATM   39  N   UNL     1     -10.005   3.963  64.556  1.00  0.00    -0.193 NA 
HETATM   40  N   UNL     1      -8.832   4.594  64.226  1.00  0.00    -0.148 NA 
ENDBRANCH  31  32
ENDBRANCH  25  30
ENDBRANCH  21  23
ENDBRANCH  12  19
ENDBRANCH   8   9
ENDBRANCH   5   8
TORSDOF 6
ENDMDL
MODEL       42
REMARK 921   NORMALIZED FREE ENERGY PREDICTED BY IDOCK:   -5.36 KCAL/MOL
REMARK 922        TOTAL FREE ENERGY PREDICTED BY IDOCK:   -8.55 KCAL/MOL
REMARK 923 INTER-LIGAND FREE ENERGY PREDICTED BY IDOCK:   -7.31 KCAL/MOL
REMARK 924 INTRA-LIGAND FREE ENERGY PREDICTED BY IDOCK:   -1.25 KCAL/MOL
REMARK 927      BINDING AFFINITY PREDICTED BY RF-SCORE:    0.00 PKD
ROOT
HETATM    1  C   UNL     1     -10.776   1.615  74.526  1.00  0.00    -0.112 C  
HETATM    2  N   UNL     1     -10.874   2.085  73.145  1.00  0.00    -0.157 NA 
HETATM    3  C   UNL     1     -10.897   3.562  73.088  1.00  0.00    -0.149 C  
HETATM    4  C   UNL     1      -9.526   4.244  73.302  1.00  0.00    -0.111 C  
HETATM    5  N   UNL     1      -8.445   3.735  72.436  1.00  0.00    -0.089 NA 
HETATM    6  C   UNL     1      -9.759   1.557  72.334  1.00  0.00    -0.092 C  
HETATM    7  C   UNL     1      -8.396   2.260  72.564  1.00  0.00    -0.058 C  
ENDROOT
BRANCH   5   8
HETATM    8  C   UNL     1      -8.613   4.088  71.021  1.00  0.00    -0.076 C  
BRANCH   8   9
HETATM    9  C   UNL     1      -8.300   5.530  70.692  1.00  0.00    -0.117 A  
HETATM   10  C   UNL     1      -7.028   6.001  71.055  1.00  0.00    -0.068 A  
HETATM   11  C   UNL     1      -6.683   7.339  70.901  1.00  0.00    -0.048 A  
HETATM   12  C   UNL     1      -7.597   8.251  70.386  1.00  0.00    -0.075 A  
HETATM   13  C   UNL     1      -8.839   7.775  69.945  1.00  0.00    -0.142 A  
HETATM   14  F   UNL     1     -10.756   6.208  68.279  1.00  0.00    -0.203 F  
HETATM   15  C   UNL     1      -9.215   6.416  70.094  1.00  0.00    -0.160 A  
HETATM   16  F   UNL     1     -11.013   4.761  69.882  1.00  0.00    -0.027 F  
HETATM   17  C   UNL     1     -10.603   6.028  69.623  1.00  0.00    -0.300 C  
HETATM   18  F   UNL     1     -11.557   6.823  70.198  1.00  0.00    -0.349 F  
BRANCH  12  19
HETATM   19  N   UNL     1      -7.349   9.643  70.331  1.00  0.00    -0.139 N  
HETATM   20  O   UNL     1      -5.915   9.759  68.490  1.00  0.00    -0.042 OA 
HETATM   21  C   UNL     1      -6.516  10.278  69.423  1.00  0.00    -0.053 C  
HETATM   22  H   UNL     1      -7.825  10.229  71.017  1.00  0.00     0.000 HD 
BRANCH  21  23
HETATM   23  C   UNL     1      -6.295  11.731  69.637  1.00  0.00    -0.129 A  
HETATM   24  C   UNL     1      -7.031  12.624  68.844  1.00  0.00    -0.086 A  
HETATM   25  C   UNL     1      -6.895  14.005  69.010  1.00  0.00    -0.111 A  
HETATM   26  C   UNL     1      -5.430  12.221  70.616  1.00  0.00    -0.164 A  
HETATM   27  C   UNL     1      -6.011  14.504  69.982  1.00  0.00    -0.141 A  
HETATM   28  C   UNL     1      -5.291  13.599  70.784  1.00  0.00    -0.140 A  
HETATM   29  C   UNL     1      -5.803  15.974  70.229  1.00  0.00    -0.119 C  
BRANCH  25  30
HETATM   30  C   UNL     1      -7.653  14.869  68.150  1.00  0.00    -0.115 C  
HETATM   31  C   UNL     1      -8.314  15.606  67.469  1.00  0.00    -0.186 C  
BRANCH  31  32
HETATM   32  C   UNL     1      -9.186  16.469  66.751  1.00  0.00    -0.234 A  
HETATM   33  C   UNL     1     -10.072  16.114  65.759  1.00  0.00    -0.363 A  
HETATM   34  N   UNL     1     -10.763  17.203  65.286  1.00  0.00    -0.619 NA 
HETATM   35  C   UNL     1     -10.305  18.220  65.986  1.00  0.00    -0.363 A  
HETATM   36  C   UNL     1     -10.646  19.589  65.942  1.00  0.00    -0.572 A  
HETATM   37  C   UNL     1     -10.033  20.444  66.768  1.00  0.00    -0.525 A  
HETATM   38  C   UNL     1      -9.015  19.882  67.691  1.00  0.00    -0.335 A  
HETATM   39  N   UNL     1      -8.661  18.640  67.778  1.00  0.00    -0.276 NA 
HETATM   40  N   UNL     1      -9.334  17.828  66.900  1.00  0.00    -0.262 NA 
ENDBRANCH  31  32
ENDBRANCH  25  30
ENDBRANCH  21  23
ENDBRANCH  12  19
ENDBRANCH   8   9
ENDBRANCH   5   8
TORSDOF 6
ENDMDL
MODEL       43
REMARK 921   NORMALIZED FREE ENERGY PREDICTED BY IDOCK:   -5.14 KCAL/MOL
REMARK 922        TOTAL FREE ENERGY PREDICTED BY IDOCK:   -8.25 KCAL/MOL
REMARK 923 INTER-LIGAND FREE ENERGY PREDICTED BY IDOCK:   -6.93 KCAL/MOL
REMARK 924 INTRA-LIGAND FREE ENERGY PREDICTED BY IDOCK:   -1.32 KCAL/MOL
REMARK 927      BINDING AFFINITY PREDICTED BY RF-SCORE:    0.00 PKD
ROOT
HETATM    1  C   UNL     1     -11.530   1.912  62.745  1.00  0.00    -0.183 C  
HETATM    2  N   UNL     1     -10.152   2.393  62.643  1.00  0.00    -0.095 NA 
HETATM    3  C   UNL     1     -10.026   3.760  63.192  1.00  0.00    -0.160 C  
HETATM    4  C   UNL     1     -10.021   3.844  64.736  1.00  0.00    -0.200 C  
HETATM    5  N   UNL     1      -9.044   2.956  65.397  1.00  0.00    -0.148 NA 
HETATM    6  C   UNL     1      -9.226   1.474  63.335  1.00  0.00    -0.089 C  
HETATM    7  C   UNL     1      -9.238   1.581  64.882  1.00  0.00    -0.111 C  
ENDROOT
BRANCH   5   8
HETATM    8  C   UNL     1      -7.649   3.358  65.181  1.00  0.00    -0.080 C  
BRANCH   8   9
HETATM    9  C   UNL     1      -7.280   4.696  65.779  1.00  0.00    -0.076 A  
HETATM   10  C   UNL     1      -7.396   4.820  67.173  1.00  0.00    -0.078 A  
HETATM   11  C   UNL     1      -7.191   6.039  67.809  1.00  0.00    -0.076 A  
HETATM   12  C   UNL     1      -6.873   7.176  67.074  1.00  0.00    -0.072 A  
HETATM   13  C   UNL     1      -6.674   7.044  65.693  1.00  0.00    -0.052 A  
HETATM   14  F   UNL     1      -5.394   6.093  63.171  1.00  0.00    -0.016 F  
HETATM   15  C   UNL     1      -6.880   5.812  65.022  1.00  0.00    -0.051 A  
HETATM   16  F   UNL     1      -7.001   4.662  62.859  1.00  0.00    -0.035 F  
HETATM   17  C   UNL     1      -6.681   5.803  63.519  1.00  0.00    -0.036 C  
HETATM   18  F   UNL     1      -7.438   6.772  62.918  1.00  0.00    -0.056 F  
BRANCH  12  19
HETATM   19  N   UNL     1      -6.784   8.465  67.649  1.00  0.00    -0.065 N  
HETATM   20  O   UNL     1      -8.928   9.286  67.215  1.00  0.00    -0.123 OA 
HETATM   21  C   UNL     1      -7.790   9.420  67.648  1.00  0.00    -0.095 C  
HETATM   22  H   UNL     1      -5.905   8.714  68.102  1.00  0.00     0.000 HD 
BRANCH  21  23
HETATM   23  C   UNL     1      -7.430  10.756  68.186  1.00  0.00    -0.091 A  
HETATM   24  C   UNL     1      -8.137  11.865  67.700  1.00  0.00    -0.148 A  
HETATM   25  C   UNL     1      -7.870  13.149  68.181  1.00  0.00    -0.145 A  
HETATM   26  C   UNL     1      -6.460  10.929  69.176  1.00  0.00    -0.063 A  
HETATM   27  C   UNL     1      -6.882  13.332  69.164  1.00  0.00    -0.067 A  
HETATM   28  C   UNL     1      -6.191  12.210  69.658  1.00  0.00    -0.131 A  
HETATM   29  C   UNL     1      -6.531  14.678  69.739  1.00  0.00    -0.159 C  
BRANCH  25  30
HETATM   30  C   UNL     1      -8.607  14.249  67.624  1.00  0.00    -0.186 C  
HETATM   31  C   UNL     1      -9.193  15.168  67.120  1.00  0.00    -0.226 C  
BRANCH  31  32
HETATM   32  C   UNL     1      -9.784  16.277  66.454  1.00  0.00    -0.288 A  
HETATM   33  C   UNL     1     -10.555  16.244  65.314  1.00  0.00    -0.336 A  
HETATM   34  N   UNL     1     -10.969  17.503  64.949  1.00  0.00    -0.827 NA 
HETATM   35  C   UNL     1     -10.456  18.301  65.862  1.00  0.00    -0.307 A  
HETATM   36  C   UNL     1     -10.547  19.703  66.007  1.00  0.00    -0.584 A  
HETATM   37  C   UNL     1      -9.929  20.297  67.035  1.00  0.00    -0.601 A  
HETATM   38  C   UNL     1      -9.176  19.422  67.969  1.00  0.00    -0.327 A  
HETATM   39  N   UNL     1      -9.058  18.136  67.889  1.00  0.00    -0.261 NA 
HETATM   40  N   UNL     1      -9.718  17.604  66.811  1.00  0.00    -0.287 NA 
ENDBRANCH  31  32
ENDBRANCH  25  30
ENDBRANCH  21  23
ENDBRANCH  12  19
ENDBRANCH   8   9
ENDBRANCH   5   8
TORSDOF 6
ENDMDL
MODEL       44
REMARK 921   NORMALIZED FREE ENERGY PREDICTED BY IDOCK:   -5.08 KCAL/MOL
REMARK 922        TOTAL FREE ENERGY PREDICTED BY IDOCK:   -8.17 KCAL/MOL
REMARK 923 INTER-LIGAND FREE ENERGY PREDICTED BY IDOCK:   -8.38 KCAL/MOL
REMARK 924 INTRA-LIGAND FREE ENERGY PREDICTED BY IDOCK:    0.21 KCAL/MOL
REMARK 927      BINDING AFFINITY PREDICTED BY RF-SCORE:    0.00 PKD
ROOT
HETATM    1  C   UNL     1      -5.601  20.326  70.633  1.00  0.00    -0.313 C  
HETATM    2  N   UNL     1      -5.605  19.480  69.440  1.00  0.00    -0.210 NA 
HETATM    3  C   UNL     1      -6.942  18.893  69.211  1.00  0.00    -0.239 C  
HETATM    4  C   UNL     1      -7.988  19.866  68.618  1.00  0.00    -0.150 C  
HETATM    5  N   UNL     1      -7.547  20.575  67.401  1.00  0.00    -0.336 NA 
HETATM    6  C   UNL     1      -5.171  20.248  68.256  1.00  0.00    -0.203 C  
HETATM    7  C   UNL     1      -6.239  21.213  67.678  1.00  0.00    -0.364 C  
ENDROOT
BRANCH   5   8
HETATM    8  C   UNL     1      -7.415  19.701  66.229  1.00  0.00    -0.290 C  
BRANCH   8   9
HETATM    9  C   UNL     1      -7.927  18.294  66.435  1.00  0.00    -0.290 A  
HETATM   10  C   UNL     1      -6.968  17.303  66.701  1.00  0.00    -0.272 A  
HETATM   11  C   UNL     1      -7.321  15.961  66.793  1.00  0.00    -0.140 A  
HETATM   12  C   UNL     1      -8.642  15.564  66.614  1.00  0.00    -0.290 A  
HETATM   13  C   UNL     1      -9.618  16.553  66.430  1.00  0.00    -0.309 A  
HETATM   14  F   UNL     1     -11.314  18.911  67.111  1.00  0.00    -0.357 F  
HETATM   15  C   UNL     1      -9.281  17.926  66.330  1.00  0.00    -0.258 A  
HETATM   16  F   UNL     1     -10.085  20.196  65.858  1.00  0.00    -0.510 F  
HETATM   17  C   UNL     1     -10.418  18.899  66.082  1.00  0.00    -0.457 C  
HETATM   18  F   UNL     1     -11.145  18.535  64.982  1.00  0.00    -0.309 F  
BRANCH  12  19
HETATM   19  N   UNL     1      -9.038  14.207  66.564  1.00  0.00    -0.439 N  
HETATM   20  O   UNL     1     -10.231  14.025  68.565  1.00  0.00    -0.229 OA 
HETATM   21  C   UNL     1      -9.763  13.541  67.541  1.00  0.00    -0.228 C  
HETATM   22  H   UNL     1      -8.768  13.673  65.739  1.00  0.00     0.000 HD 
BRANCH  21  23
HETATM   23  C   UNL     1      -9.947  12.081  67.344  1.00  0.00    -0.200 A  
HETATM   24  C   UNL     1      -9.230  11.216  68.184  1.00  0.00    -0.166 A  
HETATM   25  C   UNL     1      -9.376   9.831  68.073  1.00  0.00    -0.138 A  
HETATM   26  C   UNL     1     -10.830  11.558  66.398  1.00  0.00    -0.334 A  
HETATM   27  C   UNL     1     -10.249   9.298  67.110  1.00  0.00    -0.324 A  
HETATM   28  C   UNL     1     -10.977  10.176  66.284  1.00  0.00     0.182 A  
HETATM   29  C   UNL     1     -10.467   7.821  66.923  1.00  0.00    -0.388 C  
BRANCH  25  30
HETATM   30  C   UNL     1      -8.594   8.996  68.941  1.00  0.00    -0.131 C  
HETATM   31  C   UNL     1      -7.912   8.336  69.678  1.00  0.00    -0.111 C  
BRANCH  31  32
HETATM   32  C   UNL     1      -7.015   7.640  70.533  1.00  0.00    -0.047 A  
HETATM   33  C   UNL     1      -6.185   6.596  70.192  1.00  0.00    -0.031 A  
HETATM   34  N   UNL     1      -5.446   6.166  71.267  1.00  0.00    -0.021 NA 
HETATM   35  C   UNL     1      -5.818   6.944  72.262  1.00  0.00    -0.038 A  
HETATM   36  C   UNL     1      -5.398   6.972  73.610  1.00  0.00    -0.046 A  
HETATM   37  C   UNL     1      -5.931   7.871  74.444  1.00  0.00    -0.087 A  
HETATM   38  C   UNL     1      -6.950   8.795  73.883  1.00  0.00     0.092 A  
HETATM   39  N   UNL     1      -7.373   8.818  72.661  1.00  0.00    -0.348 NA 
HETATM   40  N   UNL     1      -6.780   7.868  71.870  1.00  0.00    -0.055 NA 
ENDBRANCH  31  32
ENDBRANCH  25  30
ENDBRANCH  21  23
ENDBRANCH  12  19
ENDBRANCH   8   9
ENDBRANCH   5   8
TORSDOF 6
ENDMDL
MODEL       45
REMARK 921   NORMALIZED FREE ENERGY PREDICTED BY IDOCK:   -5.00 KCAL/MOL
REMARK 922        TOTAL FREE ENERGY PREDICTED BY IDOCK:   -8.07 KCAL/MOL
REMARK 923 INTER-LIGAND FREE ENERGY PREDICTED BY IDOCK:   -7.22 KCAL/MOL
REMARK 924 INTRA-LIGAND FREE ENERGY PREDICTED BY IDOCK:   -0.85 KCAL/MOL
REMARK 927      BINDING AFFINITY PREDICTED BY RF-SCORE:    0.00 PKD
ROOT
HETATM    1  C   UNL     1      -9.935  18.833  68.619  1.00  0.00    -0.394 C  
HETATM    2  N   UNL     1      -9.141  17.953  67.762  1.00  0.00    -0.255 NA 
HETATM    3  C   UNL     1      -9.349  16.534  68.122  1.00  0.00    -0.218 C  
HETATM    4  C   UNL     1     -10.686  15.928  67.636  1.00  0.00    -0.312 C  
HETATM    5  N   UNL     1     -10.959  16.115  66.198  1.00  0.00    -0.120 NA 
HETATM    6  C   UNL     1      -9.471  18.176  66.340  1.00  0.00    -0.278 C  
HETATM    7  C   UNL     1     -10.814  17.554  65.877  1.00  0.00     0.014 C  
ENDROOT
BRANCH   5   8
HETATM    8  C   UNL     1     -10.071  15.337  65.326  1.00  0.00    -0.327 C  
BRANCH   8   9
HETATM    9  C   UNL     1      -9.953  13.876  65.693  1.00  0.00    -0.298 A  
HETATM   10  C   UNL     1      -8.875  13.513  66.515  1.00  0.00     0.005 A  
HETATM   11  C   UNL     1      -8.612  12.181  66.816  1.00  0.00    -0.163 A  
HETATM   12  C   UNL     1      -9.413  11.168  66.301  1.00  0.00    -0.196 A  
HETATM   13  C   UNL     1     -10.539  11.525  65.548  1.00  0.00    -0.334 A  
HETATM   14  F   UNL     1     -13.200  12.751  64.981  1.00  0.00    -0.481 F  
HETATM   15  C   UNL     1     -10.826  12.875  65.225  1.00  0.00    -0.316 A  
HETATM   16  F   UNL     1     -12.250  14.411  63.946  1.00  0.00    -0.489 F  
HETATM   17  C   UNL     1     -12.046  13.136  64.363  1.00  0.00    -0.410 C  
HETATM   18  F   UNL     1     -11.998  12.400  63.210  1.00  0.00    -0.506 F  
BRANCH  12  19
HETATM   19  N   UNL     1      -9.117   9.795  66.463  1.00  0.00    -0.149 N  
HETATM   20  O   UNL     1      -7.612   9.460  64.708  1.00  0.00    -0.105 OA 
HETATM   21  C   UNL     1      -8.279   9.047  65.650  1.00  0.00    -0.119 C  
HETATM   22  H   UNL     1      -9.559   9.312  67.246  1.00  0.00     0.000 HD 
BRANCH  21  23
HETATM   23  C   UNL     1      -8.224   7.589  65.923  1.00  0.00    -0.134 A  
HETATM   24  C   UNL     1      -8.594   7.153  67.204  1.00  0.00    -0.121 A  
HETATM   25  C   UNL     1      -8.592   5.793  67.523  1.00  0.00    -0.105 A  
HETATM   26  C   UNL     1      -7.866   6.657  64.948  1.00  0.00    -0.115 A  
HETATM   27  C   UNL     1      -8.216   4.851  66.551  1.00  0.00    -0.107 A  
HETATM   28  C   UNL     1      -7.863   5.298  65.263  1.00  0.00    -0.095 A  
HETATM   29  C   UNL     1      -8.187   3.369  66.808  1.00  0.00    -0.095 C  
BRANCH  25  30
HETATM   30  C   UNL     1      -8.954   5.410  68.859  1.00  0.00    -0.130 C  
HETATM   31  C   UNL     1      -9.208   5.080  69.986  1.00  0.00    -0.182 C  
BRANCH  31  32
HETATM   32  C   UNL     1      -9.402   4.625  71.318  1.00  0.00    -0.146 A  
HETATM   33  C   UNL     1     -10.604   4.402  71.952  1.00  0.00     0.055 A  
HETATM   34  N   UNL     1     -10.422   3.957  73.239  1.00  0.00    -0.165 NA 
HETATM   35  C   UNL     1      -9.115   3.904  73.392  1.00  0.00    -0.102 A  
HETATM   36  C   UNL     1      -8.339   3.516  74.507  1.00  0.00    -0.081 A  
HETATM   37  C   UNL     1      -7.005   3.547  74.418  1.00  0.00    -0.047 A  
HETATM   38  C   UNL     1      -6.421   3.997  73.129  1.00  0.00    -0.036 A  
HETATM   39  N   UNL     1      -7.078   4.363  72.077  1.00  0.00    -0.057 NA 
HETATM   40  N   UNL     1      -8.439   4.304  72.246  1.00  0.00    -0.103 NA 
ENDBRANCH  31  32
ENDBRANCH  25  30
ENDBRANCH  21  23
ENDBRANCH  12  19
ENDBRANCH   8   9
ENDBRANCH   5   8
TORSDOF 6
ENDMDL
MODEL       46
REMARK 921   NORMALIZED FREE ENERGY PREDICTED BY IDOCK:   -4.99 KCAL/MOL
REMARK 922        TOTAL FREE ENERGY PREDICTED BY IDOCK:   -8.05 KCAL/MOL
REMARK 923 INTER-LIGAND FREE ENERGY PREDICTED BY IDOCK:   -7.18 KCAL/MOL
REMARK 924 INTRA-LIGAND FREE ENERGY PREDICTED BY IDOCK:   -0.87 KCAL/MOL
REMARK 927      BINDING AFFINITY PREDICTED BY RF-SCORE:    0.00 PKD
ROOT
HETATM    1  C   UNL     1     -10.342  20.260  66.087  1.00  0.00    -0.268 C  
HETATM    2  N   UNL     1     -10.881  19.129  66.840  1.00  0.00    -0.412 NA 
HETATM    3  C   UNL     1     -10.626  17.854  66.137  1.00  0.00    -0.242 C  
HETATM    4  C   UNL     1      -9.174  17.331  66.243  1.00  0.00    -0.215 C  
HETATM    5  N   UNL     1      -8.651  17.246  67.621  1.00  0.00    -0.215 NA 
HETATM    6  C   UNL     1     -10.309  19.089  68.201  1.00  0.00    -0.368 C  
HETATM    7  C   UNL     1      -8.854  18.557  68.281  1.00  0.00    -0.310 C  
ENDROOT
BRANCH   5   8
HETATM    8  C   UNL     1      -9.289  16.199  68.427  1.00  0.00    -0.206 C  
BRANCH   8   9
HETATM    9  C   UNL     1      -9.090  14.795  67.903  1.00  0.00    -0.183 A  
HETATM   10  C   UNL     1      -7.772  14.315  67.859  1.00  0.00    -0.157 A  
HETATM   11  C   UNL     1      -7.469  13.084  67.290  1.00  0.00    -0.083 A  
HETATM   12  C   UNL     1      -8.472  12.294  66.739  1.00  0.00    -0.119 A  
HETATM   13  C   UNL     1      -9.801  12.726  66.852  1.00  0.00    -0.236 A  
HETATM   14  F   UNL     1     -12.339  13.506  68.215  1.00  0.00    -0.370 F  
HETATM   15  C   UNL     1     -10.133  13.979  67.426  1.00  0.00    -0.244 A  
HETATM   16  F   UNL     1     -11.909  15.611  67.879  1.00  0.00    -0.316 F  
HETATM   17  C   UNL     1     -11.601  14.361  67.450  1.00  0.00    -0.375 C  
HETATM   18  F   UNL     1     -12.148  14.282  66.198  1.00  0.00    -0.376 F  
BRANCH  12  19
HETATM   19  N   UNL     1      -8.210  11.098  66.031  1.00  0.00    -0.297 N  
HETATM   20  O   UNL     1      -9.848  11.205  64.368  1.00  0.00    -0.244 OA 
HETATM   21  C   UNL     1      -8.926  10.634  64.937  1.00  0.00    -0.199 C  
HETATM   22  H   UNL     1      -7.428  10.528  66.353  1.00  0.00     0.000 HD 
BRANCH  21  23
HETATM   23  C   UNL     1      -8.562   9.284  64.437  1.00  0.00    -0.216 A  
HETATM   24  C   UNL     1      -8.532   8.233  65.365  1.00  0.00    -0.189 A  
HETATM   25  C   UNL     1      -8.225   6.932  64.960  1.00  0.00    -0.096 A  
HETATM   26  C   UNL     1      -8.301   9.029  63.090  1.00  0.00    -0.195 A  
HETATM   27  C   UNL     1      -7.943   6.672  63.608  1.00  0.00    -0.070 A  
HETATM   28  C   UNL     1      -7.993   7.731  62.682  1.00  0.00    -0.132 A  
HETATM   29  C   UNL     1      -7.605   5.302  63.086  1.00  0.00    -0.068 C  
BRANCH  25  30
HETATM   30  C   UNL     1      -8.182   5.902  65.961  1.00  0.00    -0.123 C  
HETATM   31  C   UNL     1      -8.195   5.044  66.801  1.00  0.00    -0.107 C  
BRANCH  31  32
HETATM   32  C   UNL     1      -8.322   4.073  67.832  1.00  0.00    -0.093 A  
HETATM   33  C   UNL     1      -9.474   3.435  68.233  1.00  0.00    -0.148 A  
HETATM   34  N   UNL     1      -9.232   2.550  69.254  1.00  0.00    -0.125 NA 
HETATM   35  C   UNL     1      -7.937   2.641  69.476  1.00  0.00    -0.041 A  
HETATM   36  C   UNL     1      -7.118   1.967  70.408  1.00  0.00    -0.033 A  
HETATM   37  C   UNL     1      -5.808   2.235  70.443  1.00  0.00    -0.018 A  
HETATM   38  C   UNL     1      -5.297   3.244  69.481  1.00  0.00    -0.012 A  
HETATM   39  N   UNL     1      -5.996   3.892  68.606  1.00  0.00    -0.023 NA 
HETATM   40  N   UNL     1      -7.327   3.563  68.633  1.00  0.00    -0.050 NA 
ENDBRANCH  31  32
ENDBRANCH  25  30
ENDBRANCH  21  23
ENDBRANCH  12  19
ENDBRANCH   8   9
ENDBRANCH   5   8
TORSDOF 6
ENDMDL
MODEL       47
REMARK 921   NORMALIZED FREE ENERGY PREDICTED BY IDOCK:   -4.91 KCAL/MOL
REMARK 922        TOTAL FREE ENERGY PREDICTED BY IDOCK:   -7.95 KCAL/MOL
REMARK 923 INTER-LIGAND FREE ENERGY PREDICTED BY IDOCK:   -7.57 KCAL/MOL
REMARK 924 INTRA-LIGAND FREE ENERGY PREDICTED BY IDOCK:   -0.37 KCAL/MOL
REMARK 927      BINDING AFFINITY PREDICTED BY RF-SCORE:    0.00 PKD
ROOT
HETATM    1  C   UNL     1     -10.183  20.220  65.862  1.00  0.00    -0.231 C  
HETATM    2  N   UNL     1     -10.696  19.035  66.547  1.00  0.00    -0.377 NA 
HETATM    3  C   UNL     1      -9.935  17.828  66.161  1.00  0.00    -0.276 C  
HETATM    4  C   UNL     1      -8.541  17.698  66.819  1.00  0.00    -0.255 C  
HETATM    5  N   UNL     1      -8.541  17.830  68.289  1.00  0.00    -0.270 NA 
HETATM    6  C   UNL     1     -10.655  19.221  68.012  1.00  0.00    -0.327 C  
HETATM    7  C   UNL     1      -9.247  19.082  68.647  1.00  0.00    -0.368 C  
ENDROOT
BRANCH   5   8
HETATM    8  C   UNL     1      -9.181  16.704  68.979  1.00  0.00    -0.223 C  
BRANCH   8   9
HETATM    9  C   UNL     1      -8.947  15.357  68.333  1.00  0.00    -0.189 A  
HETATM   10  C   UNL     1     -10.042  14.766  67.684  1.00  0.00    -0.227 A  
HETATM   11  C   UNL     1      -9.964  13.482  67.158  1.00  0.00    -0.246 A  
HETATM   12  C   UNL     1      -8.792  12.742  67.270  1.00  0.00    -0.198 A  
HETATM   13  C   UNL     1      -7.669  13.354  67.842  1.00  0.00    -0.153 A  
HETATM   14  F   UNL     1      -5.445  15.324  68.120  1.00  0.00    -0.095 F  
HETATM   15  C   UNL     1      -7.725  14.661  68.388  1.00  0.00    -0.125 A  
HETATM   16  F   UNL     1      -6.544  16.395  69.660  1.00  0.00    -0.194 F  
HETATM   17  C   UNL     1      -6.458  15.199  69.025  1.00  0.00    -0.106 C  
HETATM   18  F   UNL     1      -5.983  14.337  69.975  1.00  0.00    -0.104 F  
BRANCH  12  19
HETATM   19  N   UNL     1      -8.695  11.388  66.874  1.00  0.00    -0.159 N  
HETATM   20  O   UNL     1     -10.639  10.512  67.829  1.00  0.00    -0.206 OA 
HETATM   21  C   UNL     1      -9.593  10.384  67.205  1.00  0.00    -0.164 C  
HETATM   22  H   UNL     1      -7.896  11.127  66.296  1.00  0.00     0.000 HD 
BRANCH  21  23
HETATM   23  C   UNL     1      -9.218   9.006  66.797  1.00  0.00    -0.198 A  
HETATM   24  C   UNL     1      -9.436   7.973  67.721  1.00  0.00    -0.166 A  
HETATM   25  C   UNL     1      -9.133   6.649  67.395  1.00  0.00    -0.120 A  
HETATM   26  C   UNL     1      -8.711   8.711  65.531  1.00  0.00    -0.219 A  
HETATM   27  C   UNL     1      -8.605   6.347  66.128  1.00  0.00    -0.144 A  
HETATM   28  C   UNL     1      -8.406   7.389  65.202  1.00  0.00    -0.085 A  
HETATM   29  C   UNL     1      -8.252   4.951  65.694  1.00  0.00    -0.115 C  
BRANCH  25  30
HETATM   30  C   UNL     1      -9.351   5.638  68.392  1.00  0.00    -0.133 C  
HETATM   31  C   UNL     1      -9.486   4.795  69.237  1.00  0.00    -0.221 C  
BRANCH  31  32
HETATM   32  C   UNL     1      -9.522   3.771  70.223  1.00  0.00    -0.187 A  
HETATM   33  C   UNL     1      -9.105   2.467  70.080  1.00  0.00    -0.113 A  
HETATM   34  N   UNL     1      -9.279   1.752  71.240  1.00  0.00    -0.087 NA 
HETATM   35  C   UNL     1      -9.796   2.614  72.090  1.00  0.00    -0.165 A  
HETATM   36  C   UNL     1     -10.184   2.450  73.439  1.00  0.00    -0.196 A  
HETATM   37  C   UNL     1     -10.693   3.493  74.105  1.00  0.00    -0.255 A  
HETATM   38  C   UNL     1     -10.819   4.774  73.365  1.00  0.00    -0.291 A  
HETATM   39  N   UNL     1     -10.482   4.984  72.134  1.00  0.00    -0.214 NA 
HETATM   40  N   UNL     1      -9.969   3.869  71.520  1.00  0.00    -0.171 NA 
ENDBRANCH  31  32
ENDBRANCH  25  30
ENDBRANCH  21  23
ENDBRANCH  12  19
ENDBRANCH   8   9
ENDBRANCH   5   8
TORSDOF 6
ENDMDL
MODEL       48
REMARK 921   NORMALIZED FREE ENERGY PREDICTED BY IDOCK:   -4.89 KCAL/MOL
REMARK 922        TOTAL FREE ENERGY PREDICTED BY IDOCK:   -7.92 KCAL/MOL
REMARK 923 INTER-LIGAND FREE ENERGY PREDICTED BY IDOCK:   -7.39 KCAL/MOL
REMARK 924 INTRA-LIGAND FREE ENERGY PREDICTED BY IDOCK:   -0.54 KCAL/MOL
REMARK 927      BINDING AFFINITY PREDICTED BY RF-SCORE:    0.00 PKD
ROOT
HETATM    1  C   UNL     1      -8.415   3.075  72.038  1.00  0.00    -0.069 C  
HETATM    2  N   UNL     1      -7.450   3.621  71.084  1.00  0.00    -0.043 NA 
HETATM    3  C   UNL     1      -7.032   2.595  70.106  1.00  0.00    -0.033 C  
HETATM    4  C   UNL     1      -8.068   2.288  68.999  1.00  0.00    -0.051 C  
HETATM    5  N   UNL     1      -8.569   3.476  68.281  1.00  0.00    -0.089 NA 
HETATM    6  C   UNL     1      -8.014   4.795  70.387  1.00  0.00    -0.065 C  
HETATM    7  C   UNL     1      -9.048   4.460  69.279  1.00  0.00    -0.117 C  
ENDROOT
BRANCH   5   8
HETATM    8  C   UNL     1      -7.561   4.112  67.425  1.00  0.00    -0.076 C  
BRANCH   8   9
HETATM    9  C   UNL     1      -7.982   5.440  66.838  1.00  0.00    -0.101 A  
HETATM   10  C   UNL     1      -7.317   6.582  67.311  1.00  0.00    -0.087 A  
HETATM   11  C   UNL     1      -7.707   7.859  66.920  1.00  0.00    -0.099 A  
HETATM   12  C   UNL     1      -8.777   8.036  66.051  1.00  0.00    -0.157 A  
HETATM   13  C   UNL     1      -9.394   6.900  65.509  1.00  0.00     0.391 A  
HETATM   14  F   UNL     1      -9.627   4.383  63.924  1.00  0.00    -0.158 F  
HETATM   15  C   UNL     1      -9.016   5.589  65.894  1.00  0.00    -0.158 A  
HETATM   16  F   UNL     1      -9.517   3.192  65.740  1.00  0.00    -0.157 F  
HETATM   17  C   UNL     1      -9.788   4.439  65.278  1.00  0.00    -0.199 C  
HETATM   18  F   UNL     1     -11.134   4.592  65.470  1.00  0.00    -0.344 F  
BRANCH  12  19
HETATM   19  N   UNL     1      -9.301   9.309  65.724  1.00  0.00    -0.226 N  
HETATM   20  O   UNL     1      -9.864  10.109  67.846  1.00  0.00    -0.148 OA 
HETATM   21  C   UNL     1      -9.826  10.222  66.626  1.00  0.00    -0.204 C  
HETATM   22  H   UNL     1      -9.292   9.578  64.740  1.00  0.00     0.000 HD 
BRANCH  21  23
HETATM   23  C   UNL     1     -10.448  11.438  66.045  1.00  0.00    -0.305 A  
HETATM   24  C   UNL     1     -10.010  12.683  66.520  1.00  0.00    -0.256 A  
HETATM   25  C   UNL     1     -10.532  13.870  65.999  1.00  0.00    -0.299 A  
HETATM   26  C   UNL     1     -11.403  11.379  65.029  1.00  0.00    -0.090 A  
HETATM   27  C   UNL     1     -11.507  13.816  64.988  1.00  0.00    -0.340 A  
HETATM   28  C   UNL     1     -11.927  12.562  64.507  1.00  0.00    -0.472 A  
HETATM   29  C   UNL     1     -12.121  15.043  64.370  1.00  0.00    -0.373 C  
BRANCH  25  30
HETATM   30  C   UNL     1     -10.065  15.113  66.545  1.00  0.00    -0.279 C  
HETATM   31  C   UNL     1      -9.719  16.172  66.994  1.00  0.00    -0.236 C  
BRANCH  31  32
HETATM   32  C   UNL     1      -9.403  17.477  67.461  1.00  0.00    -0.246 A  
HETATM   33  C   UNL     1     -10.168  18.614  67.324  1.00  0.00    -0.376 A  
HETATM   34  N   UNL     1      -9.561  19.703  67.901  1.00  0.00    -0.340 NA 
HETATM   35  C   UNL     1      -8.432  19.236  68.392  1.00  0.00    -0.351 A  
HETATM   36  C   UNL     1      -7.399  19.892  69.097  1.00  0.00    -0.223 A  
HETATM   37  C   UNL     1      -6.333  19.192  69.500  1.00  0.00    -0.318 A  
HETATM   38  C   UNL     1      -6.309  17.744  69.168  1.00  0.00    -0.233 A  
HETATM   39  N   UNL     1      -7.223  17.089  68.528  1.00  0.00    -0.199 NA 
HETATM   40  N   UNL     1      -8.281  17.876  68.150  1.00  0.00    -0.261 NA 
ENDBRANCH  31  32
ENDBRANCH  25  30
ENDBRANCH  21  23
ENDBRANCH  12  19
ENDBRANCH   8   9
ENDBRANCH   5   8
TORSDOF 6
ENDMDL
MODEL       49
REMARK 921   NORMALIZED FREE ENERGY PREDICTED BY IDOCK:   -4.82 KCAL/MOL
REMARK 922        TOTAL FREE ENERGY PREDICTED BY IDOCK:   -7.82 KCAL/MOL
REMARK 923 INTER-LIGAND FREE ENERGY PREDICTED BY IDOCK:   -7.53 KCAL/MOL
REMARK 924 INTRA-LIGAND FREE ENERGY PREDICTED BY IDOCK:   -0.29 KCAL/MOL
REMARK 927      BINDING AFFINITY PREDICTED BY RF-SCORE:    0.00 PKD
ROOT
HETATM    1  C   UNL     1      -7.219  20.729  67.786  1.00  0.00    -0.234 C  
HETATM    2  N   UNL     1      -8.245  20.030  67.012  1.00  0.00    -0.309 NA 
HETATM    3  C   UNL     1      -7.655  19.356  65.836  1.00  0.00    -0.269 C  
HETATM    4  C   UNL     1      -6.893  18.048  66.149  1.00  0.00    -0.277 C  
HETATM    5  N   UNL     1      -7.657  17.068  66.946  1.00  0.00    -0.187 NA 
HETATM    6  C   UNL     1      -8.961  19.055  67.858  1.00  0.00    -0.300 C  
HETATM    7  C   UNL     1      -8.177  17.749  68.154  1.00  0.00    -0.260 C  
ENDROOT
BRANCH   5   8
HETATM    8  C   UNL     1      -8.777  16.464  66.216  1.00  0.00    -0.334 C  
BRANCH   8   9
HETATM    9  C   UNL     1      -9.189  15.098  66.714  1.00  0.00    -0.277 A  
HETATM   10  C   UNL     1      -8.505  14.599  67.834  1.00  0.00    -0.158 A  
HETATM   11  C   UNL     1      -8.728  13.309  68.302  1.00  0.00    -0.168 A  
HETATM   12  C   UNL     1      -9.635  12.472  67.663  1.00  0.00    -0.190 A  
HETATM   13  C   UNL     1     -10.383  12.988  66.596  1.00  0.00    -0.263 A  
HETATM   14  F   UNL     1     -12.338  14.761  65.203  1.00  0.00    -0.353 F  
HETATM   15  C   UNL     1     -10.171  14.299  66.099  1.00  0.00    -0.317 A  
HETATM   16  F   UNL     1     -10.716  15.934  64.352  1.00  0.00    -0.372 F  
HETATM   17  C   UNL     1     -11.006  14.731  64.909  1.00  0.00    -0.412 C  
HETATM   18  F   UNL     1     -10.890  13.838  63.879  1.00  0.00    -0.277 F  
BRANCH  12  19
HETATM   19  N   UNL     1      -9.806  11.112  68.010  1.00  0.00    -0.170 N  
HETATM   20  O   UNL     1      -8.042  10.819  69.514  1.00  0.00    -0.104 OA 
HETATM   21  C   UNL     1      -8.992  10.390  68.870  1.00  0.00    -0.169 C  
HETATM   22  H   UNL     1     -10.595  10.619  67.592  1.00  0.00     0.000 HD 
BRANCH  21  23
HETATM   23  C   UNL     1      -9.276   8.937  68.981  1.00  0.00    -0.140 A  
HETATM   24  C   UNL     1      -8.745   8.093  67.994  1.00  0.00    -0.128 A  
HETATM   25  C   UNL     1      -8.949   6.712  68.051  1.00  0.00    -0.117 A  
HETATM   26  C   UNL     1     -10.002   8.394  70.043  1.00  0.00    -0.188 A  
HETATM   27  C   UNL     1      -9.694   6.162  69.107  1.00  0.00    -0.164 A  
HETATM   28  C   UNL     1     -10.208   7.016  70.102  1.00  0.00    -0.206 A  
HETATM   29  C   UNL     1      -9.961   4.687  69.246  1.00  0.00    -0.231 C  
BRANCH  25  30
HETATM   30  C   UNL     1      -8.404   5.903  66.996  1.00  0.00    -0.105 C  
HETATM   31  C   UNL     1      -7.986   5.240  66.086  1.00  0.00    -0.104 C  
BRANCH  31  32
HETATM   32  C   UNL     1      -7.608   4.458  64.961  1.00  0.00    -0.077 A  
HETATM   33  C   UNL     1      -6.368   4.410  64.364  1.00  0.00    -0.034 A  
HETATM   34  N   UNL     1      -6.353   3.540  63.301  1.00  0.00    -0.021 NA 
HETATM   35  C   UNL     1      -7.576   3.054  63.249  1.00  0.00    -0.063 A  
HETATM   36  C   UNL     1      -8.152   2.114  62.366  1.00  0.00    -0.063 A  
HETATM   37  C   UNL     1      -9.436   1.774  62.517  1.00  0.00    -0.089 A  
HETATM   38  C   UNL     1     -10.183   2.422  63.625  1.00  0.00    -0.149 A  
HETATM   39  N   UNL     1      -9.711   3.287  64.464  1.00  0.00    -0.163 NA 
HETATM   40  N   UNL     1      -8.390   3.583  64.243  1.00  0.00    -0.090 NA 
ENDBRANCH  31  32
ENDBRANCH  25  30
ENDBRANCH  21  23
ENDBRANCH  12  19
ENDBRANCH   8   9
ENDBRANCH   5   8
TORSDOF 6
ENDMDL
MODEL       50
REMARK 921   NORMALIZED FREE ENERGY PREDICTED BY IDOCK:   -4.78 KCAL/MOL
REMARK 922        TOTAL FREE ENERGY PREDICTED BY IDOCK:   -7.77 KCAL/MOL
REMARK 923 INTER-LIGAND FREE ENERGY PREDICTED BY IDOCK:   -6.62 KCAL/MOL
REMARK 924 INTRA-LIGAND FREE ENERGY PREDICTED BY IDOCK:   -1.16 KCAL/MOL
REMARK 927      BINDING AFFINITY PREDICTED BY RF-SCORE:    0.00 PKD
ROOT
HETATM    1  C   UNL     1     -11.471   1.988  73.604  1.00  0.00    -0.213 C  
HETATM    2  N   UNL     1     -10.049   2.264  73.405  1.00  0.00    -0.099 NA 
HETATM    3  C   UNL     1      -9.711   2.293  71.967  1.00  0.00    -0.140 C  
HETATM    4  C   UNL     1     -10.142   3.577  71.221  1.00  0.00     0.076 C  
HETATM    5  N   UNL     1      -9.699   4.834  71.855  1.00  0.00    -0.156 NA 
HETATM    6  C   UNL     1      -9.671   3.540  74.047  1.00  0.00    -0.106 C  
HETATM    7  C   UNL     1     -10.112   4.812  73.277  1.00  0.00    -0.160 C  
ENDROOT
BRANCH   5   8
HETATM    8  C   UNL     1      -8.249   5.049  71.779  1.00  0.00    -0.116 C  
BRANCH   8   9
HETATM    9  C   UNL     1      -7.843   6.417  71.281  1.00  0.00    -0.104 A  
HETATM   10  C   UNL     1      -7.728   7.434  72.243  1.00  0.00    -0.098 A  
HETATM   11  C   UNL     1      -7.472   8.750  71.875  1.00  0.00    -0.051 A  
HETATM   12  C   UNL     1      -7.329   9.096  70.537  1.00  0.00    -0.103 A  
HETATM   13  C   UNL     1      -7.360   8.076  69.576  1.00  0.00    -0.086 A  
HETATM   14  F   UNL     1      -6.482   5.606  68.151  1.00  0.00    -0.036 F  
HETATM   15  C   UNL     1      -7.622   6.727  69.926  1.00  0.00    -0.100 A  
HETATM   16  F   UNL     1      -8.057   4.454  69.111  1.00  0.00    -0.067 F  
HETATM   17  C   UNL     1      -7.679   5.718  68.795  1.00  0.00    -0.090 C  
HETATM   18  F   UNL     1      -8.566   6.112  67.831  1.00  0.00    -0.115 F  
BRANCH  12  19
HETATM   19  N   UNL     1      -7.200  10.433  70.095  1.00  0.00    -0.249 N  
HETATM   20  O   UNL     1      -5.129  11.001  71.015  1.00  0.00    -0.091 OA 
HETATM   21  C   UNL     1      -6.144  11.282  70.389  1.00  0.00    -0.120 C  
HETATM   22  H   UNL     1      -7.949  10.806  69.511  1.00  0.00     0.000 HD 
BRANCH  21  23
HETATM   23  C   UNL     1      -6.284  12.689  69.937  1.00  0.00    -0.088 A  
HETATM   24  C   UNL     1      -7.284  12.973  68.995  1.00  0.00     0.014 A  
HETATM   25  C   UNL     1      -7.490  14.279  68.545  1.00  0.00    -0.121 A  
HETATM   26  C   UNL     1      -5.496  13.723  70.447  1.00  0.00    -0.127 A  
HETATM   27  C   UNL     1      -6.689  15.321  69.041  1.00  0.00    -0.122 A  
HETATM   28  C   UNL     1      -5.700  15.028  69.999  1.00  0.00    -0.128 A  
HETATM   29  C   UNL     1      -6.843  16.755  68.612  1.00  0.00    -0.175 C  
BRANCH  25  30
HETATM   30  C   UNL     1      -8.510  14.503  67.558  1.00  0.00    -0.201 C  
HETATM   31  C   UNL     1      -9.364  14.642  66.725  1.00  0.00    -0.275 C  
BRANCH  31  32
HETATM   32  C   UNL     1     -10.338  14.696  65.691  1.00  0.00    -0.351 A  
HETATM   33  C   UNL     1     -10.913  15.825  65.152  1.00  0.00    -0.382 A  
HETATM   34  N   UNL     1     -11.813  15.510  64.163  1.00  0.00    -0.443 NA 
HETATM   35  C   UNL     1     -11.787  14.195  64.093  1.00  0.00    -0.337 A  
HETATM   36  C   UNL     1     -12.500  13.308  63.257  1.00  0.00    -0.208 A  
HETATM   37  C   UNL     1     -12.299  11.991  63.376  1.00  0.00    -0.635 A  
HETATM   38  C   UNL     1     -11.320  11.545  64.400  1.00  0.00    -0.209 A  
HETATM   39  N   UNL     1     -10.638  12.308  65.191  1.00  0.00    -0.276 NA 
HETATM   40  N   UNL     1     -10.900  13.642  65.009  1.00  0.00    -0.331 NA 
ENDBRANCH  31  32
ENDBRANCH  25  30
ENDBRANCH  21  23
ENDBRANCH  12  19
ENDBRANCH   8   9
ENDBRANCH   5   8
TORSDOF 6
ENDMDL
MODEL       51
REMARK 921   NORMALIZED FREE ENERGY PREDICTED BY IDOCK:   -4.75 KCAL/MOL
REMARK 922        TOTAL FREE ENERGY PREDICTED BY IDOCK:   -7.73 KCAL/MOL
REMARK 923 INTER-LIGAND FREE ENERGY PREDICTED BY IDOCK:   -7.08 KCAL/MOL
REMARK 924 INTRA-LIGAND FREE ENERGY PREDICTED BY IDOCK:   -0.65 KCAL/MOL
REMARK 927      BINDING AFFINITY PREDICTED BY RF-SCORE:    0.00 PKD
ROOT
HETATM    1  C   UNL     1      -9.948   1.558  69.084  1.00  0.00     0.301 C  
HETATM    2  N   UNL     1      -8.850   2.516  69.210  1.00  0.00    -0.084 NA 
HETATM    3  C   UNL     1      -9.271   3.865  68.777  1.00  0.00    -0.152 C  
HETATM    4  C   UNL     1     -10.155   4.628  69.791  1.00  0.00    -0.173 C  
HETATM    5  N   UNL     1      -9.601   4.701  71.157  1.00  0.00    -0.159 NA 
HETATM    6  C   UNL     1      -8.350   2.555  70.599  1.00  0.00    -0.049 C  
HETATM    7  C   UNL     1      -9.253   3.329  71.595  1.00  0.00    -0.117 C  
ENDROOT
BRANCH   5   8
HETATM    8  C   UNL     1      -8.412   5.555  71.262  1.00  0.00    -0.127 C  
BRANCH   8   9
HETATM    9  C   UNL     1      -8.536   6.892  70.569  1.00  0.00    -0.137 A  
HETATM   10  C   UNL     1      -9.572   7.736  70.999  1.00  0.00    -0.170 A  
HETATM   11  C   UNL     1      -9.843   8.936  70.352  1.00  0.00    -0.224 A  
HETATM   12  C   UNL     1      -9.093   9.330  69.250  1.00  0.00    -0.151 A  
HETATM   13  C   UNL     1      -8.005   8.535  68.864  1.00  0.00    -0.118 A  
HETATM   14  F   UNL     1      -5.358   7.179  69.109  1.00  0.00    -0.013 F  
HETATM   15  C   UNL     1      -7.711   7.306  69.506  1.00  0.00    -0.113 A  
HETATM   16  F   UNL     1      -6.334   5.275  69.497  1.00  0.00    -0.028 F  
HETATM   17  C   UNL     1      -6.538   6.509  68.969  1.00  0.00    -0.047 C  
HETATM   18  F   UNL     1      -6.666   6.292  67.625  1.00  0.00    -0.051 F  
BRANCH  12  19
HETATM   19  N   UNL     1      -9.405  10.470  68.473  1.00  0.00    -0.160 N  
HETATM   20  O   UNL     1     -11.076  11.448  69.781  1.00  0.00    -0.221 OA 
HETATM   21  C   UNL     1     -10.379  11.410  68.774  1.00  0.00    -0.204 C  
HETATM   22  H   UNL     1      -8.868  10.612  67.617  1.00  0.00     0.000 HD 
BRANCH  21  23
HETATM   23  C   UNL     1     -10.630  12.450  67.744  1.00  0.00    -0.236 A  
HETATM   24  C   UNL     1      -9.749  13.540  67.692  1.00  0.00    -0.229 A  
HETATM   25  C   UNL     1      -9.909  14.542  66.731  1.00  0.00    -0.271 A  
HETATM   26  C   UNL     1     -11.670  12.351  66.818  1.00  0.00    -0.430 A  
HETATM   27  C   UNL     1     -10.965  14.457  65.807  1.00  0.00    -0.314 A  
HETATM   28  C   UNL     1     -11.833  13.350  65.858  1.00  0.00    -0.414 A  
HETATM   29  C   UNL     1     -11.210  15.489  64.740  1.00  0.00    -0.399 C  
BRANCH  25  30
HETATM   30  C   UNL     1      -8.993  15.647  66.745  1.00  0.00    -0.291 C  
HETATM   31  C   UNL     1      -8.199  16.549  66.722  1.00  0.00    -0.279 C  
BRANCH  31  32
HETATM   32  C   UNL     1      -7.177  17.534  66.649  1.00  0.00    -0.234 A  
HETATM   33  C   UNL     1      -6.341  17.784  65.584  1.00  0.00    -0.116 A  
HETATM   34  N   UNL     1      -5.474  18.814  65.854  1.00  0.00    -0.153 NA 
HETATM   35  C   UNL     1      -5.779  19.197  67.077  1.00  0.00    -0.166 A  
HETATM   36  C   UNL     1      -5.226  20.217  67.882  1.00  0.00    -0.213 A  
HETATM   37  C   UNL     1      -5.714  20.419  69.111  1.00  0.00    -0.349 A  
HETATM   38  C   UNL     1      -6.825  19.537  69.552  1.00  0.00    -0.296 A  
HETATM   39  N   UNL     1      -7.372  18.590  68.861  1.00  0.00    -0.288 NA 
HETATM   40  N   UNL     1      -6.817  18.446  67.614  1.00  0.00    -0.205 NA 
ENDBRANCH  31  32
ENDBRANCH  25  30
ENDBRANCH  21  23
ENDBRANCH  12  19
ENDBRANCH   8   9
ENDBRANCH   5   8
TORSDOF 6
ENDMDL
MODEL       52
REMARK 921   NORMALIZED FREE ENERGY PREDICTED BY IDOCK:   -4.54 KCAL/MOL
REMARK 922        TOTAL FREE ENERGY PREDICTED BY IDOCK:   -7.45 KCAL/MOL
REMARK 923 INTER-LIGAND FREE ENERGY PREDICTED BY IDOCK:   -6.85 KCAL/MOL
REMARK 924 INTRA-LIGAND FREE ENERGY PREDICTED BY IDOCK:   -0.59 KCAL/MOL
REMARK 927      BINDING AFFINITY PREDICTED BY RF-SCORE:    0.00 PKD
ROOT
HETATM    1  C   UNL     1     -10.438  20.306  68.532  1.00  0.00    -0.037 C  
HETATM    2  N   UNL     1      -9.362  19.426  68.079  1.00  0.00    -0.324 NA 
HETATM    3  C   UNL     1      -9.511  18.070  68.648  1.00  0.00    -0.309 C  
HETATM    4  C   UNL     1     -10.603  17.201  67.982  1.00  0.00    -0.374 C  
HETATM    5  N   UNL     1     -10.505  17.110  66.512  1.00  0.00    -0.292 NA 
HETATM    6  C   UNL     1      -9.324  19.364  66.604  1.00  0.00    -0.349 C  
HETATM    7  C   UNL     1     -10.428  18.483  65.962  1.00  0.00    -0.400 C  
ENDROOT
BRANCH   5   8
HETATM    8  C   UNL     1      -9.343  16.341  66.049  1.00  0.00    -0.326 C  
BRANCH   8   9
HETATM    9  C   UNL     1      -9.245  14.946  66.622  1.00  0.00    -0.302 A  
HETATM   10  C   UNL     1     -10.275  14.051  66.292  1.00  0.00    -0.300 A  
HETATM   11  C   UNL     1     -10.339  12.782  66.857  1.00  0.00    -0.245 A  
HETATM   12  C   UNL     1      -9.381  12.369  67.776  1.00  0.00    -0.196 A  
HETATM   13  C   UNL     1      -8.304  13.223  68.049  1.00  0.00    -0.162 A  
HETATM   14  F   UNL     1      -5.849  14.825  67.495  1.00  0.00    -0.139 F  
HETATM   15  C   UNL     1      -8.219  14.522  67.487  1.00  0.00    -0.201 A  
HETATM   16  F   UNL     1      -7.016  16.660  67.461  1.00  0.00    -0.130 F  
HETATM   17  C   UNL     1      -7.033  15.374  67.894  1.00  0.00    -0.145 C  
HETATM   18  F   UNL     1      -6.940  15.468  69.256  1.00  0.00    -0.125 F  
BRANCH  12  19
HETATM   19  N   UNL     1      -9.468  11.145  68.481  1.00  0.00    -0.188 N  
HETATM   20  O   UNL     1      -7.407  11.128  69.582  1.00  0.00    -0.085 OA 
HETATM   21  C   UNL     1      -8.478  10.609  69.292  1.00  0.00    -0.091 C  
HETATM   22  H   UNL     1     -10.332  10.612  68.385  1.00  0.00     0.000 HD 
BRANCH  21  23
HETATM   23  C   UNL     1      -8.729   9.246  69.823  1.00  0.00    -0.168 A  
HETATM   24  C   UNL     1      -8.316   8.157  69.041  1.00  0.00    -0.128 A  
HETATM   25  C   UNL     1      -8.495   6.847  69.490  1.00  0.00    -0.133 A  
HETATM   26  C   UNL     1      -9.310   9.023  71.072  1.00  0.00    -0.339 A  
HETATM   27  C   UNL     1      -9.096   6.616  70.739  1.00  0.00    -0.151 A  
HETATM   28  C   UNL     1      -9.491   7.716  71.524  1.00  0.00    -0.166 A  
HETATM   29  C   UNL     1      -9.326   5.239  71.300  1.00  0.00    -0.187 C  
BRANCH  25  30
HETATM   30  C   UNL     1      -8.078   5.773  68.632  1.00  0.00    -0.101 C  
HETATM   31  C   UNL     1      -7.768   4.849  67.930  1.00  0.00    -0.083 C  
BRANCH  31  32
HETATM   32  C   UNL     1      -7.469   3.682  67.175  1.00  0.00    -0.071 A  
HETATM   33  C   UNL     1      -6.648   2.642  67.547  1.00  0.00    -0.036 A  
HETATM   34  N   UNL     1      -6.591   1.672  66.575  1.00  0.00    -0.026 NA 
HETATM   35  C   UNL     1      -7.376   2.114  65.615  1.00  0.00    -0.066 A  
HETATM   36  C   UNL     1      -7.709   1.540  64.368  1.00  0.00    -0.060 A  
HETATM   37  C   UNL     1      -8.542   2.191  63.549  1.00  0.00    -0.085 A  
HETATM   38  C   UNL     1      -9.068   3.499  64.017  1.00  0.00    -0.119 A  
HETATM   39  N   UNL     1      -8.801   4.073  65.146  1.00  0.00    -0.123 NA 
HETATM   40  N   UNL     1      -7.941   3.344  65.928  1.00  0.00    -0.091 NA 
ENDBRANCH  31  32
ENDBRANCH  25  30
ENDBRANCH  21  23
ENDBRANCH  12  19
ENDBRANCH   8   9
ENDBRANCH   5   8
TORSDOF 6
ENDMDL
MODEL       53
REMARK 921   NORMALIZED FREE ENERGY PREDICTED BY IDOCK:   -4.45 KCAL/MOL
REMARK 922        TOTAL FREE ENERGY PREDICTED BY IDOCK:   -7.32 KCAL/MOL
REMARK 923 INTER-LIGAND FREE ENERGY PREDICTED BY IDOCK:   -7.08 KCAL/MOL
REMARK 924 INTRA-LIGAND FREE ENERGY PREDICTED BY IDOCK:   -0.24 KCAL/MOL
REMARK 927      BINDING AFFINITY PREDICTED BY RF-SCORE:    0.00 PKD
ROOT
HETATM    1  C   UNL     1     -10.454  20.152  65.812  1.00  0.00    -0.280 C  
HETATM    2  N   UNL     1     -10.874  19.151  66.792  1.00  0.00    -0.383 NA 
HETATM    3  C   UNL     1     -10.455  17.795  66.378  1.00  0.00    -0.297 C  
HETATM    4  C   UNL     1      -8.955  17.483  66.589  1.00  0.00    -0.263 C  
HETATM    5  N   UNL     1      -8.457  17.758  67.952  1.00  0.00    -0.240 NA 
HETATM    6  C   UNL     1     -10.333  19.470  68.128  1.00  0.00    -0.433 C  
HETATM    7  C   UNL     1      -8.828  19.145  68.316  1.00  0.00    -0.337 C  
ENDROOT
BRANCH   5   8
HETATM    8  C   UNL     1      -8.986  16.838  68.965  1.00  0.00    -0.188 C  
BRANCH   8   9
HETATM    9  C   UNL     1      -8.996  15.384  68.550  1.00  0.00    -0.192 A  
HETATM   10  C   UNL     1     -10.250  14.804  68.302  1.00  0.00    -0.227 A  
HETATM   11  C   UNL     1     -10.377  13.447  68.026  1.00  0.00    -0.242 A  
HETATM   12  C   UNL     1      -9.257  12.624  67.996  1.00  0.00    -0.208 A  
HETATM   13  C   UNL     1      -7.994  13.209  68.161  1.00  0.00    -0.154 A  
HETATM   14  F   UNL     1      -5.666  14.965  67.526  1.00  0.00    -0.129 F  
HETATM   15  C   UNL     1      -7.840  14.589  68.446  1.00  0.00    -0.135 A  
HETATM   16  F   UNL     1      -6.284  16.387  69.051  1.00  0.00    -0.132 F  
HETATM   17  C   UNL     1      -6.426  15.098  68.651  1.00  0.00    -0.087 C  
HETATM   18  F   UNL     1      -5.776  14.368  69.608  1.00  0.00    -0.090 F  
BRANCH  12  19
HETATM   19  N   UNL     1      -9.337  11.219  67.853  1.00  0.00    -0.156 N  
HETATM   20  O   UNL     1     -11.645  10.931  67.635  1.00  0.00    -0.531 OA 
HETATM   21  C   UNL     1     -10.506  10.487  67.718  1.00  0.00    -0.224 C  
HETATM   22  H   UNL     1      -8.458  10.701  67.849  1.00  0.00     0.000 HD 
BRANCH  21  23
HETATM   23  C   UNL     1     -10.362   9.009  67.723  1.00  0.00    -0.304 A  
HETATM   24  C   UNL     1      -9.962   8.398  68.920  1.00  0.00    -0.194 A  
HETATM   25  C   UNL     1      -9.832   7.010  69.005  1.00  0.00    -0.154 A  
HETATM   26  C   UNL     1     -10.653   8.224  66.605  1.00  0.00    -0.085 A  
HETATM   27  C   UNL     1     -10.105   6.216  67.878  1.00  0.00    -0.179 A  
HETATM   28  C   UNL     1     -10.523   6.838  66.686  1.00  0.00    -0.213 A  
HETATM   29  C   UNL     1      -9.993   4.715  67.881  1.00  0.00    -0.138 C  
BRANCH  25  30
HETATM   30  C   UNL     1      -9.391   6.445  70.249  1.00  0.00    -0.165 C  
HETATM   31  C   UNL     1      -9.000   5.936  71.265  1.00  0.00    -0.145 C  
BRANCH  31  32
HETATM   32  C   UNL     1      -8.529   5.226  72.403  1.00  0.00    -0.122 A  
HETATM   33  C   UNL     1      -8.724   5.556  73.725  1.00  0.00    -0.118 A  
HETATM   34  N   UNL     1      -8.134   4.643  74.565  1.00  0.00    -0.094 NA 
HETATM   35  C   UNL     1      -7.583   3.757  73.762  1.00  0.00    -0.070 A  
HETATM   36  C   UNL     1      -6.843   2.590  74.056  1.00  0.00    -0.027 A  
HETATM   37  C   UNL     1      -6.379   1.838  73.052  1.00  0.00    -0.009 A  
HETATM   38  C   UNL     1      -6.680   2.292  71.671  1.00  0.00    -0.019 A  
HETATM   39  N   UNL     1      -7.352   3.347  71.340  1.00  0.00    -0.036 NA 
HETATM   40  N   UNL     1      -7.792   4.064  72.423  1.00  0.00    -0.079 NA 
ENDBRANCH  31  32
ENDBRANCH  25  30
ENDBRANCH  21  23
ENDBRANCH  12  19
ENDBRANCH   8   9
ENDBRANCH   5   8
TORSDOF 6
ENDMDL
MODEL       54
REMARK 921   NORMALIZED FREE ENERGY PREDICTED BY IDOCK:   -4.32 KCAL/MOL
REMARK 922        TOTAL FREE ENERGY PREDICTED BY IDOCK:   -7.15 KCAL/MOL
REMARK 923 INTER-LIGAND FREE ENERGY PREDICTED BY IDOCK:   -7.04 KCAL/MOL
REMARK 924 INTRA-LIGAND FREE ENERGY PREDICTED BY IDOCK:   -0.11 KCAL/MOL
REMARK 927      BINDING AFFINITY PREDICTED BY RF-SCORE:    0.00 PKD
ROOT
HETATM    1  C   UNL     1      -5.978  21.170  66.930  1.00  0.00    -0.301 C  
HETATM    2  N   UNL     1      -7.259  20.476  66.801  1.00  0.00    -0.281 NA 
HETATM    3  C   UNL     1      -7.374  19.816  65.483  1.00  0.00    -0.206 C  
HETATM    4  C   UNL     1      -6.563  18.507  65.337  1.00  0.00    -0.222 C  
HETATM    5  N   UNL     1      -6.800  17.516  66.406  1.00  0.00    -0.245 NA 
HETATM    6  C   UNL     1      -7.430  19.489  67.886  1.00  0.00    -0.275 C  
HETATM    7  C   UNL     1      -6.610  18.184  67.714  1.00  0.00    -0.189 C  
ENDROOT
BRANCH   5   8
HETATM    8  C   UNL     1      -8.139  16.916  66.363  1.00  0.00    -0.315 C  
BRANCH   8   9
HETATM    9  C   UNL     1      -8.253  15.585  67.069  1.00  0.00    -0.275 A  
HETATM   10  C   UNL     1      -7.307  15.316  68.071  1.00  0.00    -0.133 A  
HETATM   11  C   UNL     1      -7.255  14.078  68.702  1.00  0.00    -0.114 A  
HETATM   12  C   UNL     1      -8.140  13.066  68.348  1.00  0.00    -0.131 A  
HETATM   13  C   UNL     1      -9.140  13.351  67.408  1.00  0.00    -0.216 A  
HETATM   14  F   UNL     1     -11.551  14.692  66.272  1.00  0.00    -0.352 F  
HETATM   15  C   UNL     1      -9.212  14.605  66.750  1.00  0.00    -0.285 A  
HETATM   16  F   UNL     1     -10.300  15.931  64.996  1.00  0.00    -0.385 F  
HETATM   17  C   UNL     1     -10.308  14.781  65.717  1.00  0.00    -0.340 C  
HETATM   18  F   UNL     1     -10.264  13.786  64.780  1.00  0.00    -0.383 F  
BRANCH  12  19
HETATM   19  N   UNL     1      -8.049  11.749  68.857  1.00  0.00    -0.348 N  
HETATM   20  O   UNL     1      -5.885  11.769  69.738  1.00  0.00    -0.086 OA 
HETATM   21  C   UNL     1      -6.937  11.198  69.475  1.00  0.00    -0.111 C  
HETATM   22  H   UNL     1      -8.873  11.155  68.762  1.00  0.00     0.000 HD 
BRANCH  21  23
HETATM   23  C   UNL     1      -7.017   9.753  69.807  1.00  0.00    -0.087 A  
HETATM   24  C   UNL     1      -7.539   8.890  68.832  1.00  0.00    -0.087 A  
HETATM   25  C   UNL     1      -7.618   7.514  69.065  1.00  0.00    -0.108 A  
HETATM   26  C   UNL     1      -6.554   9.235  71.018  1.00  0.00    -0.091 A  
HETATM   27  C   UNL     1      -7.171   6.990  70.290  1.00  0.00    -0.072 A  
HETATM   28  C   UNL     1      -6.633   7.863  71.254  1.00  0.00    -0.041 A  
HETATM   29  C   UNL     1      -7.219   5.523  70.624  1.00  0.00    -0.073 C  
BRANCH  25  30
HETATM   30  C   UNL     1      -8.188   6.685  68.041  1.00  0.00    -0.117 C  
HETATM   31  C   UNL     1      -8.709   6.006  67.197  1.00  0.00    -0.109 C  
BRANCH  31  32
HETATM   32  C   UNL     1      -9.430   5.208  66.268  1.00  0.00    -0.156 A  
HETATM   33  C   UNL     1     -10.783   5.250  66.014  1.00  0.00    -0.079 A  
HETATM   34  N   UNL     1     -11.143   4.342  65.048  1.00  0.00    -0.139 NA 
HETATM   35  C   UNL     1     -10.017   3.749  64.709  1.00  0.00    -0.187 A  
HETATM   36  C   UNL     1      -9.767   2.732  63.763  1.00  0.00    -0.134 A  
HETATM   37  C   UNL     1      -8.517   2.286  63.595  1.00  0.00    -0.085 A  
HETATM   38  C   UNL     1      -7.459   2.904  64.434  1.00  0.00    -0.074 A  
HETATM   39  N   UNL     1      -7.626   3.838  65.314  1.00  0.00    -0.080 NA 
HETATM   40  N   UNL     1      -8.933   4.240  65.427  1.00  0.00    -0.128 NA 
ENDBRANCH  31  32
ENDBRANCH  25  30
ENDBRANCH  21  23
ENDBRANCH  12  19
ENDBRANCH   8   9
ENDBRANCH   5   8
TORSDOF 6
ENDMDL
MODEL       55
REMARK 921   NORMALIZED FREE ENERGY PREDICTED BY IDOCK:   -4.20 KCAL/MOL
REMARK 922        TOTAL FREE ENERGY PREDICTED BY IDOCK:   -6.99 KCAL/MOL
REMARK 923 INTER-LIGAND FREE ENERGY PREDICTED BY IDOCK:   -6.39 KCAL/MOL
REMARK 924 INTRA-LIGAND FREE ENERGY PREDICTED BY IDOCK:   -0.60 KCAL/MOL
REMARK 927      BINDING AFFINITY PREDICTED BY RF-SCORE:    0.00 PKD
ROOT
HETATM    1  C   UNL     1      -9.702   3.108  62.926  1.00  0.00    -0.095 C  
HETATM    2  N   UNL     1      -9.081   3.219  64.245  1.00  0.00    -0.117 NA 
HETATM    3  C   UNL     1      -7.606   3.190  64.141  1.00  0.00    -0.075 C  
HETATM    4  C   UNL     1      -6.963   4.506  63.643  1.00  0.00    -0.045 C  
HETATM    5  N   UNL     1      -7.380   5.712  64.384  1.00  0.00    -0.062 NA 
HETATM    6  C   UNL     1      -9.524   4.451  64.929  1.00  0.00    -0.162 C  
HETATM    7  C   UNL     1      -8.861   5.755  64.414  1.00  0.00     0.252 C  
ENDROOT
BRANCH   5   8
HETATM    8  C   UNL     1      -6.871   5.761  65.759  1.00  0.00    -0.060 C  
BRANCH   8   9
HETATM    9  C   UNL     1      -7.372   6.931  66.574  1.00  0.00    -0.073 A  
HETATM   10  C   UNL     1      -8.188   6.633  67.677  1.00  0.00    -0.122 A  
HETATM   11  C   UNL     1      -8.793   7.640  68.421  1.00  0.00    -0.130 A  
HETATM   12  C   UNL     1      -8.609   8.976  68.085  1.00  0.00    -0.130 A  
HETATM   13  C   UNL     1      -7.731   9.287  67.037  1.00  0.00    -0.095 A  
HETATM   14  F   UNL     1      -5.138   9.444  65.570  1.00  0.00    -0.034 F  
HETATM   15  C   UNL     1      -7.106   8.278  66.262  1.00  0.00    -0.070 A  
HETATM   16  F   UNL     1      -5.718   7.776  64.302  1.00  0.00    -0.041 F  
HETATM   17  C   UNL     1      -6.214   8.735  65.123  1.00  0.00    -0.060 C  
HETATM   18  F   UNL     1      -6.883   9.590  64.290  1.00  0.00    -0.088 F  
BRANCH  12  19
HETATM   19  N   UNL     1      -9.301  10.033  68.720  1.00  0.00    -0.155 N  
HETATM   20  O   UNL     1     -11.514   9.468  68.224  1.00  0.00     0.139 OA 
HETATM   21  C   UNL     1     -10.676  10.216  68.716  1.00  0.00    -0.220 C  
HETATM   22  H   UNL     1      -8.741  10.720  69.226  1.00  0.00     0.000 HD 
BRANCH  21  23
HETATM   23  C   UNL     1     -11.176  11.472  69.330  1.00  0.00    -0.336 A  
HETATM   24  C   UNL     1     -10.484  12.657  69.040  1.00  0.00    -0.026 A  
HETATM   25  C   UNL     1     -10.914  13.880  69.561  1.00  0.00    -0.109 A  
HETATM   26  C   UNL     1     -12.318  11.511  70.132  1.00  0.00    -0.323 A  
HETATM   27  C   UNL     1     -12.052  13.923  70.385  1.00  0.00    -0.421 A  
HETATM   28  C   UNL     1     -12.749  12.730  70.655  1.00  0.00    -0.155 A  
HETATM   29  C   UNL     1     -12.585  15.195  70.986  1.00  0.00    -0.441 C  
BRANCH  25  30
HETATM   30  C   UNL     1     -10.149  15.055  69.253  1.00  0.00    -0.236 C  
HETATM   31  C   UNL     1      -9.545  16.053  68.966  1.00  0.00    -0.247 C  
BRANCH  31  32
HETATM   32  C   UNL     1      -8.901  17.240  68.522  1.00  0.00    -0.269 A  
HETATM   33  C   UNL     1      -7.621  17.650  68.821  1.00  0.00    -0.253 A  
HETATM   34  N   UNL     1      -7.320  18.846  68.217  1.00  0.00    -0.269 NA 
HETATM   35  C   UNL     1      -8.408  19.166  67.548  1.00  0.00    -0.287 A  
HETATM   36  C   UNL     1      -8.687  20.287  66.735  1.00  0.00    -0.353 A  
HETATM   37  C   UNL     1      -9.886  20.391  66.151  1.00  0.00    -0.316 A  
HETATM   38  C   UNL     1     -10.860  19.300  66.406  1.00  0.00    -0.280 A  
HETATM   39  N   UNL     1     -10.662  18.251  67.138  1.00  0.00    -0.356 NA 
HETATM   40  N   UNL     1      -9.412  18.217  67.700  1.00  0.00    -0.269 NA 
ENDBRANCH  31  32
ENDBRANCH  25  30
ENDBRANCH  21  23
ENDBRANCH  12  19
ENDBRANCH   8   9
ENDBRANCH   5   8
TORSDOF 6
ENDMDL
MODEL       56
REMARK 921   NORMALIZED FREE ENERGY PREDICTED BY IDOCK:   -4.12 KCAL/MOL
REMARK 922        TOTAL FREE ENERGY PREDICTED BY IDOCK:   -6.87 KCAL/MOL
REMARK 923 INTER-LIGAND FREE ENERGY PREDICTED BY IDOCK:   -5.73 KCAL/MOL
REMARK 924 INTRA-LIGAND FREE ENERGY PREDICTED BY IDOCK:   -1.14 KCAL/MOL
REMARK 927      BINDING AFFINITY PREDICTED BY RF-SCORE:    0.00 PKD
ROOT
HETATM    1  C   UNL     1     -10.493  19.685  66.512  1.00  0.00    -0.503 C  
HETATM    2  N   UNL     1      -9.500  18.969  67.312  1.00  0.00    -0.304 NA 
HETATM    3  C   UNL     1     -10.131  18.302  68.470  1.00  0.00    -0.398 C  
HETATM    4  C   UNL     1     -10.906  17.007  68.134  1.00  0.00    -0.338 C  
HETATM    5  N   UNL     1     -10.137  16.016  67.356  1.00  0.00    -0.253 NA 
HETATM    6  C   UNL     1      -8.776  17.983  66.483  1.00  0.00    -0.260 C  
HETATM    7  C   UNL     1      -9.573  16.691  66.164  1.00  0.00    -0.294 C  
ENDROOT
BRANCH   5   8
HETATM    8  C   UNL     1      -9.046  15.393  68.115  1.00  0.00    -0.184 C  
BRANCH   8   9
HETATM    9  C   UNL     1      -8.737  13.968  67.716  1.00  0.00    -0.185 A  
HETATM   10  C   UNL     1      -9.799  13.210  67.198  1.00  0.00    -0.235 A  
HETATM   11  C   UNL     1      -9.648  11.859  66.908  1.00  0.00    -0.208 A  
HETATM   12  C   UNL     1      -8.435  11.219  67.133  1.00  0.00    -0.149 A  
HETATM   13  C   UNL     1      -7.347  11.984  67.571  1.00  0.00    -0.137 A  
HETATM   14  F   UNL     1      -5.240  14.095  67.461  1.00  0.00    -0.063 F  
HETATM   15  C   UNL     1      -7.476  13.363  67.876  1.00  0.00    -0.149 A  
HETATM   16  F   UNL     1      -6.393  15.360  68.802  1.00  0.00    -0.097 F  
HETATM   17  C   UNL     1      -6.240  14.077  68.388  1.00  0.00    -0.102 C  
HETATM   18  F   UNL     1      -5.711  13.427  69.470  1.00  0.00    -0.082 F  
BRANCH  12  19
HETATM   19  N   UNL     1      -8.261   9.823  66.983  1.00  0.00    -0.117 N  
HETATM   20  O   UNL     1      -8.396   9.611  64.660  1.00  0.00    -0.138 OA 
HETATM   21  C   UNL     1      -8.286   9.130  65.782  1.00  0.00    -0.126 C  
HETATM   22  H   UNL     1      -8.103   9.279  67.832  1.00  0.00     0.000 HD 
BRANCH  21  23
HETATM   23  C   UNL     1      -8.221   7.650  65.873  1.00  0.00    -0.133 A  
HETATM   24  C   UNL     1      -8.365   7.070  67.142  1.00  0.00    -0.121 A  
HETATM   25  C   UNL     1      -8.341   5.682  67.300  1.00  0.00    -0.100 A  
HETATM   26  C   UNL     1      -8.069   6.835  64.750  1.00  0.00    -0.098 A  
HETATM   27  C   UNL     1      -8.171   4.857  66.175  1.00  0.00    -0.108 A  
HETATM   28  C   UNL     1      -8.044   5.449  64.904  1.00  0.00    -0.122 A  
HETATM   29  C   UNL     1      -8.134   3.355  66.253  1.00  0.00    -0.092 C  
BRANCH  25  30
HETATM   30  C   UNL     1      -8.465   5.148  68.627  1.00  0.00    -0.088 C  
HETATM   31  C   UNL     1      -8.520   4.706  69.743  1.00  0.00    -0.088 C  
BRANCH  31  32
HETATM   32  C   UNL     1      -8.465   4.151  71.050  1.00  0.00    -0.083 A  
HETATM   33  C   UNL     1      -9.503   4.037  71.947  1.00  0.00    -0.138 A  
HETATM   34  N   UNL     1      -9.096   3.444  73.118  1.00  0.00    -0.097 NA 
HETATM   35  C   UNL     1      -7.815   3.194  72.938  1.00  0.00    -0.056 A  
HETATM   36  C   UNL     1      -6.871   2.592  73.798  1.00  0.00    -0.027 A  
HETATM   37  C   UNL     1      -5.608   2.444  73.384  1.00  0.00     0.000 A  
HETATM   38  C   UNL     1      -5.280   2.935  72.021  1.00  0.00     0.000 A  
HETATM   39  N   UNL     1      -6.100   3.492  71.190  1.00  0.00    -0.014 NA 
HETATM   40  N   UNL     1      -7.373   3.608  71.688  1.00  0.00    -0.049 NA 
ENDBRANCH  31  32
ENDBRANCH  25  30
ENDBRANCH  21  23
ENDBRANCH  12  19
ENDBRANCH   8   9
ENDBRANCH   5   8
TORSDOF 6
ENDMDL
MODEL       57
REMARK 921   NORMALIZED FREE ENERGY PREDICTED BY IDOCK:   -4.08 KCAL/MOL
REMARK 922        TOTAL FREE ENERGY PREDICTED BY IDOCK:   -6.82 KCAL/MOL
REMARK 923 INTER-LIGAND FREE ENERGY PREDICTED BY IDOCK:   -6.01 KCAL/MOL
REMARK 924 INTRA-LIGAND FREE ENERGY PREDICTED BY IDOCK:   -0.81 KCAL/MOL
REMARK 927      BINDING AFFINITY PREDICTED BY RF-SCORE:    0.00 PKD
ROOT
HETATM    1  C   UNL     1      -5.855  20.998  65.483  1.00  0.00    -0.243 C  
HETATM    2  N   UNL     1      -5.712  20.384  66.803  1.00  0.00    -0.169 NA 
HETATM    3  C   UNL     1      -6.873  20.698  67.662  1.00  0.00    -0.332 C  
HETATM    4  C   UNL     1      -8.155  19.894  67.344  1.00  0.00    -0.313 C  
HETATM    5  N   UNL     1      -7.965  18.431  67.288  1.00  0.00    -0.233 NA 
HETATM    6  C   UNL     1      -5.541  18.922  66.682  1.00  0.00    -0.153 C  
HETATM    7  C   UNL     1      -6.843  18.139  66.367  1.00  0.00    -0.229 C  
ENDROOT
BRANCH   5   8
HETATM    8  C   UNL     1      -7.683  17.827  68.595  1.00  0.00    -0.283 C  
BRANCH   8   9
HETATM    9  C   UNL     1      -8.086  16.375  68.716  1.00  0.00    -0.234 A  
HETATM   10  C   UNL     1      -7.078  15.418  68.514  1.00  0.00    -0.114 A  
HETATM   11  C   UNL     1      -7.367  14.059  68.491  1.00  0.00    -0.114 A  
HETATM   12  C   UNL     1      -8.672  13.610  68.660  1.00  0.00    -0.027 A  
HETATM   13  C   UNL     1      -9.670  14.551  68.944  1.00  0.00    -0.169 A  
HETATM   14  F   UNL     1     -11.104  16.669  70.481  1.00  0.00    -0.366 F  
HETATM   15  C   UNL     1      -9.401  15.943  68.971  1.00  0.00    -0.243 A  
HETATM   16  F   UNL     1     -10.343  18.202  69.139  1.00  0.00    -0.369 F  
HETATM   17  C   UNL     1     -10.571  16.868  69.241  1.00  0.00    -0.325 C  
HETATM   18  F   UNL     1     -11.598  16.628  68.369  1.00  0.00    -0.327 F  
BRANCH  12  19
HETATM   19  N   UNL     1      -9.045  12.254  68.514  1.00  0.00    -0.354 N  
HETATM   20  O   UNL     1      -7.967  11.715  66.512  1.00  0.00    -0.141 OA 
HETATM   21  C   UNL     1      -8.698  11.430  67.453  1.00  0.00    -0.145 C  
HETATM   22  H   UNL     1      -9.619  11.846  69.252  1.00  0.00     0.000 HD 
BRANCH  21  23
HETATM   23  C   UNL     1      -9.317  10.081  67.436  1.00  0.00    -0.167 A  
HETATM   24  C   UNL     1      -8.486   8.981  67.692  1.00  0.00    -0.117 A  
HETATM   25  C   UNL     1      -9.006   7.684  67.719  1.00  0.00    -0.131 A  
HETATM   26  C   UNL     1     -10.683   9.886  67.225  1.00  0.00    -0.304 A  
HETATM   27  C   UNL     1     -10.377   7.480  67.489  1.00  0.00    -0.321 A  
HETATM   28  C   UNL     1     -11.206   8.593  67.251  1.00  0.00     0.740 A  
HETATM   29  C   UNL     1     -11.021   6.120  67.501  1.00  0.00    -0.404 C  
BRANCH  25  30
HETATM   30  C   UNL     1      -8.101   6.595  67.957  1.00  0.00    -0.110 C  
HETATM   31  C   UNL     1      -7.382   5.654  68.158  1.00  0.00    -0.073 C  
BRANCH  31  32
HETATM   32  C   UNL     1      -6.631   4.482  68.446  1.00  0.00    -0.046 A  
HETATM   33  C   UNL     1      -5.749   3.836  67.609  1.00  0.00    -0.022 A  
HETATM   34  N   UNL     1      -5.192   2.736  68.214  1.00  0.00    -0.012 NA 
HETATM   35  C   UNL     1      -5.727   2.710  69.418  1.00  0.00    -0.022 A  
HETATM   36  C   UNL     1      -5.531   1.808  70.487  1.00  0.00    -0.012 A  
HETATM   37  C   UNL     1      -6.199   1.994  71.631  1.00  0.00    -0.014 A  
HETATM   38  C   UNL     1      -7.120   3.157  71.696  1.00  0.00    -0.032 A  
HETATM   39  N   UNL     1      -7.339   4.015  70.753  1.00  0.00    -0.040 NA 
HETATM   40  N   UNL     1      -6.618   3.757  69.615  1.00  0.00    -0.033 NA 
ENDBRANCH  31  32
ENDBRANCH  25  30
ENDBRANCH  21  23
ENDBRANCH  12  19
ENDBRANCH   8   9
ENDBRANCH   5   8
TORSDOF 6
ENDMDL
MODEL       58
REMARK 921   NORMALIZED FREE ENERGY PREDICTED BY IDOCK:   -4.04 KCAL/MOL
REMARK 922        TOTAL FREE ENERGY PREDICTED BY IDOCK:   -6.77 KCAL/MOL
REMARK 923 INTER-LIGAND FREE ENERGY PREDICTED BY IDOCK:   -8.32 KCAL/MOL
REMARK 924 INTRA-LIGAND FREE ENERGY PREDICTED BY IDOCK:    1.55 KCAL/MOL
REMARK 927      BINDING AFFINITY PREDICTED BY RF-SCORE:    0.00 PKD
ROOT
HETATM    1  C   UNL     1      -7.880   2.879  71.172  1.00  0.00    -0.047 C  
HETATM    2  N   UNL     1      -7.101   3.549  70.132  1.00  0.00    -0.041 NA 
HETATM    3  C   UNL     1      -5.975   2.703  69.684  1.00  0.00    -0.023 C  
HETATM    4  C   UNL     1      -6.368   1.539  68.745  1.00  0.00    -0.025 C  
HETATM    5  N   UNL     1      -7.178   1.938  67.578  1.00  0.00    -0.053 NA 
HETATM    6  C   UNL     1      -7.961   3.908  68.987  1.00  0.00    -0.059 C  
HETATM    7  C   UNL     1      -8.338   2.724  68.058  1.00  0.00    -0.079 C  
ENDROOT
BRANCH   5   8
HETATM    8  C   UNL     1      -6.434   2.732  66.593  1.00  0.00    -0.036 C  
BRANCH   8   9
HETATM    9  C   UNL     1      -6.970   4.129  66.380  1.00  0.00    -0.059 A  
HETATM   10  C   UNL     1      -6.364   5.160  67.115  1.00  0.00    -0.036 A  
HETATM   11  C   UNL     1      -6.855   6.460  67.078  1.00  0.00    -0.066 A  
HETATM   12  C   UNL     1      -7.972   6.772  66.312  1.00  0.00    -0.108 A  
HETATM   13  C   UNL     1      -8.534   5.769  65.510  1.00  0.00    -0.150 A  
HETATM   14  F   UNL     1      -8.667   3.732  63.334  1.00  0.00    -0.091 F  
HETATM   15  C   UNL     1      -8.052   4.436  65.533  1.00  0.00    -0.105 A  
HETATM   16  F   UNL     1      -8.396   2.127  64.777  1.00  0.00    -0.082 F  
HETATM   17  C   UNL     1      -8.771   3.426  64.660  1.00  0.00    -0.102 C  
HETATM   18  F   UNL     1     -10.115   3.422  64.919  1.00  0.00    -0.162 F  
BRANCH  12  19
HETATM   19  N   UNL     1      -8.595   8.042  66.338  1.00  0.00    -0.137 N  
HETATM   20  O   UNL     1     -10.800   7.439  66.822  1.00  0.00    -0.303 OA 
HETATM   21  C   UNL     1      -9.945   8.275  66.556  1.00  0.00    -0.250 C  
HETATM   22  H   UNL     1      -8.000   8.856  66.184  1.00  0.00     0.000 HD 
BRANCH  21  23
HETATM   23  C   UNL     1     -10.404   9.678  66.401  1.00  0.00    -0.246 A  
HETATM   24  C   UNL     1     -10.825  10.355  67.555  1.00  0.00    -0.358 A  
HETATM   25  C   UNL     1     -11.244  11.686  67.489  1.00  0.00    -0.355 A  
HETATM   26  C   UNL     1     -10.383  10.343  65.174  1.00  0.00    -0.260 A  
HETATM   27  C   UNL     1     -11.244  12.355  66.253  1.00  0.00    -0.361 A  
HETATM   28  C   UNL     1     -10.802  11.672  65.104  1.00  0.00    -0.346 A  
HETATM   29  C   UNL     1     -11.677  13.787  66.091  1.00  0.00    -0.392 C  
BRANCH  25  30
HETATM   30  C   UNL     1     -11.692  12.318  68.699  1.00  0.00    -0.377 C  
HETATM   31  C   UNL     1     -12.090  12.804  69.722  1.00  0.00    -0.305 C  
BRANCH  31  32
HETATM   32  C   UNL     1     -12.656  13.297  70.929  1.00  0.00    -0.306 A  
HETATM   33  C   UNL     1     -13.605  12.680  71.713  1.00  0.00    -0.082 A  
HETATM   34  N   UNL     1     -13.920  13.437  72.815  1.00  0.00    -0.636 NA 
HETATM   35  C   UNL     1     -13.167  14.512  72.709  1.00  0.00    -0.508 A  
HETATM   36  C   UNL     1     -13.058  15.641  73.551  1.00  0.00    -0.638 A  
HETATM   37  C   UNL     1     -12.207  16.621  73.226  1.00  0.00    -0.342 A  
HETATM   38  C   UNL     1     -11.422  16.450  71.977  1.00  0.00    -0.099 A  
HETATM   39  N   UNL     1     -11.478  15.442  71.169  1.00  0.00    -0.345 NA 
HETATM   40  N   UNL     1     -12.371  14.481  71.570  1.00  0.00    -0.348 NA 
ENDBRANCH  31  32
ENDBRANCH  25  30
ENDBRANCH  21  23
ENDBRANCH  12  19
ENDBRANCH   8   9
ENDBRANCH   5   8
TORSDOF 6
ENDMDL
MODEL       59
REMARK 921   NORMALIZED FREE ENERGY PREDICTED BY IDOCK:   -4.03 KCAL/MOL
REMARK 922        TOTAL FREE ENERGY PREDICTED BY IDOCK:   -6.75 KCAL/MOL
REMARK 923 INTER-LIGAND FREE ENERGY PREDICTED BY IDOCK:   -7.05 KCAL/MOL
REMARK 924 INTRA-LIGAND FREE ENERGY PREDICTED BY IDOCK:    0.30 KCAL/MOL
REMARK 927      BINDING AFFINITY PREDICTED BY RF-SCORE:    0.00 PKD
ROOT
HETATM    1  C   UNL     1     -13.474  13.161  72.675  1.00  0.00    -0.308 C  
HETATM    2  N   UNL     1     -13.727  13.555  71.290  1.00  0.00    -0.021 NA 
HETATM    3  C   UNL     1     -14.011  15.003  71.194  1.00  0.00    -0.374 C  
HETATM    4  C   UNL     1     -12.771  15.920  71.308  1.00  0.00    -0.320 C  
HETATM    5  N   UNL     1     -11.665  15.574  70.394  1.00  0.00    -0.307 NA 
HETATM    6  C   UNL     1     -12.581  13.199  70.429  1.00  0.00    -0.116 C  
HETATM    7  C   UNL     1     -11.352  14.136  70.560  1.00  0.00     0.054 C  
ENDROOT
BRANCH   5   8
HETATM    8  C   UNL     1     -11.967  15.840  68.982  1.00  0.00    -0.278 C  
BRANCH   8   9
HETATM    9  C   UNL     1     -11.279  14.912  68.007  1.00  0.00    -0.318 A  
HETATM   10  C   UNL     1     -12.021  13.814  67.545  1.00  0.00    -0.411 A  
HETATM   11  C   UNL     1     -11.445  12.841  66.736  1.00  0.00    -0.399 A  
HETATM   12  C   UNL     1     -10.106  12.928  66.370  1.00  0.00    -0.269 A  
HETATM   13  C   UNL     1      -9.380  14.062  66.758  1.00  0.00    -0.289 A  
HETATM   14  F   UNL     1      -8.648  16.952  66.897  1.00  0.00    -0.193 F  
HETATM   15  C   UNL     1      -9.945  15.066  67.584  1.00  0.00    -0.225 A  
HETATM   16  F   UNL     1      -9.544  17.116  68.871  1.00  0.00    -0.252 F  
HETATM   17  C   UNL     1      -9.048  16.223  67.979  1.00  0.00    -0.188 C  
HETATM   18  F   UNL     1      -7.889  15.772  68.550  1.00  0.00    -0.124 F  
BRANCH  12  19
HETATM   19  N   UNL     1      -9.433  11.905  65.663  1.00  0.00    -0.348 N  
HETATM   20  O   UNL     1     -11.051  11.328  64.079  1.00  0.00    -0.372 OA 
HETATM   21  C   UNL     1      -9.958  11.171  64.609  1.00  0.00    -0.292 C  
HETATM   22  H   UNL     1      -8.479  11.688  65.953  1.00  0.00     0.000 HD 
BRANCH  21  23
HETATM   23  C   UNL     1      -9.123  10.051  64.107  1.00  0.00    -0.295 A  
HETATM   24  C   UNL     1      -8.701   9.088  65.035  1.00  0.00    -0.217 A  
HETATM   25  C   UNL     1      -7.936   7.991  64.628  1.00  0.00    -0.151 A  
HETATM   26  C   UNL     1      -8.793   9.908  62.758  1.00  0.00    -0.242 A  
HETATM   27  C   UNL     1      -7.586   7.852  63.275  1.00  0.00    -0.130 A  
HETATM   28  C   UNL     1      -8.029   8.815  62.349  1.00  0.00    -0.145 A  
HETATM   29  C   UNL     1      -6.767   6.703  62.750  1.00  0.00    -0.042 C  
BRANCH  25  30
HETATM   30  C   UNL     1      -7.509   7.054  65.629  1.00  0.00    -0.085 C  
HETATM   31  C   UNL     1      -7.164   6.302  66.500  1.00  0.00    -0.073 C  
BRANCH  31  32
HETATM   32  C   UNL     1      -6.738   5.514  67.604  1.00  0.00    -0.055 A  
HETATM   33  C   UNL     1      -6.414   5.961  68.865  1.00  0.00    -0.049 A  
HETATM   34  N   UNL     1      -6.049   4.924  69.690  1.00  0.00    -0.021 NA 
HETATM   35  C   UNL     1      -6.152   3.848  68.939  1.00  0.00    -0.028 A  
HETATM   36  C   UNL     1      -5.909   2.491  69.245  1.00  0.00    -0.023 A  
HETATM   37  C   UNL     1      -6.088   1.563  68.298  1.00  0.00    -0.024 A  
HETATM   38  C   UNL     1      -6.536   2.035  66.964  1.00  0.00    -0.035 A  
HETATM   39  N   UNL     1      -6.776   3.260  66.625  1.00  0.00    -0.047 NA 
HETATM   40  N   UNL     1      -6.570   4.150  67.648  1.00  0.00    -0.042 NA 
ENDBRANCH  31  32
ENDBRANCH  25  30
ENDBRANCH  21  23
ENDBRANCH  12  19
ENDBRANCH   8   9
ENDBRANCH   5   8
TORSDOF 6
ENDMDL
MODEL       60
REMARK 921   NORMALIZED FREE ENERGY PREDICTED BY IDOCK:   -4.00 KCAL/MOL
REMARK 922        TOTAL FREE ENERGY PREDICTED BY IDOCK:   -6.72 KCAL/MOL
REMARK 923 INTER-LIGAND FREE ENERGY PREDICTED BY IDOCK:   -6.19 KCAL/MOL
REMARK 924 INTRA-LIGAND FREE ENERGY PREDICTED BY IDOCK:   -0.52 KCAL/MOL
REMARK 927      BINDING AFFINITY PREDICTED BY RF-SCORE:    0.00 PKD
ROOT
HETATM    1  C   UNL     1      -9.886   2.310  73.022  1.00  0.00    -0.105 C  
HETATM    2  N   UNL     1      -8.688   2.626  72.245  1.00  0.00    -0.066 NA 
HETATM    3  C   UNL     1      -8.718   1.958  70.928  1.00  0.00    -0.055 C  
HETATM    4  C   UNL     1      -9.657   2.611  69.887  1.00  0.00    -0.002 C  
HETATM    5  N   UNL     1      -9.451   4.061  69.698  1.00  0.00    -0.178 NA 
HETATM    6  C   UNL     1      -8.546   4.086  72.078  1.00  0.00    -0.104 C  
HETATM    7  C   UNL     1      -9.495   4.717  71.025  1.00  0.00    -0.161 C  
ENDROOT
BRANCH   5   8
HETATM    8  C   UNL     1      -8.181   4.391  69.042  1.00  0.00    -0.079 C  
BRANCH   8   9
HETATM    9  C   UNL     1      -7.788   5.848  69.132  1.00  0.00    -0.095 A  
HETATM   10  C   UNL     1      -6.717   6.164  69.984  1.00  0.00    -0.056 A  
HETATM   11  C   UNL     1      -6.351   7.483  70.225  1.00  0.00    -0.034 A  
HETATM   12  C   UNL     1      -7.046   8.530  69.631  1.00  0.00    -0.052 A  
HETATM   13  C   UNL     1      -8.062   8.223  68.716  1.00  0.00    -0.115 A  
HETATM   14  F   UNL     1      -9.291   7.122  66.229  1.00  0.00    -0.190 F  
HETATM   15  C   UNL     1      -8.455   6.886  68.455  1.00  0.00    -0.123 A  
HETATM   16  F   UNL     1     -10.062   5.412  67.330  1.00  0.00    -0.142 F  
HETATM   17  C   UNL     1      -9.600   6.679  67.482  1.00  0.00    -0.126 C  
HETATM   18  F   UNL     1     -10.698   7.404  67.856  1.00  0.00    -0.253 F  
BRANCH  12  19
HETATM   19  N   UNL     1      -6.806   9.889  69.941  1.00  0.00    -0.080 N  
HETATM   20  O   UNL     1      -5.680  10.586  68.016  1.00  0.00    -0.040 OA 
HETATM   21  C   UNL     1      -6.125  10.792  69.139  1.00  0.00    -0.043 C  
HETATM   22  H   UNL     1      -7.166  10.235  70.831  1.00  0.00     0.000 HD 
BRANCH  21  23
HETATM   23  C   UNL     1      -5.869  12.132  69.726  1.00  0.00    -0.123 A  
HETATM   24  C   UNL     1      -6.250  13.254  68.977  1.00  0.00    -0.093 A  
HETATM   25  C   UNL     1      -6.065  14.544  69.479  1.00  0.00    -0.113 A  
HETATM   26  C   UNL     1      -5.314  12.300  70.996  1.00  0.00    -0.134 A  
HETATM   27  C   UNL     1      -5.490  14.721  70.749  1.00  0.00    -0.146 A  
HETATM   28  C   UNL     1      -5.127  13.587  71.500  1.00  0.00    -0.170 A  
HETATM   29  C   UNL     1      -5.255  16.072  71.367  1.00  0.00    -0.008 C  
BRANCH  25  30
HETATM   30  C   UNL     1      -6.449  15.655  68.653  1.00  0.00    -0.107 C  
HETATM   31  C   UNL     1      -6.817  16.571  67.969  1.00  0.00    -0.149 C  
BRANCH  31  32
HETATM   32  C   UNL     1      -7.358  17.590  67.138  1.00  0.00    -0.188 A  
HETATM   33  C   UNL     1      -6.786  18.128  66.007  1.00  0.00    -0.277 A  
HETATM   34  N   UNL     1      -7.589  19.091  65.445  1.00  0.00    -0.327 NA 
HETATM   35  C   UNL     1      -8.649  19.140  66.225  1.00  0.00    -0.296 A  
HETATM   36  C   UNL     1      -9.809  19.941  66.143  1.00  0.00    -0.562 A  
HETATM   37  C   UNL     1     -10.764  19.806  67.070  1.00  0.00    -0.542 A  
HETATM   38  C   UNL     1     -10.532  18.805  68.141  1.00  0.00    -0.315 A  
HETATM   39  N   UNL     1      -9.493  18.044  68.268  1.00  0.00    -0.291 NA 
HETATM   40  N   UNL     1      -8.561  18.241  67.281  1.00  0.00    -0.251 NA 
ENDBRANCH  31  32
ENDBRANCH  25  30
ENDBRANCH  21  23
ENDBRANCH  12  19
ENDBRANCH   8   9
ENDBRANCH   5   8
TORSDOF 6
ENDMDL
MODEL       61
REMARK 921   NORMALIZED FREE ENERGY PREDICTED BY IDOCK:   -3.90 KCAL/MOL
REMARK 922        TOTAL FREE ENERGY PREDICTED BY IDOCK:   -6.58 KCAL/MOL
REMARK 923 INTER-LIGAND FREE ENERGY PREDICTED BY IDOCK:   -5.58 KCAL/MOL
REMARK 924 INTRA-LIGAND FREE ENERGY PREDICTED BY IDOCK:   -1.00 KCAL/MOL
REMARK 927      BINDING AFFINITY PREDICTED BY RF-SCORE:    0.00 PKD
ROOT
HETATM    1  C   UNL     1      -8.645   2.831  74.477  1.00  0.00    -0.071 C  
HETATM    2  N   UNL     1      -7.537   3.455  73.755  1.00  0.00    -0.060 NA 
HETATM    3  C   UNL     1      -7.153   2.652  72.575  1.00  0.00    -0.031 C  
HETATM    4  C   UNL     1      -8.110   2.772  71.366  1.00  0.00    -0.058 C  
HETATM    5  N   UNL     1      -8.396   4.157  70.945  1.00  0.00    -0.077 NA 
HETATM    6  C   UNL     1      -7.890   4.830  73.348  1.00  0.00    -0.096 C  
HETATM    7  C   UNL     1      -8.846   4.923  72.130  1.00  0.00    -0.128 C  
ENDROOT
BRANCH   5   8
HETATM    8  C   UNL     1      -7.243   4.837  70.343  1.00  0.00    -0.050 C  
BRANCH   8   9
HETATM    9  C   UNL     1      -7.601   5.957  69.393  1.00  0.00    -0.092 A  
HETATM   10  C   UNL     1      -7.690   7.248  69.939  1.00  0.00    -0.103 A  
HETATM   11  C   UNL     1      -8.122   8.327  69.176  1.00  0.00    -0.120 A  
HETATM   12  C   UNL     1      -8.486   8.151  67.846  1.00  0.00    -0.132 A  
HETATM   13  C   UNL     1      -8.323   6.885  67.270  1.00  0.00    -0.121 A  
HETATM   14  F   UNL     1      -6.871   4.463  66.303  1.00  0.00    -0.052 F  
HETATM   15  C   UNL     1      -7.886   5.769  68.028  1.00  0.00    -0.100 A  
HETATM   16  F   UNL     1      -7.502   3.346  68.059  1.00  0.00    -0.053 F  
HETATM   17  C   UNL     1      -7.794   4.438  67.307  1.00  0.00    -0.096 C  
HETATM   18  F   UNL     1      -8.977   4.128  66.695  1.00  0.00    -0.111 F  
BRANCH  12  19
HETATM   19  N   UNL     1      -9.057   9.181  67.061  1.00  0.00    -0.122 N  
HETATM   20  O   UNL     1      -7.344   9.558  65.519  1.00  0.00    -0.090 OA 
HETATM   21  C   UNL     1      -8.442   9.819  65.995  1.00  0.00    -0.124 C  
HETATM   22  H   UNL     1     -10.003   9.479  67.301  1.00  0.00     0.000 HD 
BRANCH  21  23
HETATM   23  C   UNL     1      -9.174  10.967  65.403  1.00  0.00    -0.231 A  
HETATM   24  C   UNL     1      -9.175  12.174  66.116  1.00  0.00    -0.155 A  
HETATM   25  C   UNL     1      -9.820  13.304  65.606  1.00  0.00    -0.177 A  
HETATM   26  C   UNL     1      -9.807  10.892  64.161  1.00  0.00    -0.369 A  
HETATM   27  C   UNL     1     -10.476  13.230  64.366  1.00  0.00    -0.424 A  
HETATM   28  C   UNL     1     -10.453  12.018  63.650  1.00  0.00    -0.494 A  
HETATM   29  C   UNL     1     -11.193  14.396  63.742  1.00  0.00     0.741 C  
BRANCH  25  30
HETATM   30  C   UNL     1      -9.812  14.504  66.395  1.00  0.00    -0.306 C  
HETATM   31  C   UNL     1      -9.817  15.533  67.015  1.00  0.00    -0.236 C  
BRANCH  31  32
HETATM   32  C   UNL     1      -9.806  16.810  67.639  1.00  0.00    -0.261 A  
HETATM   33  C   UNL     1      -9.478  17.091  68.947  1.00  0.00    -0.235 A  
HETATM   34  N   UNL     1      -9.568  18.436  69.212  1.00  0.00    -0.042 NA 
HETATM   35  C   UNL     1      -9.946  18.977  68.072  1.00  0.00    -0.368 A  
HETATM   36  C   UNL     1     -10.197  20.326  67.737  1.00  0.00    -0.464 A  
HETATM   37  C   UNL     1     -10.576  20.633  66.492  1.00  0.00     0.478 A  
HETATM   38  C   UNL     1     -10.708  19.510  65.529  1.00  0.00    -0.205 A  
HETATM   39  N   UNL     1     -10.491  18.259  65.775  1.00  0.00    -0.617 NA 
HETATM   40  N   UNL     1     -10.108  18.026  67.072  1.00  0.00    -0.329 NA 
ENDBRANCH  31  32
ENDBRANCH  25  30
ENDBRANCH  21  23
ENDBRANCH  12  19
ENDBRANCH   8   9
ENDBRANCH   5   8
TORSDOF 6
ENDMDL
MODEL       62
REMARK 921   NORMALIZED FREE ENERGY PREDICTED BY IDOCK:   -3.89 KCAL/MOL
REMARK 922        TOTAL FREE ENERGY PREDICTED BY IDOCK:   -6.57 KCAL/MOL
REMARK 923 INTER-LIGAND FREE ENERGY PREDICTED BY IDOCK:   -8.98 KCAL/MOL
REMARK 924 INTRA-LIGAND FREE ENERGY PREDICTED BY IDOCK:    2.41 KCAL/MOL
REMARK 927      BINDING AFFINITY PREDICTED BY RF-SCORE:    0.00 PKD
ROOT
HETATM    1  C   UNL     1      -5.141  16.743  66.494  1.00  0.00     0.124 C  
HETATM    2  N   UNL     1      -6.099  17.336  67.427  1.00  0.00    -0.132 NA 
HETATM    3  C   UNL     1      -5.637  18.662  67.889  1.00  0.00    -0.176 C  
HETATM    4  C   UNL     1      -5.812  19.806  66.864  1.00  0.00    -0.172 C  
HETATM    5  N   UNL     1      -7.172  19.927  66.303  1.00  0.00    -0.261 NA 
HETATM    6  C   UNL     1      -7.434  17.445  66.805  1.00  0.00    -0.222 C  
HETATM    7  C   UNL     1      -7.584  18.603  65.784  1.00  0.00    -0.047 C  
ENDROOT
BRANCH   5   8
HETATM    8  C   UNL     1      -8.167  20.391  67.277  1.00  0.00    -0.336 C  
BRANCH   8   9
HETATM    9  C   UNL     1      -9.042  19.300  67.850  1.00  0.00    -0.363 A  
HETATM   10  C   UNL     1      -8.591  18.677  69.025  1.00  0.00    -0.101 A  
HETATM   11  C   UNL     1      -9.262  17.587  69.568  1.00  0.00     0.542 A  
HETATM   12  C   UNL     1     -10.400  17.079  68.953  1.00  0.00    -0.337 A  
HETATM   13  C   UNL     1     -10.905  17.744  67.828  1.00  0.00    -0.238 A  
HETATM   14  F   UNL     1     -12.089  19.984  66.251  1.00  0.00     0.786 F  
HETATM   15  C   UNL     1     -10.237  18.856  67.254  1.00  0.00    -0.454 A  
HETATM   16  F   UNL     1     -10.149  20.442  65.384  1.00  0.00    -0.476 F  
HETATM   17  C   UNL     1     -10.852  19.463  66.008  1.00  0.00    -0.309 C  
HETATM   18  F   UNL     1     -11.049  18.513  65.044  1.00  0.00    -0.309 F  
BRANCH  12  19
HETATM   19  N   UNL     1     -11.045  15.896  69.383  1.00  0.00    -0.296 N  
HETATM   20  O   UNL     1     -11.793  16.550  71.498  1.00  0.00    -0.350 OA 
HETATM   21  C   UNL     1     -11.655  15.712  70.615  1.00  0.00    -0.367 C  
HETATM   22  H   UNL     1     -11.064  15.112  68.731  1.00  0.00     0.000 HD 
BRANCH  21  23
HETATM   23  C   UNL     1     -12.148  14.342  70.907  1.00  0.00    -0.414 A  
HETATM   24  C   UNL     1     -11.674  13.295  70.103  1.00  0.00    -0.254 A  
HETATM   25  C   UNL     1     -12.074  11.977  70.338  1.00  0.00    -0.407 A  
HETATM   26  C   UNL     1     -13.015  14.067  71.966  1.00  0.00    -0.450 A  
HETATM   27  C   UNL     1     -12.961  11.697  71.391  1.00  0.00    -0.426 A  
HETATM   28  C   UNL     1     -13.417  12.753  72.203  1.00  0.00    -0.591 A  
HETATM   29  C   UNL     1     -13.442  10.308  71.715  1.00  0.00    -0.387 C  
BRANCH  25  30
HETATM   30  C   UNL     1     -11.578  10.952  69.463  1.00  0.00    -0.384 C  
HETATM   31  C   UNL     1     -11.126  10.124  68.719  1.00  0.00    -0.250 C  
BRANCH  31  32
HETATM   32  C   UNL     1     -10.535   9.239  67.777  1.00  0.00    -0.255 A  
HETATM   33  C   UNL     1      -9.922   9.578  66.592  1.00  0.00    -0.247 A  
HETATM   34  N   UNL     1      -9.455   8.469  65.930  1.00  0.00    -0.182 NA 
HETATM   35  C   UNL     1      -9.776   7.455  66.707  1.00  0.00    -0.207 A  
HETATM   36  C   UNL     1      -9.550   6.071  66.546  1.00  0.00    -0.182 A  
HETATM   37  C   UNL     1      -9.977   5.223  67.488  1.00  0.00    -0.206 A  
HETATM   38  C   UNL     1     -10.675   5.810  68.660  1.00  0.00    -0.233 A  
HETATM   39  N   UNL     1     -10.910   7.066  68.863  1.00  0.00    -0.197 NA 
HETATM   40  N   UNL     1     -10.442   7.869  67.854  1.00  0.00    -0.215 NA 
ENDBRANCH  31  32
ENDBRANCH  25  30
ENDBRANCH  21  23
ENDBRANCH  12  19
ENDBRANCH   8   9
ENDBRANCH   5   8
TORSDOF 6
ENDMDL
MODEL       63
REMARK 921   NORMALIZED FREE ENERGY PREDICTED BY IDOCK:   -3.89 KCAL/MOL
REMARK 922        TOTAL FREE ENERGY PREDICTED BY IDOCK:   -6.57 KCAL/MOL
REMARK 923 INTER-LIGAND FREE ENERGY PREDICTED BY IDOCK:   -6.95 KCAL/MOL
REMARK 924 INTRA-LIGAND FREE ENERGY PREDICTED BY IDOCK:    0.38 KCAL/MOL
REMARK 927      BINDING AFFINITY PREDICTED BY RF-SCORE:    0.00 PKD
ROOT
HETATM    1  C   UNL     1      -9.930  20.213  69.618  1.00  0.00     0.208 C  
HETATM    2  N   UNL     1     -10.186  19.208  68.587  1.00  0.00    -0.381 NA 
HETATM    3  C   UNL     1      -9.416  19.499  67.360  1.00  0.00    -0.321 C  
HETATM    4  C   UNL     1      -7.912  19.148  67.435  1.00  0.00    -0.259 C  
HETATM    5  N   UNL     1      -7.625  17.770  67.882  1.00  0.00    -0.208 NA 
HETATM    6  C   UNL     1      -9.866  17.856  69.087  1.00  0.00    -0.153 C  
HETATM    7  C   UNL     1      -8.351  17.527  69.149  1.00  0.00     0.078 C  
ENDROOT
BRANCH   5   8
HETATM    8  C   UNL     1      -8.009  16.745  66.904  1.00  0.00    -0.213 C  
BRANCH   8   9
HETATM    9  C   UNL     1      -8.449  15.433  67.510  1.00  0.00    -0.188 A  
HETATM   10  C   UNL     1      -7.460  14.665  68.146  1.00  0.00    -0.125 A  
HETATM   11  C   UNL     1      -7.736  13.393  68.635  1.00  0.00    -0.088 A  
HETATM   12  C   UNL     1      -9.005  12.843  68.499  1.00  0.00    -0.047 A  
HETATM   13  C   UNL     1     -10.019  13.633  67.941  1.00  0.00    -0.244 A  
HETATM   14  F   UNL     1     -11.917  15.924  67.712  1.00  0.00    -0.143 F  
HETATM   15  C   UNL     1      -9.762  14.931  67.433  1.00  0.00    -0.217 A  
HETATM   16  F   UNL     1     -10.657  16.858  66.206  1.00  0.00    -0.311 F  
HETATM   17  C   UNL     1     -10.928  15.672  66.807  1.00  0.00    -0.230 C  
HETATM   18  F   UNL     1     -11.521  14.919  65.832  1.00  0.00    -0.344 F  
BRANCH  12  19
HETATM   19  N   UNL     1      -9.309  11.508  68.856  1.00  0.00    -0.395 N  
HETATM   20  O   UNL     1     -11.638  11.615  69.009  1.00  0.00    -0.259 OA 
HETATM   21  C   UNL     1     -10.578  11.010  69.112  1.00  0.00    -0.219 C  
HETATM   22  H   UNL     1      -8.528  10.857  68.932  1.00  0.00     0.000 HD 
BRANCH  21  23
HETATM   23  C   UNL     1     -10.648   9.612  69.606  1.00  0.00    -0.252 A  
HETATM   24  C   UNL     1     -10.165   8.599  68.765  1.00  0.00    -0.224 A  
HETATM   25  C   UNL     1     -10.175   7.264  69.176  1.00  0.00    -0.197 A  
HETATM   26  C   UNL     1     -11.129   9.290  70.877  1.00  0.00    -0.374 A  
HETATM   27  C   UNL     1     -10.675   6.931  70.446  1.00  0.00    -0.278 A  
HETATM   28  C   UNL     1     -11.141   7.957  71.290  1.00  0.00    -0.278 A  
HETATM   29  C   UNL     1     -10.722   5.521  70.970  1.00  0.00    -0.275 C  
BRANCH  25  30
HETATM   30  C   UNL     1      -9.693   6.269  68.260  1.00  0.00    -0.122 C  
HETATM   31  C   UNL     1      -9.332   5.441  67.468  1.00  0.00    -0.119 C  
BRANCH  31  32
HETATM   32  C   UNL     1      -9.026   4.443  66.503  1.00  0.00    -0.117 A  
HETATM   33  C   UNL     1      -9.699   4.191  65.328  1.00  0.00    -0.199 A  
HETATM   34  N   UNL     1      -9.126   3.156  64.630  1.00  0.00    -0.131 NA 
HETATM   35  C   UNL     1      -8.105   2.778  65.370  1.00  0.00    -0.087 A  
HETATM   36  C   UNL     1      -7.149   1.760  65.160  1.00  0.00    -0.048 A  
HETATM   37  C   UNL     1      -6.190   1.563  66.072  1.00  0.00    -0.022 A  
HETATM   38  C   UNL     1      -6.199   2.446  67.266  1.00  0.00    -0.028 A  
HETATM   39  N   UNL     1      -7.046   3.393  67.513  1.00  0.00    -0.057 NA 
HETATM   40  N   UNL     1      -7.996   3.532  66.533  1.00  0.00    -0.088 NA 
ENDBRANCH  31  32
ENDBRANCH  25  30
ENDBRANCH  21  23
ENDBRANCH  12  19
ENDBRANCH   8   9
ENDBRANCH   5   8
TORSDOF 6
ENDMDL
MODEL       64
REMARK 921   NORMALIZED FREE ENERGY PREDICTED BY IDOCK:   -3.79 KCAL/MOL
REMARK 922        TOTAL FREE ENERGY PREDICTED BY IDOCK:   -6.44 KCAL/MOL
REMARK 923 INTER-LIGAND FREE ENERGY PREDICTED BY IDOCK:   -5.14 KCAL/MOL
REMARK 924 INTRA-LIGAND FREE ENERGY PREDICTED BY IDOCK:   -1.30 KCAL/MOL
REMARK 927      BINDING AFFINITY PREDICTED BY RF-SCORE:    0.00 PKD
ROOT
HETATM    1  C   UNL     1      -9.950   2.722  73.627  1.00  0.00    -0.104 C  
HETATM    2  N   UNL     1     -10.325   3.539  72.474  1.00  0.00    -0.154 NA 
HETATM    3  C   UNL     1      -9.867   4.934  72.640  1.00  0.00    -0.160 C  
HETATM    4  C   UNL     1      -8.355   5.156  72.402  1.00  0.00    -0.121 C  
HETATM    5  N   UNL     1      -7.850   4.622  71.122  1.00  0.00    -0.080 NA 
HETATM    6  C   UNL     1      -9.778   2.964  71.228  1.00  0.00    -0.135 C  
HETATM    7  C   UNL     1      -8.261   3.204  71.011  1.00  0.00    -0.061 C  
ENDROOT
BRANCH   5   8
HETATM    8  C   UNL     1      -8.336   5.357  69.948  1.00  0.00    -0.100 C  
BRANCH   8   9
HETATM    9  C   UNL     1      -8.049   6.840  69.972  1.00  0.00    -0.125 A  
HETATM   10  C   UNL     1      -6.699   7.224  70.013  1.00  0.00    -0.051 A  
HETATM   11  C   UNL     1      -6.331   8.557  70.152  1.00  0.00    -0.038 A  
HETATM   12  C   UNL     1      -7.297   9.550  70.263  1.00  0.00    -0.133 A  
HETATM   13  C   UNL     1      -8.645   9.187  70.140  1.00  0.00    -0.195 A  
HETATM   14  F   UNL     1     -11.105   8.127  68.825  1.00  0.00    -0.086 F  
HETATM   15  C   UNL     1      -9.045   7.834  70.000  1.00  0.00    -0.150 A  
HETATM   16  F   UNL     1     -10.924   6.258  69.922  1.00  0.00    -0.288 F  
HETATM   17  C   UNL     1     -10.535   7.558  69.926  1.00  0.00    -0.229 C  
HETATM   18  F   UNL     1     -11.190   8.111  70.991  1.00  0.00    -0.241 F  
BRANCH  12  19
HETATM   19  N   UNL     1      -6.986  10.902  70.538  1.00  0.00    -0.008 N  
HETATM   20  O   UNL     1      -6.940  11.791  68.378  1.00  0.00    -0.070 OA 
HETATM   21  C   UNL     1      -6.801  11.898  69.590  1.00  0.00     0.055 C  
HETATM   22  H   UNL     1      -6.888  11.168  71.518  1.00  0.00     0.000 HD 
BRANCH  21  23
HETATM   23  C   UNL     1      -6.343  13.215  70.099  1.00  0.00     0.043 A  
HETATM   24  C   UNL     1      -6.700  14.356  69.367  1.00  0.00    -0.140 A  
HETATM   25  C   UNL     1      -6.327  15.630  69.802  1.00  0.00    -0.170 A  
HETATM   26  C   UNL     1      -5.621  13.349  71.287  1.00  0.00    -0.172 A  
HETATM   27  C   UNL     1      -5.584  15.770  70.986  1.00  0.00     0.101 A  
HETATM   28  C   UNL     1      -5.246  14.620  71.724  1.00  0.00    -0.143 A  
HETATM   29  C   UNL     1      -5.142  17.102  71.528  1.00  0.00     0.147 C  
BRANCH  25  30
HETATM   30  C   UNL     1      -6.698  16.758  68.994  1.00  0.00    -0.209 C  
HETATM   31  C   UNL     1      -6.967  17.695  68.292  1.00  0.00    -0.220 C  
BRANCH  31  32
HETATM   32  C   UNL     1      -7.163  18.810  67.433  1.00  0.00    -0.206 A  
HETATM   33  C   UNL     1      -7.977  19.897  67.659  1.00  0.00    -0.292 A  
HETATM   34  N   UNL     1      -7.922  20.794  66.620  1.00  0.00    -0.042 NA 
HETATM   35  C   UNL     1      -7.076  20.261  65.763  1.00  0.00    -0.257 A  
HETATM   36  C   UNL     1      -6.622  20.732  64.511  1.00  0.00    -0.236 A  
HETATM   37  C   UNL     1      -5.747  20.000  63.814  1.00  0.00    -0.313 A  
HETATM   38  C   UNL     1      -5.305  18.717  64.417  1.00  0.00    -0.163 A  
HETATM   39  N   UNL     1      -5.683  18.235  65.556  1.00  0.00    -0.196 NA 
HETATM   40  N   UNL     1      -6.580  19.042  66.209  1.00  0.00    -0.197 NA 
ENDBRANCH  31  32
ENDBRANCH  25  30
ENDBRANCH  21  23
ENDBRANCH  12  19
ENDBRANCH   8   9
ENDBRANCH   5   8
TORSDOF 6
ENDMDL
MODEL       65
REMARK 921   NORMALIZED FREE ENERGY PREDICTED BY IDOCK:   -3.74 KCAL/MOL
REMARK 922        TOTAL FREE ENERGY PREDICTED BY IDOCK:   -6.36 KCAL/MOL
REMARK 923 INTER-LIGAND FREE ENERGY PREDICTED BY IDOCK:   -8.26 KCAL/MOL
REMARK 924 INTRA-LIGAND FREE ENERGY PREDICTED BY IDOCK:    1.90 KCAL/MOL
REMARK 927      BINDING AFFINITY PREDICTED BY RF-SCORE:    0.00 PKD
ROOT
HETATM    1  C   UNL     1      -6.520   3.947  74.140  1.00  0.00    -0.039 C  
HETATM    2  N   UNL     1      -6.880   4.544  72.854  1.00  0.00    -0.056 NA 
HETATM    3  C   UNL     1      -6.474   3.671  71.733  1.00  0.00    -0.015 C  
HETATM    4  C   UNL     1      -7.381   2.440  71.502  1.00  0.00    -0.036 C  
HETATM    5  N   UNL     1      -8.820   2.751  71.387  1.00  0.00    -0.073 NA 
HETATM    6  C   UNL     1      -8.330   4.816  72.794  1.00  0.00    -0.111 C  
HETATM    7  C   UNL     1      -9.218   3.566  72.558  1.00  0.00    -0.102 C  
ENDROOT
BRANCH   5   8
HETATM    8  C   UNL     1      -9.166   3.475  70.158  1.00  0.00    -0.154 C  
BRANCH   8   9
HETATM    9  C   UNL     1      -9.554   4.920  70.369  1.00  0.00    -0.259 A  
HETATM   10  C   UNL     1     -10.782   5.161  71.006  1.00  0.00    -0.133 A  
HETATM   11  C   UNL     1     -11.283   6.450  71.146  1.00  0.00    -0.357 A  
HETATM   12  C   UNL     1     -10.579   7.541  70.647  1.00  0.00    -0.224 A  
HETATM   13  C   UNL     1      -9.315   7.319  70.084  1.00  0.00    -0.155 A  
HETATM   14  F   UNL     1      -6.447   6.504  69.984  1.00  0.00    -0.035 F  
HETATM   15  C   UNL     1      -8.785   6.013  69.928  1.00  0.00    -0.131 A  
HETATM   16  F   UNL     1      -6.977   4.642  68.993  1.00  0.00    -0.047 F  
HETATM   17  C   UNL     1      -7.429   5.894  69.260  1.00  0.00    -0.084 C  
HETATM   18  F   UNL     1      -7.421   6.528  68.047  1.00  0.00    -0.085 F  
BRANCH  12  19
HETATM   19  N   UNL     1     -11.099   8.856  70.642  1.00  0.00    -0.255 N  
HETATM   20  O   UNL     1     -10.177   9.683  68.660  1.00  0.00    -0.176 OA 
HETATM   21  C   UNL     1     -10.837   9.823  69.682  1.00  0.00    -0.250 C  
HETATM   22  H   UNL     1     -11.719   9.116  71.409  1.00  0.00     0.000 HD 
BRANCH  21  23
HETATM   23  C   UNL     1     -11.378  11.180  69.951  1.00  0.00    -0.348 A  
HETATM   24  C   UNL     1     -10.841  12.250  69.220  1.00  0.00    -0.082 A  
HETATM   25  C   UNL     1     -11.321  13.549  69.401  1.00  0.00    -0.293 A  
HETATM   26  C   UNL     1     -12.415  11.407  70.857  1.00  0.00    -0.478 A  
HETATM   27  C   UNL     1     -12.353  13.788  70.325  1.00  0.00    -0.407 A  
HETATM   28  C   UNL     1     -12.896  12.704  71.040  1.00  0.00    -0.254 A  
HETATM   29  C   UNL     1     -12.930  15.154  70.582  1.00  0.00    -0.420 C  
BRANCH  25  30
HETATM   30  C   UNL     1     -10.713  14.608  68.645  1.00  0.00    -0.252 C  
HETATM   31  C   UNL     1     -10.165  15.465  68.005  1.00  0.00    -0.235 C  
BRANCH  31  32
HETATM   32  C   UNL     1      -9.409  16.420  67.273  1.00  0.00    -0.221 A  
HETATM   33  C   UNL     1      -8.208  16.212  66.632  1.00  0.00    -0.286 A  
HETATM   34  N   UNL     1      -7.760  17.355  66.016  1.00  0.00    -0.494 NA 
HETATM   35  C   UNL     1      -8.683  18.259  66.275  1.00  0.00    -0.178 A  
HETATM   36  C   UNL     1      -8.766  19.618  65.899  1.00  0.00    -0.135 A  
HETATM   37  C   UNL     1      -9.819  20.343  66.290  1.00  0.00    -0.365 A  
HETATM   38  C   UNL     1     -10.848  19.655  67.111  1.00  0.00    -0.405 A  
HETATM   39  N   UNL     1     -10.828  18.416  67.484  1.00  0.00    -0.357 NA 
HETATM   40  N   UNL     1      -9.718  17.741  67.045  1.00  0.00    -0.279 NA 
ENDBRANCH  31  32
ENDBRANCH  25  30
ENDBRANCH  21  23
ENDBRANCH  12  19
ENDBRANCH   8   9
ENDBRANCH   5   8
TORSDOF 6
ENDMDL
MODEL       66
REMARK 921   NORMALIZED FREE ENERGY PREDICTED BY IDOCK:   -3.45 KCAL/MOL
REMARK 922        TOTAL FREE ENERGY PREDICTED BY IDOCK:   -5.98 KCAL/MOL
REMARK 923 INTER-LIGAND FREE ENERGY PREDICTED BY IDOCK:   -4.70 KCAL/MOL
REMARK 924 INTRA-LIGAND FREE ENERGY PREDICTED BY IDOCK:   -1.28 KCAL/MOL
REMARK 927      BINDING AFFINITY PREDICTED BY RF-SCORE:    0.00 PKD
ROOT
HETATM    1  C   UNL     1     -11.038   2.475  63.223  1.00  0.00    -0.141 C  
HETATM    2  N   UNL     1      -9.719   3.047  62.954  1.00  0.00    -0.092 NA 
HETATM    3  C   UNL     1      -9.637   4.440  63.440  1.00  0.00    -0.027 C  
HETATM    4  C   UNL     1      -9.473   4.588  64.971  1.00  0.00    -0.152 C  
HETATM    5  N   UNL     1      -8.368   3.800  65.549  1.00  0.00    -0.104 NA 
HETATM    6  C   UNL     1      -8.658   2.224  63.571  1.00  0.00    -0.085 C  
HETATM    7  C   UNL     1      -8.512   2.394  65.106  1.00  0.00    -0.099 C  
ENDROOT
BRANCH   5   8
HETATM    8  C   UNL     1      -7.037   4.289  65.169  1.00  0.00    -0.063 C  
BRANCH   8   9
HETATM    9  C   UNL     1      -6.596   5.539  65.895  1.00  0.00    -0.044 A  
HETATM   10  C   UNL     1      -6.467   5.450  67.290  1.00  0.00    -0.051 A  
HETATM   11  C   UNL     1      -6.179   6.569  68.062  1.00  0.00    -0.032 A  
HETATM   12  C   UNL     1      -6.017   7.815  67.468  1.00  0.00    -0.045 A  
HETATM   13  C   UNL     1      -6.061   7.900  66.070  1.00  0.00    -0.038 A  
HETATM   14  F   UNL     1      -5.226   7.394  63.250  1.00  0.00    -0.031 F  
HETATM   15  C   UNL     1      -6.357   6.773  65.262  1.00  0.00    -0.042 A  
HETATM   16  F   UNL     1      -6.834   5.952  62.999  1.00  0.00    -0.036 F  
HETATM   17  C   UNL     1      -6.426   6.996  63.763  1.00  0.00    -0.043 C  
HETATM   18  F   UNL     1      -7.295   8.007  63.457  1.00  0.00    -0.089 F  
BRANCH  12  19
HETATM   19  N   UNL     1      -5.854   9.008  68.211  1.00  0.00    -0.038 N  
HETATM   20  O   UNL     1      -8.078   9.688  68.440  1.00  0.00    -0.102 OA 
HETATM   21  C   UNL     1      -6.876   9.858  68.607  1.00  0.00    -0.051 C  
HETATM   22  H   UNL     1      -4.904   9.265  68.478  1.00  0.00     0.000 HD 
BRANCH  21  23
HETATM   23  C   UNL     1      -6.463  11.126  69.258  1.00  0.00    -0.088 A  
HETATM   24  C   UNL     1      -6.862  12.328  68.655  1.00  0.00    -0.087 A  
HETATM   25  C   UNL     1      -6.532  13.558  69.228  1.00  0.00    -0.111 A  
HETATM   26  C   UNL     1      -5.743  11.154  70.454  1.00  0.00    -0.137 A  
HETATM   27  C   UNL     1      -5.792  13.594  70.422  1.00  0.00    -0.161 A  
HETATM   28  C   UNL     1      -5.411  12.382  71.028  1.00  0.00    -0.143 A  
HETATM   29  C   UNL     1      -5.394  14.873  71.107  1.00  0.00    -0.122 C  
BRANCH  25  30
HETATM   30  C   UNL     1      -6.944  14.755  68.549  1.00  0.00    -0.108 C  
HETATM   31  C   UNL     1      -7.256  15.781  68.007  1.00  0.00    -0.141 C  
BRANCH  31  32
HETATM   32  C   UNL     1      -7.575  17.055  67.464  1.00  0.00    -0.165 A  
HETATM   33  C   UNL     1      -8.687  17.819  67.740  1.00  0.00    -0.241 A  
HETATM   34  N   UNL     1      -8.672  19.002  67.042  1.00  0.00    -0.286 NA 
HETATM   35  C   UNL     1      -7.557  18.965  66.344  1.00  0.00    -0.262 A  
HETATM   36  C   UNL     1      -7.007  19.906  65.445  1.00  0.00    -0.323 A  
HETATM   37  C   UNL     1      -5.840  19.638  64.848  1.00  0.00    -0.265 A  
HETATM   38  C   UNL     1      -5.192  18.343  65.178  1.00  0.00    -0.167 A  
HETATM   39  N   UNL     1      -5.645  17.445  65.992  1.00  0.00    -0.275 NA 
HETATM   40  N   UNL     1      -6.843  17.792  66.562  1.00  0.00    -0.207 NA 
ENDBRANCH  31  32
ENDBRANCH  25  30
ENDBRANCH  21  23
ENDBRANCH  12  19
ENDBRANCH   8   9
ENDBRANCH   5   8
TORSDOF 6
ENDMDL
MODEL       67
REMARK 921   NORMALIZED FREE ENERGY PREDICTED BY IDOCK:   -3.42 KCAL/MOL
REMARK 922        TOTAL FREE ENERGY PREDICTED BY IDOCK:   -5.94 KCAL/MOL
REMARK 923 INTER-LIGAND FREE ENERGY PREDICTED BY IDOCK:   -5.35 KCAL/MOL
REMARK 924 INTRA-LIGAND FREE ENERGY PREDICTED BY IDOCK:   -0.59 KCAL/MOL
REMARK 927      BINDING AFFINITY PREDICTED BY RF-SCORE:    0.00 PKD
ROOT
HETATM    1  C   UNL     1     -10.120  20.447  65.883  1.00  0.00    -0.080 C  
HETATM    2  N   UNL     1      -9.061  19.669  66.525  1.00  0.00    -0.356 NA 
HETATM    3  C   UNL     1      -9.027  19.922  67.981  1.00  0.00    -0.278 C  
HETATM    4  C   UNL     1     -10.140  19.217  68.791  1.00  0.00    -0.401 C  
HETATM    5  N   UNL     1     -10.253  17.766  68.546  1.00  0.00    -0.369 NA 
HETATM    6  C   UNL     1      -9.238  18.228  66.258  1.00  0.00    -0.203 C  
HETATM    7  C   UNL     1     -10.357  17.544  67.085  1.00  0.00    -0.330 C  
ENDROOT
BRANCH   5   8
HETATM    8  C   UNL     1      -9.120  16.993  69.069  1.00  0.00    -0.146 C  
BRANCH   8   9
HETATM    9  C   UNL     1      -9.340  15.498  69.098  1.00  0.00    -0.250 A  
HETATM   10  C   UNL     1      -8.479  14.715  68.313  1.00  0.00    -0.158 A  
HETATM   11  C   UNL     1      -8.667  13.344  68.181  1.00  0.00    -0.179 A  
HETATM   12  C   UNL     1      -9.726  12.711  68.821  1.00  0.00     0.063 A  
HETATM   13  C   UNL     1     -10.541  13.469  69.673  1.00  0.00     0.379 A  
HETATM   14  F   UNL     1     -11.246  15.164  72.025  1.00  0.00    -0.461 F  
HETATM   15  C   UNL     1     -10.370  14.868  69.822  1.00  0.00    -0.111 A  
HETATM   16  F   UNL     1     -11.264  16.944  70.777  1.00  0.00    -0.296 F  
HETATM   17  C   UNL     1     -11.344  15.590  70.733  1.00  0.00    -0.355 C  
HETATM   18  F   UNL     1     -12.638  15.333  70.371  1.00  0.00    -0.350 F  
BRANCH  12  19
HETATM   19  N   UNL     1     -10.046  11.348  68.618  1.00  0.00    -0.209 N  
HETATM   20  O   UNL     1      -8.376  10.313  69.884  1.00  0.00    -0.143 OA 
HETATM   21  C   UNL     1      -9.340  10.269  69.129  1.00  0.00    -0.204 C  
HETATM   22  H   UNL     1     -10.866  11.142  68.048  1.00  0.00     0.000 HD 
BRANCH  21  23
HETATM   23  C   UNL     1      -9.774   8.924  68.673  1.00  0.00    -0.169 A  
HETATM   24  C   UNL     1      -8.980   8.275  67.716  1.00  0.00    -0.139 A  
HETATM   25  C   UNL     1      -9.313   6.996  67.262  1.00  0.00    -0.153 A  
HETATM   26  C   UNL     1     -10.899   8.283  69.194  1.00  0.00    -0.036 A  
HETATM   27  C   UNL     1     -10.454   6.353  67.768  1.00  0.00    -0.281 A  
HETATM   28  C   UNL     1     -11.234   7.006  68.742  1.00  0.00    -0.010 A  
HETATM   29  C   UNL     1     -10.885   4.977  67.337  1.00  0.00     0.322 C  
BRANCH  25  30
HETATM   30  C   UNL     1      -8.478   6.394  66.260  1.00  0.00    -0.131 C  
HETATM   31  C   UNL     1      -7.775   5.935  65.401  1.00  0.00    -0.093 C  
BRANCH  31  32
HETATM   32  C   UNL     1      -6.974   5.490  64.314  1.00  0.00    -0.048 A  
HETATM   33  C   UNL     1      -6.488   6.252  63.276  1.00  0.00    -0.036 A  
HETATM   34  N   UNL     1      -5.743   5.498  62.402  1.00  0.00    -0.014 NA 
HETATM   35  C   UNL     1      -5.770   4.281  62.903  1.00  0.00    -0.013 A  
HETATM   36  C   UNL     1      -5.178   3.086  62.438  1.00  0.00    -0.004 A  
HETATM   37  C   UNL     1      -5.351   1.956  63.132  1.00  0.00    -0.007 A  
HETATM   38  C   UNL     1      -6.171   2.038  64.368  1.00  0.00    -0.018 A  
HETATM   39  N   UNL     1      -6.735   3.101  64.843  1.00  0.00    -0.039 NA 
HETATM   40  N   UNL     1      -6.512   4.216  64.076  1.00  0.00    -0.040 NA 
ENDBRANCH  31  32
ENDBRANCH  25  30
ENDBRANCH  21  23
ENDBRANCH  12  19
ENDBRANCH   8   9
ENDBRANCH   5   8
TORSDOF 6
ENDMDL
MODEL       68
REMARK 921   NORMALIZED FREE ENERGY PREDICTED BY IDOCK:   -3.42 KCAL/MOL
REMARK 922        TOTAL FREE ENERGY PREDICTED BY IDOCK:   -5.93 KCAL/MOL
REMARK 923 INTER-LIGAND FREE ENERGY PREDICTED BY IDOCK:   -7.66 KCAL/MOL
REMARK 924 INTRA-LIGAND FREE ENERGY PREDICTED BY IDOCK:    1.73 KCAL/MOL
REMARK 927      BINDING AFFINITY PREDICTED BY RF-SCORE:    0.00 PKD
ROOT
HETATM    1  C   UNL     1      -6.989  15.316  67.519  1.00  0.00    -0.196 C  
HETATM    2  N   UNL     1      -8.356  15.259  68.034  1.00  0.00    -0.143 NA 
HETATM    3  C   UNL     1      -9.092  16.503  67.726  1.00  0.00    -0.204 C  
HETATM    4  C   UNL     1      -9.569  16.633  66.261  1.00  0.00    -0.299 C  
HETATM    5  N   UNL     1     -10.332  15.473  65.759  1.00  0.00    -0.336 NA 
HETATM    6  C   UNL     1      -9.072  14.090  67.485  1.00  0.00    -0.196 C  
HETATM    7  C   UNL     1      -9.543  14.246  66.015  1.00  0.00    -0.243 C  
ENDROOT
BRANCH   5   8
HETATM    8  C   UNL     1     -11.656  15.331  66.377  1.00  0.00     0.007 C  
BRANCH   8   9
HETATM    9  C   UNL     1     -11.864  14.034  67.124  1.00  0.00    -0.444 A  
HETATM   10  C   UNL     1     -11.858  14.101  68.526  1.00  0.00    -0.390 A  
HETATM   11  C   UNL     1     -11.927  12.951  69.305  1.00  0.00    -0.313 A  
HETATM   12  C   UNL     1     -11.996  11.697  68.710  1.00  0.00    -0.264 A  
HETATM   13  C   UNL     1     -12.085  11.624  67.313  1.00  0.00     0.332 A  
HETATM   14  F   UNL     1     -13.262  12.034  64.602  1.00  0.00    -0.364 F  
HETATM   15  C   UNL     1     -12.014  12.782  66.498  1.00  0.00    -0.428 A  
HETATM   16  F   UNL     1     -11.876  13.664  64.213  1.00  0.00    -0.376 F  
HETATM   17  C   UNL     1     -12.073  12.574  64.997  1.00  0.00    -0.446 C  
HETATM   18  F   UNL     1     -11.122  11.680  64.588  1.00  0.00    -0.344 F  
BRANCH  12  19
HETATM   19  N   UNL     1     -11.934  10.490  69.446  1.00  0.00    -0.513 N  
HETATM   20  O   UNL     1     -13.267  11.031  71.287  1.00  0.00    -0.321 OA 
HETATM   21  C   UNL     1     -12.537  10.262  70.674  1.00  0.00    -0.304 C  
HETATM   22  H   UNL     1     -11.400   9.723  69.038  1.00  0.00     0.000 HD 
BRANCH  21  23
HETATM   23  C   UNL     1     -12.223   8.968  71.330  1.00  0.00    -0.387 A  
HETATM   24  C   UNL     1     -11.367   8.087  70.655  1.00  0.00    -0.256 A  
HETATM   25  C   UNL     1     -11.006   6.863  71.225  1.00  0.00    -0.275 A  
HETATM   26  C   UNL     1     -12.710   8.631  72.595  1.00  0.00    -0.268 A  
HETATM   27  C   UNL     1     -11.508   6.511  72.490  1.00  0.00    -0.274 A  
HETATM   28  C   UNL     1     -12.353   7.410  73.167  1.00  0.00     1.034 A  
HETATM   29  C   UNL     1     -11.171   5.216  73.178  1.00  0.00    -0.398 C  
BRANCH  25  30
HETATM   30  C   UNL     1     -10.149   5.990  70.473  1.00  0.00    -0.244 C  
HETATM   31  C   UNL     1      -9.471   5.234  69.832  1.00  0.00    -0.211 C  
BRANCH  31  32
HETATM   32  C   UNL     1      -8.759   4.253  69.089  1.00  0.00    -0.085 A  
HETATM   33  C   UNL     1      -8.737   2.895  69.316  1.00  0.00    -0.082 A  
HETATM   34  N   UNL     1      -7.949   2.242  68.400  1.00  0.00    -0.057 NA 
HETATM   35  C   UNL     1      -7.494   3.194  67.612  1.00  0.00    -0.061 A  
HETATM   36  C   UNL     1      -6.639   3.124  66.490  1.00  0.00    -0.037 A  
HETATM   37  C   UNL     1      -6.313   4.248  65.843  1.00  0.00    -0.032 A  
HETATM   38  C   UNL     1      -6.884   5.517  66.360  1.00  0.00    -0.059 A  
HETATM   39  N   UNL     1      -7.671   5.645  67.380  1.00  0.00    -0.099 NA 
HETATM   40  N   UNL     1      -7.957   4.449  67.989  1.00  0.00    -0.080 NA 
ENDBRANCH  31  32
ENDBRANCH  25  30
ENDBRANCH  21  23
ENDBRANCH  12  19
ENDBRANCH   8   9
ENDBRANCH   5   8
TORSDOF 6
ENDMDL
MODEL       69
REMARK 921   NORMALIZED FREE ENERGY PREDICTED BY IDOCK:   -3.41 KCAL/MOL
REMARK 922        TOTAL FREE ENERGY PREDICTED BY IDOCK:   -5.91 KCAL/MOL
REMARK 923 INTER-LIGAND FREE ENERGY PREDICTED BY IDOCK:   -6.36 KCAL/MOL
REMARK 924 INTRA-LIGAND FREE ENERGY PREDICTED BY IDOCK:    0.45 KCAL/MOL
REMARK 927      BINDING AFFINITY PREDICTED BY RF-SCORE:    0.00 PKD
ROOT
HETATM    1  C   UNL     1     -12.151  16.345  70.160  1.00  0.00     0.506 C  
HETATM    2  N   UNL     1     -10.970  15.696  69.593  1.00  0.00    -0.262 NA 
HETATM    3  C   UNL     1     -11.355  14.660  68.610  1.00  0.00    -0.283 C  
HETATM    4  C   UNL     1     -11.810  15.203  67.236  1.00  0.00    -0.056 C  
HETATM    5  N   UNL     1     -10.869  16.152  66.608  1.00  0.00    -0.217 NA 
HETATM    6  C   UNL     1     -10.077  16.691  68.967  1.00  0.00    -0.293 C  
HETATM    7  C   UNL     1     -10.554  17.217  67.587  1.00  0.00    -0.350 C  
ENDROOT
BRANCH   5   8
HETATM    8  C   UNL     1      -9.618  15.526  66.160  1.00  0.00    -0.330 C  
BRANCH   8   9
HETATM    9  C   UNL     1      -9.528  14.041  66.427  1.00  0.00    -0.278 A  
HETATM   10  C   UNL     1     -10.505  13.229  65.828  1.00  0.00    -0.289 A  
HETATM   11  C   UNL     1     -10.579  11.868  66.101  1.00  0.00    -0.295 A  
HETATM   12  C   UNL     1      -9.686  11.274  66.986  1.00  0.00    -0.186 A  
HETATM   13  C   UNL     1      -8.658  12.059  67.524  1.00  0.00    -0.167 A  
HETATM   14  F   UNL     1      -6.210  13.766  67.533  1.00  0.00    -0.154 F  
HETATM   15  C   UNL     1      -8.563  13.450  67.263  1.00  0.00    -0.216 A  
HETATM   16  F   UNL     1      -7.419  15.554  67.795  1.00  0.00    -0.118 F  
HETATM   17  C   UNL     1      -7.436  14.205  67.940  1.00  0.00    -0.152 C  
HETATM   18  F   UNL     1      -7.454  14.003  69.293  1.00  0.00    -0.121 F  
BRANCH  12  19
HETATM   19  N   UNL     1      -9.795   9.927  67.403  1.00  0.00    -0.172 N  
HETATM   20  O   UNL     1     -11.264  10.145  69.207  1.00  0.00    -0.227 OA 
HETATM   21  C   UNL     1     -10.537   9.474  68.483  1.00  0.00    -0.212 C  
HETATM   22  H   UNL     1      -9.285   9.229  66.862  1.00  0.00     0.000 HD 
BRANCH  21  23
HETATM   23  C   UNL     1     -10.396   8.036  68.822  1.00  0.00    -0.223 A  
HETATM   24  C   UNL     1     -10.091   7.149  67.780  1.00  0.00    -0.215 A  
HETATM   25  C   UNL     1      -9.916   5.785  68.030  1.00  0.00    -0.173 A  
HETATM   26  C   UNL     1     -10.508   7.559  70.130  1.00  0.00    -0.226 A  
HETATM   27  C   UNL     1     -10.047   5.297  69.341  1.00  0.00    -0.311 A  
HETATM   28  C   UNL     1     -10.335   6.199  70.383  1.00  0.00    -0.269 A  
HETATM   29  C   UNL     1      -9.874   3.846  69.701  1.00  0.00    -0.106 C  
BRANCH  25  30
HETATM   30  C   UNL     1      -9.634   4.922  66.917  1.00  0.00    -0.171 C  
HETATM   31  C   UNL     1      -9.440   4.215  65.966  1.00  0.00    -0.182 C  
BRANCH  31  32
HETATM   32  C   UNL     1      -9.335   3.382  64.818  1.00  0.00    -0.148 A  
HETATM   33  C   UNL     1     -10.368   2.892  64.052  1.00  0.00    -0.105 A  
HETATM   34  N   UNL     1      -9.904   2.124  63.012  1.00  0.00    -0.092 NA 
HETATM   35  C   UNL     1      -8.593   2.147  63.138  1.00  0.00    -0.084 A  
HETATM   36  C   UNL     1      -7.587   1.538  62.355  1.00  0.00    -0.037 A  
HETATM   37  C   UNL     1      -6.303   1.710  62.689  1.00  0.00    -0.009 A  
HETATM   38  C   UNL     1      -6.020   2.544  63.884  1.00  0.00    -0.014 A  
HETATM   39  N   UNL     1      -6.896   3.127  64.637  1.00  0.00    -0.040 NA 
HETATM   40  N   UNL     1      -8.187   2.903  64.231  1.00  0.00    -0.082 NA 
ENDBRANCH  31  32
ENDBRANCH  25  30
ENDBRANCH  21  23
ENDBRANCH  12  19
ENDBRANCH   8   9
ENDBRANCH   5   8
TORSDOF 6
ENDMDL
MODEL       70
REMARK 921   NORMALIZED FREE ENERGY PREDICTED BY IDOCK:   -3.38 KCAL/MOL
REMARK 922        TOTAL FREE ENERGY PREDICTED BY IDOCK:   -5.87 KCAL/MOL
REMARK 923 INTER-LIGAND FREE ENERGY PREDICTED BY IDOCK:   -5.69 KCAL/MOL
REMARK 924 INTRA-LIGAND FREE ENERGY PREDICTED BY IDOCK:   -0.18 KCAL/MOL
REMARK 927      BINDING AFFINITY PREDICTED BY RF-SCORE:    0.00 PKD
ROOT
HETATM    1  C   UNL     1     -10.969   3.547  73.622  1.00  0.00    -0.238 C  
HETATM    2  N   UNL     1     -10.313   4.004  72.397  1.00  0.00    -0.166 NA 
HETATM    3  C   UNL     1     -10.200   5.477  72.374  1.00  0.00    -0.196 C  
HETATM    4  C   UNL     1      -9.088   6.060  73.277  1.00  0.00    -0.129 C  
HETATM    5  N   UNL     1      -7.754   5.461  73.072  1.00  0.00    -0.097 NA 
HETATM    6  C   UNL     1      -8.980   3.384  72.257  1.00  0.00    -0.099 C  
HETATM    7  C   UNL     1      -7.882   3.988  73.170  1.00  0.00    -0.084 C  
ENDROOT
BRANCH   5   8
HETATM    8  C   UNL     1      -7.149   5.806  71.780  1.00  0.00    -0.082 C  
BRANCH   8   9
HETATM    9  C   UNL     1      -7.723   7.043  71.129  1.00  0.00    -0.091 A  
HETATM   10  C   UNL     1      -8.633   6.844  70.079  1.00  0.00    -0.141 A  
HETATM   11  C   UNL     1      -9.130   7.912  69.341  1.00  0.00    -0.145 A  
HETATM   12  C   UNL     1      -8.728   9.213  69.621  1.00  0.00    -0.145 A  
HETATM   13  C   UNL     1      -7.884   9.430  70.718  1.00  0.00    -0.151 A  
HETATM   14  F   UNL     1      -7.037   9.460  73.579  1.00  0.00     0.357 F  
HETATM   15  C   UNL     1      -7.363   8.357  71.485  1.00  0.00    -0.103 A  
HETATM   16  F   UNL     1      -5.821   7.684  73.270  1.00  0.00    -0.047 F  
HETATM   17  C   UNL     1      -6.421   8.712  72.619  1.00  0.00    -0.047 C  
HETATM   18  F   UNL     1      -5.386   9.488  72.173  1.00  0.00    -0.065 F  
BRANCH  12  19
HETATM   19  N   UNL     1      -9.094  10.321  68.822  1.00  0.00    -0.151 N  
HETATM   20  O   UNL     1     -10.897  11.166  70.045  1.00  0.00    -0.125 OA 
HETATM   21  C   UNL     1     -10.153  11.181  69.072  1.00  0.00    -0.155 C  
HETATM   22  H   UNL     1      -8.531  10.504  67.991  1.00  0.00     0.000 HD 
BRANCH  21  23
HETATM   23  C   UNL     1     -10.440  12.194  68.024  1.00  0.00    -0.227 A  
HETATM   24  C   UNL     1      -9.590  13.306  67.946  1.00  0.00    -0.217 A  
HETATM   25  C   UNL     1      -9.783  14.285  66.967  1.00  0.00    -0.253 A  
HETATM   26  C   UNL     1     -11.481  12.049  67.106  1.00  0.00    -0.401 A  
HETATM   27  C   UNL     1     -10.841  14.154  66.052  1.00  0.00    -0.297 A  
HETATM   28  C   UNL     1     -11.678  13.024  66.128  1.00  0.00    -0.445 A  
HETATM   29  C   UNL     1     -11.121  15.158  64.967  1.00  0.00    -0.428 C  
BRANCH  25  30
HETATM   30  C   UNL     1      -8.897  15.416  66.955  1.00  0.00    -0.281 C  
HETATM   31  C   UNL     1      -8.131  16.339  66.909  1.00  0.00    -0.270 C  
BRANCH  31  32
HETATM   32  C   UNL     1      -7.140  17.353  66.804  1.00  0.00    -0.209 A  
HETATM   33  C   UNL     1      -5.810  17.250  67.143  1.00  0.00    -0.150 A  
HETATM   34  N   UNL     1      -5.136  18.424  66.906  1.00  0.00    -0.126 NA 
HETATM   35  C   UNL     1      -6.048  19.241  66.421  1.00  0.00    -0.165 A  
HETATM   36  C   UNL     1      -5.941  20.583  65.994  1.00  0.00    -0.239 A  
HETATM   37  C   UNL     1      -7.028  21.212  65.532  1.00  0.00     0.314 A  
HETATM   38  C   UNL     1      -8.296  20.440  65.502  1.00  0.00     0.476 A  
HETATM   39  N   UNL     1      -8.455  19.213  65.878  1.00  0.00    -0.433 NA 
HETATM   40  N   UNL     1      -7.297  18.638  66.338  1.00  0.00    -0.234 NA 
ENDBRANCH  31  32
ENDBRANCH  25  30
ENDBRANCH  21  23
ENDBRANCH  12  19
ENDBRANCH   8   9
ENDBRANCH   5   8
TORSDOF 6
ENDMDL
MODEL       71
REMARK 921   NORMALIZED FREE ENERGY PREDICTED BY IDOCK:   -2.93 KCAL/MOL
REMARK 922        TOTAL FREE ENERGY PREDICTED BY IDOCK:   -5.27 KCAL/MOL
REMARK 923 INTER-LIGAND FREE ENERGY PREDICTED BY IDOCK:   -6.12 KCAL/MOL
REMARK 924 INTRA-LIGAND FREE ENERGY PREDICTED BY IDOCK:    0.85 KCAL/MOL
REMARK 927      BINDING AFFINITY PREDICTED BY RF-SCORE:    0.00 PKD
ROOT
HETATM    1  C   UNL     1     -10.029  20.035  70.235  1.00  0.00     0.828 C  
HETATM    2  N   UNL     1      -9.068  19.264  69.448  1.00  0.00    -0.026 NA 
HETATM    3  C   UNL     1      -9.640  17.964  69.037  1.00  0.00    -0.137 C  
HETATM    4  C   UNL     1     -10.653  18.038  67.870  1.00  0.00    -0.372 C  
HETATM    5  N   UNL     1     -10.164  18.759  66.678  1.00  0.00    -0.382 NA 
HETATM    6  C   UNL     1      -8.630  20.030  68.263  1.00  0.00    -0.123 C  
HETATM    7  C   UNL     1      -9.661  20.084  67.106  1.00  0.00    -0.411 C  
ENDROOT
BRANCH   5   8
HETATM    8  C   UNL     1      -9.098  18.050  65.960  1.00  0.00     0.015 C  
BRANCH   8   9
HETATM    9  C   UNL     1      -8.723  16.712  66.555  1.00  0.00    -0.317 A  
HETATM   10  C   UNL     1      -7.591  16.682  67.385  1.00  0.00    -0.191 A  
HETATM   11  C   UNL     1      -7.096  15.485  67.889  1.00  0.00    -0.155 A  
HETATM   12  C   UNL     1      -7.710  14.278  67.575  1.00  0.00    -0.191 A  
HETATM   13  C   UNL     1      -8.887  14.305  66.816  1.00  0.00    -0.207 A  
HETATM   14  F   UNL     1     -11.727  14.943  66.156  1.00  0.00    -0.354 F  
HETATM   15  C   UNL     1      -9.410  15.512  66.289  1.00  0.00    -0.355 A  
HETATM   16  F   UNL     1     -11.091  16.545  64.831  1.00  0.00    -0.414 F  
HETATM   17  C   UNL     1     -10.663  15.411  65.441  1.00  0.00    -0.400 C  
HETATM   18  F   UNL     1     -10.496  14.513  64.423  1.00  0.00    -0.383 F  
BRANCH  12  19
HETATM   19  N   UNL     1      -7.176  13.022  67.948  1.00  0.00    -0.113 N  
HETATM   20  O   UNL     1      -7.916  11.688  66.178  1.00  0.00    -0.002 OA 
HETATM   21  C   UNL     1      -7.343  11.835  67.251  1.00  0.00    -0.141 C  
HETATM   22  H   UNL     1      -6.621  12.986  68.803  1.00  0.00     0.000 HD 
BRANCH  21  23
HETATM   23  C   UNL     1      -6.812  10.610  67.900  1.00  0.00    -0.073 A  
HETATM   24  C   UNL     1      -7.584  10.024  68.913  1.00  0.00    -0.086 A  
HETATM   25  C   UNL     1      -7.158   8.854  69.549  1.00  0.00    -0.059 A  
HETATM   26  C   UNL     1      -5.613  10.012  67.505  1.00  0.00    -0.042 A  
HETATM   27  C   UNL     1      -5.944   8.258  69.169  1.00  0.00    -0.038 A  
HETATM   28  C   UNL     1      -5.185   8.845  68.138  1.00  0.00    -0.034 A  
HETATM   29  C   UNL     1      -5.412   6.999  69.798  1.00  0.00    -0.015 C  
BRANCH  25  30
HETATM   30  C   UNL     1      -7.977   8.317  70.599  1.00  0.00    -0.094 C  
HETATM   31  C   UNL     1      -8.631   7.830  71.481  1.00  0.00    -0.133 C  
BRANCH  31  32
HETATM   32  C   UNL     1      -9.353   7.143  72.496  1.00  0.00    -0.138 A  
HETATM   33  C   UNL     1     -10.065   7.705  73.531  1.00  0.00    -0.285 A  
HETATM   34  N   UNL     1     -10.645   6.744  74.324  1.00  0.00    -0.135 NA 
HETATM   35  C   UNL     1     -10.293   5.600  73.775  1.00  0.00    -0.250 A  
HETATM   36  C   UNL     1     -10.595   4.273  74.152  1.00  0.00    -0.323 A  
HETATM   37  C   UNL     1     -10.114   3.259  73.423  1.00  0.00    -0.194 A  
HETATM   38  C   UNL     1      -9.277   3.608  72.248  1.00  0.00    -0.117 A  
HETATM   39  N   UNL     1      -8.967   4.801  71.854  1.00  0.00    -0.126 NA 
HETATM   40  N   UNL     1      -9.498   5.784  72.651  1.00  0.00    -0.150 NA 
ENDBRANCH  31  32
ENDBRANCH  25  30
ENDBRANCH  21  23
ENDBRANCH  12  19
ENDBRANCH   8   9
ENDBRANCH   5   8
TORSDOF 6
ENDMDL
MODEL       72
REMARK 921   NORMALIZED FREE ENERGY PREDICTED BY IDOCK:   -2.81 KCAL/MOL
REMARK 922        TOTAL FREE ENERGY PREDICTED BY IDOCK:   -5.10 KCAL/MOL
REMARK 923 INTER-LIGAND FREE ENERGY PREDICTED BY IDOCK:   -3.96 KCAL/MOL
REMARK 924 INTRA-LIGAND FREE ENERGY PREDICTED BY IDOCK:   -1.14 KCAL/MOL
REMARK 927      BINDING AFFINITY PREDICTED BY RF-SCORE:    0.00 PKD
ROOT
HETATM    1  C   UNL     1     -11.458   2.248  62.615  1.00  0.00    -0.041 C  
HETATM    2  N   UNL     1     -10.127   2.806  62.376  1.00  0.00    -0.093 NA 
HETATM    3  C   UNL     1      -9.961   4.097  63.076  1.00  0.00    -0.102 C  
HETATM    4  C   UNL     1      -9.724   3.987  64.600  1.00  0.00    -0.185 C  
HETATM    5  N   UNL     1      -8.632   3.074  64.988  1.00  0.00    -0.098 NA 
HETATM    6  C   UNL     1      -9.080   1.854  62.798  1.00  0.00    -0.087 C  
HETATM    7  C   UNL     1      -8.859   1.766  64.331  1.00  0.00    -0.102 C  
ENDROOT
BRANCH   5   8
HETATM    8  C   UNL     1      -7.298   3.568  64.625  1.00  0.00    -0.071 C  
BRANCH   8   9
HETATM    9  C   UNL     1      -6.846   4.782  65.402  1.00  0.00    -0.061 A  
HETATM   10  C   UNL     1      -6.635   4.612  66.779  1.00  0.00    -0.050 A  
HETATM   11  C   UNL     1      -6.328   5.689  67.602  1.00  0.00    -0.042 A  
HETATM   12  C   UNL     1      -6.230   6.973  67.079  1.00  0.00    -0.041 A  
HETATM   13  C   UNL     1      -6.357   7.142  65.693  1.00  0.00    -0.040 A  
HETATM   14  F   UNL     1      -5.673   6.831  62.805  1.00  0.00    -0.031 F  
HETATM   15  C   UNL     1      -6.672   6.059  64.834  1.00  0.00    -0.043 A  
HETATM   16  F   UNL     1      -7.259   5.364  62.555  1.00  0.00    -0.040 F  
HETATM   17  C   UNL     1      -6.832   6.371  63.359  1.00  0.00    -0.045 C  
HETATM   18  F   UNL     1      -7.742   7.375  63.166  1.00  0.00    -0.099 F  
BRANCH  12  19
HETATM   19  N   UNL     1      -6.053   8.123  67.884  1.00  0.00    -0.046 N  
HETATM   20  O   UNL     1      -7.907   7.958  69.296  1.00  0.00    -0.110 OA 
HETATM   21  C   UNL     1      -6.907   8.540  68.894  1.00  0.00    -0.061 C  
HETATM   22  H   UNL     1      -5.226   8.693  67.707  1.00  0.00     0.000 HD 
BRANCH  21  23
HETATM   23  C   UNL     1      -6.599   9.852  69.517  1.00  0.00    -0.051 A  
HETATM   24  C   UNL     1      -7.221  10.989  68.980  1.00  0.00    -0.111 A  
HETATM   25  C   UNL     1      -6.999  12.252  69.533  1.00  0.00     0.140 A  
HETATM   26  C   UNL     1      -5.762   9.977  70.627  1.00  0.00    -0.080 A  
HETATM   27  C   UNL     1      -6.143  12.387  70.639  1.00  0.00     0.187 A  
HETATM   28  C   UNL     1      -5.538  11.237  71.181  1.00  0.00     0.040 A  
HETATM   29  C   UNL     1      -5.849  13.707  71.297  1.00  0.00    -0.111 C  
BRANCH  25  30
HETATM   30  C   UNL     1      -7.641  13.382  68.922  1.00  0.00     0.018 C  
HETATM   31  C   UNL     1      -8.215  14.298  68.397  1.00  0.00    -0.144 C  
BRANCH  31  32
HETATM   32  C   UNL     1      -8.954  15.296  67.706  1.00  0.00    -0.177 A  
HETATM   33  C   UNL     1      -9.052  16.630  68.032  1.00  0.00    -0.218 A  
HETATM   34  N   UNL     1      -9.846  17.311  67.141  1.00  0.00    -0.261 NA 
HETATM   35  C   UNL     1     -10.229  16.400  66.271  1.00  0.00    -0.330 A  
HETATM   36  C   UNL     1     -11.054  16.513  65.130  1.00  0.00    -0.134 A  
HETATM   37  C   UNL     1     -11.303  15.426  64.391  1.00  0.00    -0.246 A  
HETATM   38  C   UNL     1     -10.683  14.151  64.832  1.00  0.00    -0.428 A  
HETATM   39  N   UNL     1      -9.921  13.986  65.864  1.00  0.00    -0.310 NA 
HETATM   40  N   UNL     1      -9.714  15.144  66.569  1.00  0.00    -0.255 NA 
ENDBRANCH  31  32
ENDBRANCH  25  30
ENDBRANCH  21  23
ENDBRANCH  12  19
ENDBRANCH   8   9
ENDBRANCH   5   8
TORSDOF 6
ENDMDL
MODEL       73
REMARK 921   NORMALIZED FREE ENERGY PREDICTED BY IDOCK:   -2.53 KCAL/MOL
REMARK 922        TOTAL FREE ENERGY PREDICTED BY IDOCK:   -4.73 KCAL/MOL
REMARK 923 INTER-LIGAND FREE ENERGY PREDICTED BY IDOCK:   -5.35 KCAL/MOL
REMARK 924 INTRA-LIGAND FREE ENERGY PREDICTED BY IDOCK:    0.62 KCAL/MOL
REMARK 927      BINDING AFFINITY PREDICTED BY RF-SCORE:    0.00 PKD
ROOT
HETATM    1  C   UNL     1     -11.137  20.158  69.362  1.00  0.00     1.788 C  
HETATM    2  N   UNL     1     -11.108  19.230  68.232  1.00  0.00     0.348 NA 
HETATM    3  C   UNL     1     -10.548  19.879  67.028  1.00  0.00    -0.405 C  
HETATM    4  C   UNL     1      -9.010  20.041  67.031  1.00  0.00    -0.350 C  
HETATM    5  N   UNL     1      -8.262  18.801  67.315  1.00  0.00    -0.261 NA 
HETATM    6  C   UNL     1     -10.334  18.019  68.571  1.00  0.00    -0.349 C  
HETATM    7  C   UNL     1      -8.794  18.208  68.564  1.00  0.00    -0.299 C  
ENDROOT
BRANCH   5   8
HETATM    8  C   UNL     1      -8.344  17.807  66.238  1.00  0.00    -0.205 C  
BRANCH   8   9
HETATM    9  C   UNL     1      -8.547  16.386  66.710  1.00  0.00    -0.270 A  
HETATM   10  C   UNL     1      -9.785  15.791  66.419  1.00  0.00    -0.305 A  
HETATM   11  C   UNL     1     -10.114  14.531  66.906  1.00  0.00    -0.257 A  
HETATM   12  C   UNL     1      -9.221  13.827  67.705  1.00  0.00    -0.207 A  
HETATM   13  C   UNL     1      -7.951  14.375  67.932  1.00  0.00    -0.150 A  
HETATM   14  F   UNL     1      -5.227  15.390  67.259  1.00  0.00    -0.053 F  
HETATM   15  C   UNL     1      -7.594  15.659  67.448  1.00  0.00    -0.227 A  
HETATM   16  F   UNL     1      -5.912  17.445  67.448  1.00  0.00    -0.126 F  
HETATM   17  C   UNL     1      -6.209  16.168  67.798  1.00  0.00    -0.137 C  
HETATM   18  F   UNL     1      -5.997  16.123  69.149  1.00  0.00    -0.117 F  
BRANCH  12  19
HETATM   19  N   UNL     1      -9.550  12.604  68.336  1.00  0.00    -0.315 N  
HETATM   20  O   UNL     1      -9.108  11.089  66.613  1.00  0.00    -0.159 OA 
HETATM   21  C   UNL     1      -9.501  11.351  67.743  1.00  0.00    -0.165 C  
HETATM   22  H   UNL     1      -9.849  12.648  69.310  1.00  0.00     0.000 HD 
BRANCH  21  23
HETATM   23  C   UNL     1     -10.025  10.221  68.551  1.00  0.00    -0.177 A  
HETATM   24  C   UNL     1      -9.730   8.920  68.116  1.00  0.00    -0.180 A  
HETATM   25  C   UNL     1     -10.167   7.809  68.842  1.00  0.00    -0.220 A  
HETATM   26  C   UNL     1     -10.747  10.413  69.730  1.00  0.00    -0.325 A  
HETATM   27  C   UNL     1     -10.910   7.996  70.020  1.00  0.00    -0.235 A  
HETATM   28  C   UNL     1     -11.185   9.306  70.456  1.00  0.00    -0.315 A  
HETATM   29  C   UNL     1     -11.418   6.858  70.863  1.00  0.00    -0.368 C  
BRANCH  25  30
HETATM   30  C   UNL     1      -9.859   6.502  68.332  1.00  0.00    -0.137 C  
HETATM   31  C   UNL     1      -9.610   5.391  67.951  1.00  0.00    -0.152 C  
BRANCH  31  32
HETATM   32  C   UNL     1      -9.291   4.046  67.619  1.00  0.00    -0.181 A  
HETATM   33  C   UNL     1      -9.515   2.926  68.388  1.00  0.00    -0.143 A  
HETATM   34  N   UNL     1      -9.088   1.785  67.755  1.00  0.00    -0.140 NA 
HETATM   35  C   UNL     1      -8.607   2.201  66.602  1.00  0.00    -0.111 A  
HETATM   36  C   UNL     1      -8.032   1.478  65.534  1.00  0.00    -0.073 A  
HETATM   37  C   UNL     1      -7.611   2.136  64.448  1.00  0.00    -0.064 A  
HETATM   38  C   UNL     1      -7.780   3.611  64.443  1.00  0.00    -0.081 A  
HETATM   39  N   UNL     1      -8.298   4.327  65.387  1.00  0.00    -0.109 NA 
HETATM   40  N   UNL     1      -8.705   3.581  66.464  1.00  0.00    -0.117 NA 
ENDBRANCH  31  32
ENDBRANCH  25  30
ENDBRANCH  21  23
ENDBRANCH  12  19
ENDBRANCH   8   9
ENDBRANCH   5   8
TORSDOF 6
ENDMDL
MODEL       74
REMARK 921   NORMALIZED FREE ENERGY PREDICTED BY IDOCK:   -2.28 KCAL/MOL
REMARK 922        TOTAL FREE ENERGY PREDICTED BY IDOCK:   -4.39 KCAL/MOL
REMARK 923 INTER-LIGAND FREE ENERGY PREDICTED BY IDOCK:   -4.91 KCAL/MOL
REMARK 924 INTRA-LIGAND FREE ENERGY PREDICTED BY IDOCK:    0.52 KCAL/MOL
REMARK 927      BINDING AFFINITY PREDICTED BY RF-SCORE:    0.00 PKD
ROOT
HETATM    1  C   UNL     1     -11.081  20.160  69.339  1.00  0.00     1.788 C  
HETATM    2  N   UNL     1     -11.029  19.173  68.261  1.00  0.00     0.155 NA 
HETATM    3  C   UNL     1     -10.413  19.747  67.046  1.00  0.00    -0.469 C  
HETATM    4  C   UNL     1      -8.873  19.884  67.098  1.00  0.00    -0.330 C  
HETATM    5  N   UNL     1      -8.159  18.648  67.474  1.00  0.00    -0.247 NA 
HETATM    6  C   UNL     1     -10.290  17.969  68.691  1.00  0.00    -0.319 C  
HETATM    7  C   UNL     1      -8.748  18.131  68.731  1.00  0.00    -0.211 C  
ENDROOT
BRANCH   5   8
HETATM    8  C   UNL     1      -8.222  17.600  66.448  1.00  0.00    -0.263 C  
BRANCH   8   9
HETATM    9  C   UNL     1      -8.476  16.210  66.985  1.00  0.00    -0.238 A  
HETATM   10  C   UNL     1      -9.735  15.648  66.718  1.00  0.00    -0.255 A  
HETATM   11  C   UNL     1     -10.110  14.424  67.262  1.00  0.00    -0.251 A  
HETATM   12  C   UNL     1      -9.244  13.726  68.097  1.00  0.00    -0.199 A  
HETATM   13  C   UNL     1      -7.956  14.239  68.302  1.00  0.00    -0.140 A  
HETATM   14  F   UNL     1      -5.196  15.123  67.592  1.00  0.00    -0.123 F  
HETATM   15  C   UNL     1      -7.552  15.485  67.761  1.00  0.00    -0.162 A  
HETATM   16  F   UNL     1      -5.807  17.208  67.683  1.00  0.00    -0.113 F  
HETATM   17  C   UNL     1      -6.150  15.960  68.091  1.00  0.00    -0.122 C  
HETATM   18  F   UNL     1      -5.942  15.971  69.444  1.00  0.00    -0.115 F  
BRANCH  12  19
HETATM   19  N   UNL     1      -9.618  12.548  68.783  1.00  0.00    -0.410 N  
HETATM   20  O   UNL     1      -9.184  10.933  67.151  1.00  0.00    -0.148 OA 
HETATM   21  C   UNL     1      -9.592  11.264  68.257  1.00  0.00    -0.193 C  
HETATM   22  H   UNL     1      -9.935  12.650  69.747  1.00  0.00     0.000 HD 
BRANCH  21  23
HETATM   23  C   UNL     1     -10.161  10.191  69.111  1.00  0.00    -0.229 A  
HETATM   24  C   UNL     1      -9.577   8.919  69.032  1.00  0.00    -0.158 A  
HETATM   25  C   UNL     1     -10.044   7.869  69.827  1.00  0.00    -0.199 A  
HETATM   26  C   UNL     1     -11.209  10.422  70.005  1.00  0.00    -0.385 A  
HETATM   27  C   UNL     1     -11.111   8.089  70.715  1.00  0.00    -0.269 A  
HETATM   28  C   UNL     1     -11.678   9.375  70.799  1.00  0.00    -0.349 A  
HETATM   29  C   UNL     1     -11.675   7.017  71.607  1.00  0.00    -0.332 C  
BRANCH  25  30
HETATM   30  C   UNL     1      -9.425   6.581  69.682  1.00  0.00    -0.149 C  
HETATM   31  C   UNL     1      -8.873   5.518  69.593  1.00  0.00    -0.120 C  
BRANCH  31  32
HETATM   32  C   UNL     1      -8.116   4.316  69.530  1.00  0.00    -0.059 A  
HETATM   33  C   UNL     1      -7.837   3.570  68.407  1.00  0.00    -0.063 A  
HETATM   34  N   UNL     1      -7.073   2.470  68.709  1.00  0.00    -0.044 NA 
HETATM   35  C   UNL     1      -6.881   2.543  70.010  1.00  0.00    -0.033 A  
HETATM   36  C   UNL     1      -6.167   1.689  70.880  1.00  0.00    -0.019 A  
HETATM   37  C   UNL     1      -6.114   1.979  72.185  1.00  0.00    -0.013 A  
HETATM   38  C   UNL     1      -6.825   3.201  72.636  1.00  0.00    -0.027 A  
HETATM   39  N   UNL     1      -7.492   4.020  71.889  1.00  0.00    -0.059 NA 
HETATM   40  N   UNL     1      -7.500   3.655  70.567  1.00  0.00    -0.041 NA 
ENDBRANCH  31  32
ENDBRANCH  25  30
ENDBRANCH  21  23
ENDBRANCH  12  19
ENDBRANCH   8   9
ENDBRANCH   5   8
TORSDOF 6
ENDMDL
MODEL       75
REMARK 921   NORMALIZED FREE ENERGY PREDICTED BY IDOCK:   -2.24 KCAL/MOL
REMARK 922        TOTAL FREE ENERGY PREDICTED BY IDOCK:   -4.34 KCAL/MOL
REMARK 923 INTER-LIGAND FREE ENERGY PREDICTED BY IDOCK:   -5.65 KCAL/MOL
REMARK 924 INTRA-LIGAND FREE ENERGY PREDICTED BY IDOCK:    1.31 KCAL/MOL
REMARK 927      BINDING AFFINITY PREDICTED BY RF-SCORE:    0.00 PKD
ROOT
HETATM    1  C   UNL     1      -7.777   2.688  71.183  1.00  0.00    -0.043 C  
HETATM    2  N   UNL     1      -6.932   3.437  70.253  1.00  0.00    -0.034 NA 
HETATM    3  C   UNL     1      -5.845   2.587  69.723  1.00  0.00    -0.022 C  
HETATM    4  C   UNL     1      -6.279   1.578  68.634  1.00  0.00    -0.025 C  
HETATM    5  N   UNL     1      -7.032   2.171  67.512  1.00  0.00    -0.039 NA 
HETATM    6  C   UNL     1      -7.738   3.990  69.147  1.00  0.00    -0.053 C  
HETATM    7  C   UNL     1      -8.157   2.959  68.067  1.00  0.00    -0.069 C  
ENDROOT
BRANCH   5   8
HETATM    8  C   UNL     1      -6.217   3.038  66.652  1.00  0.00    -0.025 C  
BRANCH   8   9
HETATM    9  C   UNL     1      -6.765   4.435  66.469  1.00  0.00    -0.050 A  
HETATM   10  C   UNL     1      -6.215   5.442  67.278  1.00  0.00    -0.031 A  
HETATM   11  C   UNL     1      -6.726   6.735  67.269  1.00  0.00    -0.067 A  
HETATM   12  C   UNL     1      -7.807   7.063  66.458  1.00  0.00    -0.106 A  
HETATM   13  C   UNL     1      -8.309   6.086  65.587  1.00  0.00    -0.145 A  
HETATM   14  F   UNL     1      -8.294   4.141  63.325  1.00  0.00    -0.084 F  
HETATM   15  C   UNL     1      -7.807   4.761  65.580  1.00  0.00    -0.095 A  
HETATM   16  F   UNL     1      -8.071   2.481  64.712  1.00  0.00    -0.078 F  
HETATM   17  C   UNL     1      -8.462   3.778  64.629  1.00  0.00    -0.097 C  
HETATM   18  F   UNL     1      -9.816   3.742  64.816  1.00  0.00    -0.153 F  
BRANCH  12  19
HETATM   19  N   UNL     1      -8.452   8.321  66.504  1.00  0.00    -0.114 N  
HETATM   20  O   UNL     1      -8.004   8.962  68.706  1.00  0.00    -0.099 OA 
HETATM   21  C   UNL     1      -8.529   9.148  67.615  1.00  0.00    -0.116 C  
HETATM   22  H   UNL     1      -8.899   8.647  65.647  1.00  0.00     0.000 HD 
BRANCH  21  23
HETATM   23  C   UNL     1      -9.376  10.360  67.475  1.00  0.00    -0.163 A  
HETATM   24  C   UNL     1      -8.739  11.608  67.530  1.00  0.00    -0.156 A  
HETATM   25  C   UNL     1      -9.469  12.789  67.379  1.00  0.00    -0.190 A  
HETATM   26  C   UNL     1     -10.752  10.291  67.249  1.00  0.00    -0.323 A  
HETATM   27  C   UNL     1     -10.857  12.727  67.169  1.00  0.00    -0.282 A  
HETATM   28  C   UNL     1     -11.484  11.468  67.099  1.00  0.00    -0.313 A  
HETATM   29  C   UNL     1     -11.720  13.947  66.995  1.00  0.00    -0.426 C  
BRANCH  25  30
HETATM   30  C   UNL     1      -8.766  14.038  67.473  1.00  0.00    -0.201 C  
HETATM   31  C   UNL     1      -8.140  15.061  67.529  1.00  0.00    -0.200 C  
BRANCH  31  32
HETATM   32  C   UNL     1      -7.294  16.203  67.587  1.00  0.00    -0.142 A  
HETATM   33  C   UNL     1      -5.972  16.275  67.209  1.00  0.00    -0.140 A  
HETATM   34  N   UNL     1      -5.463  17.537  67.394  1.00  0.00    -0.130 NA 
HETATM   35  C   UNL     1      -6.468  18.236  67.879  1.00  0.00    -0.195 A  
HETATM   36  C   UNL     1      -6.540  19.595  68.259  1.00  0.00    -0.294 A  
HETATM   37  C   UNL     1      -7.692  20.082  68.732  1.00  0.00    -0.108 A  
HETATM   38  C   UNL     1      -8.838  19.142  68.827  1.00  0.00    -0.334 A  
HETATM   39  N   UNL     1      -8.833  17.892  68.495  1.00  0.00    -0.294 NA 
HETATM   40  N   UNL     1      -7.617  17.468  68.020  1.00  0.00    -0.213 NA 
ENDBRANCH  31  32
ENDBRANCH  25  30
ENDBRANCH  21  23
ENDBRANCH  12  19
ENDBRANCH   8   9
ENDBRANCH   5   8
TORSDOF 6
ENDMDL
MODEL       76
REMARK 921   NORMALIZED FREE ENERGY PREDICTED BY IDOCK:   -2.16 KCAL/MOL
REMARK 922        TOTAL FREE ENERGY PREDICTED BY IDOCK:   -4.23 KCAL/MOL
REMARK 923 INTER-LIGAND FREE ENERGY PREDICTED BY IDOCK:   -4.46 KCAL/MOL
REMARK 924 INTRA-LIGAND FREE ENERGY PREDICTED BY IDOCK:    0.23 KCAL/MOL
REMARK 927      BINDING AFFINITY PREDICTED BY RF-SCORE:    0.00 PKD
ROOT
HETATM    1  C   UNL     1     -11.981  16.091  70.214  1.00  0.00    -0.206 C  
HETATM    2  N   UNL     1     -10.833  15.681  69.406  1.00  0.00    -0.242 NA 
HETATM    3  C   UNL     1     -11.209  14.614  68.454  1.00  0.00    -0.274 C  
HETATM    4  C   UNL     1     -12.005  15.094  67.218  1.00  0.00     0.072 C  
HETATM    5  N   UNL     1     -11.382  16.212  66.482  1.00  0.00     0.224 NA 
HETATM    6  C   UNL     1     -10.265  16.837  68.683  1.00  0.00    -0.298 C  
HETATM    7  C   UNL     1     -11.080  17.296  67.446  1.00  0.00     0.086 C  
ENDROOT
BRANCH   5   8
HETATM    8  C   UNL     1     -10.150  15.836  65.780  1.00  0.00    -0.371 C  
BRANCH   8   9
HETATM    9  C   UNL     1      -9.914  14.347  65.678  1.00  0.00    -0.365 A  
HETATM   10  C   UNL     1      -8.842  13.823  66.417  1.00  0.00     0.098 A  
HETATM   11  C   UNL     1      -8.470  12.488  66.304  1.00  0.00     0.307 A  
HETATM   12  C   UNL     1      -9.152  11.635  65.444  1.00  0.00     0.002 A  
HETATM   13  C   UNL     1     -10.274  12.128  64.764  1.00  0.00    -0.310 A  
HETATM   14  F   UNL     1     -13.010  13.270  64.427  1.00  0.00    -0.255 F  
HETATM   15  C   UNL     1     -10.670  13.485  64.861  1.00  0.00    -0.391 A  
HETATM   16  F   UNL     1     -12.174  15.238  64.032  1.00  0.00    -0.466 F  
HETATM   17  C   UNL     1     -11.871  13.915  64.042  1.00  0.00    -0.337 C  
HETATM   18  F   UNL     1     -11.707  13.589  62.723  1.00  0.00    -0.101 F  
BRANCH  12  19
HETATM   19  N   UNL     1      -8.738  10.306  65.188  1.00  0.00    -0.166 N  
HETATM   20  O   UNL     1      -7.107  10.662  63.554  1.00  0.00     0.018 OA 
HETATM   21  C   UNL     1      -7.786   9.923  64.255  1.00  0.00    -0.139 C  
HETATM   22  H   UNL     1      -9.178   9.567  65.737  1.00  0.00     0.000 HD 
BRANCH  21  23
HETATM   23  C   UNL     1      -7.610   8.462  64.057  1.00  0.00    -0.126 A  
HETATM   24  C   UNL     1      -7.619   7.645  65.197  1.00  0.00    -0.095 A  
HETATM   25  C   UNL     1      -7.486   6.259  65.083  1.00  0.00    -0.082 A  
HETATM   26  C   UNL     1      -7.485   7.887  62.791  1.00  0.00    -0.109 A  
HETATM   27  C   UNL     1      -7.342   5.676  63.813  1.00  0.00    -0.058 A  
HETATM   28  C   UNL     1      -7.351   6.503  62.674  1.00  0.00    -0.064 A  
HETATM   29  C   UNL     1      -7.194   4.194  63.598  1.00  0.00    -0.050 C  
BRANCH  25  30
HETATM   30  C   UNL     1      -7.474   5.478  66.288  1.00  0.00    -0.086 C  
HETATM   31  C   UNL     1      -7.422   4.846  67.309  1.00  0.00    -0.083 C  
BRANCH  31  32
HETATM   32  C   UNL     1      -7.236   4.118  68.516  1.00  0.00    -0.055 A  
HETATM   33  C   UNL     1      -6.087   3.485  68.933  1.00  0.00    -0.028 A  
HETATM   34  N   UNL     1      -6.258   2.883  70.156  1.00  0.00    -0.023 NA 
HETATM   35  C   UNL     1      -7.505   3.149  70.488  1.00  0.00    -0.040 A  
HETATM   36  C   UNL     1      -8.242   2.791  71.638  1.00  0.00    -0.063 A  
HETATM   37  C   UNL     1      -9.516   3.186  71.749  1.00  0.00    -0.216 A  
HETATM   38  C   UNL     1     -10.076   3.987  70.631  1.00  0.00     0.052 A  
HETATM   39  N   UNL     1      -9.451   4.345  69.556  1.00  0.00    -0.164 NA 
HETATM   40  N   UNL     1      -8.153   3.903  69.518  1.00  0.00    -0.054 NA 
ENDBRANCH  31  32
ENDBRANCH  25  30
ENDBRANCH  21  23
ENDBRANCH  12  19
ENDBRANCH   8   9
ENDBRANCH   5   8
TORSDOF 6
ENDMDL
MODEL       77
REMARK 921   NORMALIZED FREE ENERGY PREDICTED BY IDOCK:   -1.26 KCAL/MOL
REMARK 922        TOTAL FREE ENERGY PREDICTED BY IDOCK:   -3.02 KCAL/MOL
REMARK 923 INTER-LIGAND FREE ENERGY PREDICTED BY IDOCK:   -7.36 KCAL/MOL
REMARK 924 INTRA-LIGAND FREE ENERGY PREDICTED BY IDOCK:    4.34 KCAL/MOL
REMARK 927      BINDING AFFINITY PREDICTED BY RF-SCORE:    0.00 PKD
ROOT
HETATM    1  C   UNL     1      -5.194  16.558  68.148  1.00  0.00    -0.109 C  
HETATM    2  N   UNL     1      -6.581  16.776  68.558  1.00  0.00    -0.155 NA 
HETATM    3  C   UNL     1      -6.810  18.189  68.923  1.00  0.00    -0.258 C  
HETATM    4  C   UNL     1      -6.933  19.160  67.725  1.00  0.00    -0.226 C  
HETATM    5  N   UNL     1      -7.915  18.750  66.701  1.00  0.00    -0.257 NA 
HETATM    6  C   UNL     1      -7.512  16.363  67.489  1.00  0.00    -0.141 C  
HETATM    7  C   UNL     1      -7.620  17.355  66.301  1.00  0.00    -0.313 C  
ENDROOT
BRANCH   5   8
HETATM    8  C   UNL     1      -9.307  18.835  67.158  1.00  0.00    -0.297 C  
BRANCH   8   9
HETATM    9  C   UNL     1      -9.890  17.528  67.641  1.00  0.00    -0.291 A  
HETATM   10  C   UNL     1     -10.079  17.391  69.026  1.00  0.00    -0.295 A  
HETATM   11  C   UNL     1     -10.501  16.189  69.583  1.00  0.00    -0.291 A  
HETATM   12  C   UNL     1     -10.742  15.082  68.776  1.00  0.00    -0.241 A  
HETATM   13  C   UNL     1     -10.636  15.232  67.387  1.00  0.00    -0.282 A  
HETATM   14  F   UNL     1     -11.285  16.284  64.671  1.00  0.00    -0.447 F  
HETATM   15  C   UNL     1     -10.204  16.446  66.797  1.00  0.00    -0.285 A  
HETATM   16  F   UNL     1      -9.547  17.590  64.728  1.00  0.00     1.419 F  
HETATM   17  C   UNL     1     -10.081  16.474  65.285  1.00  0.00     0.090 C  
HETATM   18  F   UNL     1      -9.289  15.453  64.838  1.00  0.00     0.001 F  
BRANCH  12  19
HETATM   19  N   UNL     1     -11.043  13.802  69.296  1.00  0.00    -0.358 N  
HETATM   20  O   UNL     1     -13.039  14.246  70.426  1.00  0.00    -0.247 OA 
HETATM   21  C   UNL     1     -12.133  13.491  70.095  1.00  0.00    -0.354 C  
HETATM   22  H   UNL     1     -10.404  13.042  69.062  1.00  0.00     0.000 HD 
BRANCH  21  23
HETATM   23  C   UNL     1     -12.176  12.111  70.642  1.00  0.00    -0.392 A  
HETATM   24  C   UNL     1     -11.394  11.135  70.007  1.00  0.00    -0.326 A  
HETATM   25  C   UNL     1     -11.365   9.822  70.484  1.00  0.00    -0.382 A  
HETATM   26  C   UNL     1     -12.922  11.776  71.774  1.00  0.00    -0.466 A  
HETATM   27  C   UNL     1     -12.127   9.475  71.612  1.00  0.00    -0.474 A  
HETATM   28  C   UNL     1     -12.895  10.466  72.252  1.00  0.00    -0.151 A  
HETATM   29  C   UNL     1     -12.154   8.087  72.194  1.00  0.00    -0.391 C  
BRANCH  25  30
HETATM   30  C   UNL     1     -10.567   8.861  69.776  1.00  0.00    -0.230 C  
HETATM   31  C   UNL     1      -9.932   8.059  69.146  1.00  0.00    -0.188 C  
BRANCH  31  32
HETATM   32  C   UNL     1      -9.285   7.087  68.335  1.00  0.00    -0.129 A  
HETATM   33  C   UNL     1      -8.901   5.819  68.710  1.00  0.00    -0.110 A  
HETATM   34  N   UNL     1      -8.307   5.144  67.671  1.00  0.00    -0.106 NA 
HETATM   35  C   UNL     1      -8.330   5.993  66.664  1.00  0.00    -0.111 A  
HETATM   36  C   UNL     1      -7.863   5.854  65.339  1.00  0.00    -0.102 A  
HETATM   37  C   UNL     1      -8.001   6.874  64.485  1.00  0.00    -0.106 A  
HETATM   38  C   UNL     1      -8.649   8.107  65.002  1.00  0.00    -0.050 A  
HETATM   39  N   UNL     1      -9.097   8.292  66.201  1.00  0.00    -0.183 NA 
HETATM   40  N   UNL     1      -8.918   7.202  67.015  1.00  0.00    -0.126 NA 
ENDBRANCH  31  32
ENDBRANCH  25  30
ENDBRANCH  21  23
ENDBRANCH  12  19
ENDBRANCH   8   9
ENDBRANCH   5   8
TORSDOF 6
ENDMDL
MODEL       78
REMARK 921   NORMALIZED FREE ENERGY PREDICTED BY IDOCK:   -1.24 KCAL/MOL
REMARK 922        TOTAL FREE ENERGY PREDICTED BY IDOCK:   -2.98 KCAL/MOL
REMARK 923 INTER-LIGAND FREE ENERGY PREDICTED BY IDOCK:   -5.24 KCAL/MOL
REMARK 924 INTRA-LIGAND FREE ENERGY PREDICTED BY IDOCK:    2.26 KCAL/MOL
REMARK 927      BINDING AFFINITY PREDICTED BY RF-SCORE:    0.00 PKD
ROOT
HETATM    1  C   UNL     1      -5.125   2.682  66.839  1.00  0.00    -0.005 C  
HETATM    2  N   UNL     1      -6.020   2.991  67.954  1.00  0.00    -0.026 NA 
HETATM    3  C   UNL     1      -6.862   4.167  67.648  1.00  0.00    -0.051 C  
HETATM    4  C   UNL     1      -8.037   3.893  66.680  1.00  0.00    -0.097 C  
HETATM    5  N   UNL     1      -8.899   2.759  67.066  1.00  0.00    -0.130 NA 
HETATM    6  C   UNL     1      -6.866   1.825  68.281  1.00  0.00    -0.032 C  
HETATM    7  C   UNL     1      -8.039   1.575  67.298  1.00  0.00    -0.066 C  
ENDROOT
BRANCH   5   8
HETATM    8  C   UNL     1      -9.700   3.014  68.269  1.00  0.00     0.097 C  
BRANCH   8   9
HETATM    9  C   UNL     1      -9.969   4.475  68.546  1.00  0.00    -0.105 A  
HETATM   10  C   UNL     1      -9.741   4.925  69.856  1.00  0.00    -0.276 A  
HETATM   11  C   UNL     1     -10.066   6.221  70.242  1.00  0.00    -0.226 A  
HETATM   12  C   UNL     1     -10.635   7.107  69.335  1.00  0.00    -0.233 A  
HETATM   13  C   UNL     1     -10.791   6.694  68.005  1.00  0.00    -0.345 A  
HETATM   14  F   UNL     1      -9.961   5.779  65.288  1.00  0.00     0.181 F  
HETATM   15  C   UNL     1     -10.470   5.377  67.588  1.00  0.00    -0.217 A  
HETATM   16  F   UNL     1     -10.542   3.738  65.764  1.00  0.00     0.001 F  
HETATM   17  C   UNL     1     -10.726   5.031  66.134  1.00  0.00    -0.203 C  
HETATM   18  F   UNL     1     -12.019   5.309  65.784  1.00  0.00     0.509 F  
BRANCH  12  19
HETATM   19  N   UNL     1     -11.107   8.389  69.702  1.00  0.00    -0.439 N  
HETATM   20  O   UNL     1     -11.214   8.167  72.026  1.00  0.00    -0.269 OA 
HETATM   21  C   UNL     1     -11.387   8.806  70.995  1.00  0.00    -0.278 C  
HETATM   22  H   UNL     1     -11.254   9.064  68.952  1.00  0.00     0.000 HD 
BRANCH  21  23
HETATM   23  C   UNL     1     -12.005  10.149  71.134  1.00  0.00    -0.480 A  
HETATM   24  C   UNL     1     -11.418  11.211  70.431  1.00  0.00    -0.265 A  
HETATM   25  C   UNL     1     -11.963  12.496  70.494  1.00  0.00    -0.277 A  
HETATM   26  C   UNL     1     -13.157  10.369  71.892  1.00  0.00    -0.563 A  
HETATM   27  C   UNL     1     -13.111  12.727  71.269  1.00  0.00    -0.245 A  
HETATM   28  C   UNL     1     -13.703  11.651  71.957  1.00  0.00     0.039 A  
HETATM   29  C   UNL     1     -13.764  14.078  71.392  1.00  0.00    -0.293 C  
BRANCH  25  30
HETATM   30  C   UNL     1     -11.301  13.549  69.775  1.00  0.00    -0.161 C  
HETATM   31  C   UNL     1     -10.791  14.442  69.156  1.00  0.00    -0.275 C  
BRANCH  31  32
HETATM   32  C   UNL     1     -10.287  15.497  68.347  1.00  0.00    -0.230 A  
HETATM   33  C   UNL     1      -9.287  16.386  68.672  1.00  0.00    -0.233 A  
HETATM   34  N   UNL     1      -9.048  17.273  67.650  1.00  0.00    -0.227 NA 
HETATM   35  C   UNL     1      -9.894  16.926  66.702  1.00  0.00    -0.287 A  
HETATM   36  C   UNL     1     -10.106  17.475  65.418  1.00  0.00     0.341 A  
HETATM   37  C   UNL     1     -11.039  16.941  64.623  1.00  0.00     0.200 A  
HETATM   38  C   UNL     1     -11.804  15.786  65.157  1.00  0.00     0.324 A  
HETATM   39  N   UNL     1     -11.654  15.240  66.320  1.00  0.00    -0.089 NA 
HETATM   40  N   UNL     1     -10.681  15.843  67.075  1.00  0.00    -0.313 NA 
ENDBRANCH  31  32
ENDBRANCH  25  30
ENDBRANCH  21  23
ENDBRANCH  12  19
ENDBRANCH   8   9
ENDBRANCH   5   8
TORSDOF 6
ENDMDL
MODEL       79
REMARK 921   NORMALIZED FREE ENERGY PREDICTED BY IDOCK:   -1.20 KCAL/MOL
REMARK 922        TOTAL FREE ENERGY PREDICTED BY IDOCK:   -2.93 KCAL/MOL
REMARK 923 INTER-LIGAND FREE ENERGY PREDICTED BY IDOCK:   -3.70 KCAL/MOL
REMARK 924 INTRA-LIGAND FREE ENERGY PREDICTED BY IDOCK:    0.77 KCAL/MOL
REMARK 927      BINDING AFFINITY PREDICTED BY RF-SCORE:    0.00 PKD
ROOT
HETATM    1  C   UNL     1     -10.484   2.883  70.816  1.00  0.00     1.413 C  
HETATM    2  N   UNL     1      -9.291   3.692  70.571  1.00  0.00    -0.145 NA 
HETATM    3  C   UNL     1      -8.323   2.967  69.722  1.00  0.00    -0.051 C  
HETATM    4  C   UNL     1      -8.687   2.913  68.220  1.00  0.00    -0.104 C  
HETATM    5  N   UNL     1      -8.988   4.224  67.613  1.00  0.00    -0.111 NA 
HETATM    6  C   UNL     1      -9.655   4.982  69.950  1.00  0.00    -0.176 C  
HETATM    7  C   UNL     1     -10.011   4.901  68.442  1.00  0.00    -0.115 C  
ENDROOT
BRANCH   5   8
HETATM    8  C   UNL     1      -7.814   5.097  67.492  1.00  0.00    -0.096 C  
BRANCH   8   9
HETATM    9  C   UNL     1      -8.131   6.528  67.125  1.00  0.00    -0.113 A  
HETATM   10  C   UNL     1      -9.159   7.156  67.848  1.00  0.00    -0.128 A  
HETATM   11  C   UNL     1      -9.604   8.429  67.513  1.00  0.00    -0.194 A  
HETATM   12  C   UNL     1      -9.044   9.116  66.442  1.00  0.00    -0.170 A  
HETATM   13  C   UNL     1      -7.963   8.533  65.767  1.00  0.00    -0.107 A  
HETATM   14  F   UNL     1      -5.214   7.433  65.397  1.00  0.00    -0.026 F  
HETATM   15  C   UNL     1      -7.493   7.234  66.088  1.00  0.00    -0.083 A  
HETATM   16  F   UNL     1      -5.983   5.400  65.475  1.00  0.00    -0.022 F  
HETATM   17  C   UNL     1      -6.349   6.689  65.256  1.00  0.00    -0.042 C  
HETATM   18  F   UNL     1      -6.644   6.741  63.921  1.00  0.00    -0.041 F  
BRANCH  12  19
HETATM   19  N   UNL     1      -9.544  10.353  65.973  1.00  0.00    -0.190 N  
HETATM   20  O   UNL     1      -8.051  11.840  66.984  1.00  0.00    -0.158 OA 
HETATM   21  C   UNL     1      -9.039  11.603  66.299  1.00  0.00    -0.214 C  
HETATM   22  H   UNL     1     -10.344  10.324  65.342  1.00  0.00     0.000 HD 
BRANCH  21  23
HETATM   23  C   UNL     1      -9.807  12.773  65.804  1.00  0.00    -0.222 A  
HETATM   24  C   UNL     1      -9.254  14.046  66.003  1.00  0.00     0.026 A  
HETATM   25  C   UNL     1      -9.908  15.190  65.538  1.00  0.00    -0.356 A  
HETATM   26  C   UNL     1     -11.016  12.640  65.118  1.00  0.00    -0.324 A  
HETATM   27  C   UNL     1     -11.134  15.064  64.864  1.00  0.00    -0.425 A  
HETATM   28  C   UNL     1     -11.673  13.780  64.654  1.00  0.00    -0.417 A  
HETATM   29  C   UNL     1     -11.906  16.240  64.330  1.00  0.00     0.249 C  
BRANCH  25  30
HETATM   30  C   UNL     1      -9.306  16.468  65.797  1.00  0.00    -0.110 C  
HETATM   31  C   UNL     1      -8.776  17.531  65.973  1.00  0.00    -0.069 C  
BRANCH  31  32
HETATM   32  C   UNL     1      -8.055  18.748  66.110  1.00  0.00    -0.199 A  
HETATM   33  C   UNL     1      -7.726  19.634  65.108  1.00  0.00     0.648 A  
HETATM   34  N   UNL     1      -7.029  20.713  65.597  1.00  0.00    -0.156 NA 
HETATM   35  C   UNL     1      -6.933  20.490  66.891  1.00  0.00    -0.287 A  
HETATM   36  C   UNL     1      -6.325  21.257  67.910  1.00  0.00    -0.283 A  
HETATM   37  C   UNL     1      -6.360  20.815  69.172  1.00  0.00    -0.058 A  
HETATM   38  C   UNL     1      -7.047  19.523  69.418  1.00  0.00    -0.294 A  
HETATM   39  N   UNL     1      -7.622  18.778  68.530  1.00  0.00    -0.317 NA 
HETATM   40  N   UNL     1      -7.544  19.298  67.263  1.00  0.00    -0.231 NA 
ENDBRANCH  31  32
ENDBRANCH  25  30
ENDBRANCH  21  23
ENDBRANCH  12  19
ENDBRANCH   8   9
ENDBRANCH   5   8
TORSDOF 6
ENDMDL
MODEL       80
REMARK 921   NORMALIZED FREE ENERGY PREDICTED BY IDOCK:   -0.84 KCAL/MOL
REMARK 922        TOTAL FREE ENERGY PREDICTED BY IDOCK:   -2.44 KCAL/MOL
REMARK 923 INTER-LIGAND FREE ENERGY PREDICTED BY IDOCK:   -4.92 KCAL/MOL
REMARK 924 INTRA-LIGAND FREE ENERGY PREDICTED BY IDOCK:    2.48 KCAL/MOL
REMARK 927      BINDING AFFINITY PREDICTED BY RF-SCORE:    0.00 PKD
ROOT
HETATM    1  C   UNL     1      -9.759   4.305  69.593  1.00  0.00    -0.214 C  
HETATM    2  N   UNL     1      -8.452   4.750  69.110  1.00  0.00    -0.080 NA 
HETATM    3  C   UNL     1      -7.627   3.601  68.680  1.00  0.00    -0.053 C  
HETATM    4  C   UNL     1      -8.014   2.999  67.309  1.00  0.00    -0.077 C  
HETATM    5  N   UNL     1      -8.102   3.981  66.210  1.00  0.00    -0.098 NA 
HETATM    6  C   UNL     1      -8.606   5.715  68.004  1.00  0.00    -0.101 C  
HETATM    7  C   UNL     1      -8.990   5.086  66.639  1.00  0.00    -0.114 C  
ENDROOT
BRANCH   5   8
HETATM    8  C   UNL     1      -6.802   4.535  65.814  1.00  0.00    -0.058 C  
BRANCH   8   9
HETATM    9  C   UNL     1      -6.546   5.944  66.298  1.00  0.00    -0.055 A  
HETATM   10  C   UNL     1      -5.876   6.081  67.524  1.00  0.00    -0.017 A  
HETATM   11  C   UNL     1      -5.693   7.327  68.112  1.00  0.00    -0.023 A  
HETATM   12  C   UNL     1      -6.180   8.477  67.499  1.00  0.00    -0.053 A  
HETATM   13  C   UNL     1      -6.776   8.359  66.237  1.00  0.00    -0.065 A  
HETATM   14  F   UNL     1      -6.959   7.754  63.321  1.00  0.00    -0.066 F  
HETATM   15  C   UNL     1      -6.977   7.099  65.619  1.00  0.00    -0.060 A  
HETATM   16  F   UNL     1      -7.985   5.883  63.741  1.00  0.00    -0.098 F  
HETATM   17  C   UNL     1      -7.677   7.093  64.274  1.00  0.00    -0.117 C  
HETATM   18  F   UNL     1      -8.873   7.754  64.340  1.00  0.00     0.080 F  
BRANCH  12  19
HETATM   19  N   UNL     1      -6.141   9.751  68.111  1.00  0.00    -0.050 N  
HETATM   20  O   UNL     1      -5.283  11.048  66.368  1.00  0.00    -0.078 OA 
HETATM   21  C   UNL     1      -5.673  10.916  67.521  1.00  0.00    -0.044 C  
HETATM   22  H   UNL     1      -6.487   9.820  69.068  1.00  0.00     0.000 HD 
BRANCH  21  23
HETATM   23  C   UNL     1      -5.596  12.113  68.397  1.00  0.00    -0.054 A  
HETATM   24  C   UNL     1      -6.012  13.340  67.860  1.00  0.00    -0.138 A  
HETATM   25  C   UNL     1      -5.992  14.502  68.635  1.00  0.00    -0.089 A  
HETATM   26  C   UNL     1      -5.175  12.042  69.726  1.00  0.00    -0.076 A  
HETATM   27  C   UNL     1      -5.552  14.441  69.968  1.00  0.00    -0.112 A  
HETATM   28  C   UNL     1      -5.153  13.201  70.503  1.00  0.00    -0.109 A  
HETATM   29  C   UNL     1      -5.499  15.641  70.874  1.00  0.00    -0.054 C  
BRANCH  25  30
HETATM   30  C   UNL     1      -6.402  15.734  68.021  1.00  0.00    -0.142 C  
HETATM   31  C   UNL     1      -6.748  16.784  67.553  1.00  0.00    -0.173 C  
BRANCH  31  32
HETATM   32  C   UNL     1      -7.208  18.054  67.110  1.00  0.00    -0.194 A  
HETATM   33  C   UNL     1      -6.476  19.218  67.026  1.00  0.00    -0.190 A  
HETATM   34  N   UNL     1      -7.236  20.258  66.549  1.00  0.00    -0.264 NA 
HETATM   35  C   UNL     1      -8.426  19.735  66.338  1.00  0.00    -0.359 A  
HETATM   36  C   UNL     1      -9.612  20.325  65.848  1.00  0.00    -0.228 A  
HETATM   37  C   UNL     1     -10.712  19.575  65.720  1.00  0.00    -0.490 A  
HETATM   38  C   UNL     1     -10.607  18.146  66.111  1.00  0.00    -0.274 A  
HETATM   39  N   UNL     1      -9.551  17.551  66.564  1.00  0.00    -0.275 NA 
HETATM   40  N   UNL     1      -8.467  18.385  66.666  1.00  0.00    -0.262 NA 
ENDBRANCH  31  32
ENDBRANCH  25  30
ENDBRANCH  21  23
ENDBRANCH  12  19
ENDBRANCH   8   9
ENDBRANCH   5   8
TORSDOF 6
ENDMDL
MODEL       81
REMARK 921   NORMALIZED FREE ENERGY PREDICTED BY IDOCK:   -0.67 KCAL/MOL
REMARK 922        TOTAL FREE ENERGY PREDICTED BY IDOCK:   -2.22 KCAL/MOL
REMARK 923 INTER-LIGAND FREE ENERGY PREDICTED BY IDOCK:   -2.64 KCAL/MOL
REMARK 924 INTRA-LIGAND FREE ENERGY PREDICTED BY IDOCK:    0.42 KCAL/MOL
REMARK 927      BINDING AFFINITY PREDICTED BY RF-SCORE:    0.00 PKD
ROOT
HETATM    1  C   UNL     1     -11.334  16.797  64.176  1.00  0.00     0.877 C  
HETATM    2  N   UNL     1     -10.182  16.500  65.026  1.00  0.00    -0.476 NA 
HETATM    3  C   UNL     1      -9.996  17.546  66.053  1.00  0.00    -0.218 C  
HETATM    4  C   UNL     1     -10.986  17.477  67.239  1.00  0.00    -0.013 C  
HETATM    5  N   UNL     1     -11.070  16.156  67.893  1.00  0.00    -0.325 NA 
HETATM    6  C   UNL     1     -10.331  15.176  65.662  1.00  0.00    -0.357 C  
HETATM    7  C   UNL     1     -11.326  15.134  66.852  1.00  0.00    -0.264 C  
ENDROOT
BRANCH   5   8
HETATM    8  C   UNL     1      -9.857  15.792  68.636  1.00  0.00    -0.210 C  
BRANCH   8   9
HETATM    9  C   UNL     1      -9.798  14.345  69.070  1.00  0.00    -0.106 A  
HETATM   10  C   UNL     1      -8.663  13.613  68.685  1.00  0.00    -0.027 A  
HETATM   11  C   UNL     1      -8.564  12.249  68.935  1.00  0.00     0.252 A  
HETATM   12  C   UNL     1      -9.597  11.570  69.571  1.00  0.00     0.741 A  
HETATM   13  C   UNL     1     -10.696  12.306  70.032  1.00  0.00     1.000 A  
HETATM   14  F   UNL     1     -12.174  14.330  71.652  1.00  0.00    -0.379 F  
HETATM   15  C   UNL     1     -10.822  13.697  69.786  1.00  0.00     0.215 A  
HETATM   16  F   UNL     1     -12.261  15.677  69.947  1.00  0.00    -0.336 F  
HETATM   17  C   UNL     1     -12.079  14.377  70.292  1.00  0.00    -0.331 C  
HETATM   18  F   UNL     1     -13.200  13.739  69.834  1.00  0.00    -0.011 F  
BRANCH  12  19
HETATM   19  N   UNL     1      -9.610  10.165  69.732  1.00  0.00    -0.348 N  
HETATM   20  O   UNL     1      -7.364   9.657  69.338  1.00  0.00    -0.070 OA 
HETATM   21  C   UNL     1      -8.519   9.324  69.575  1.00  0.00    -0.144 C  
HETATM   22  H   UNL     1     -10.499   9.733  69.987  1.00  0.00     0.000 HD 
BRANCH  21  23
HETATM   23  C   UNL     1      -8.793   7.867  69.657  1.00  0.00    -0.138 A  
HETATM   24  C   UNL     1      -8.437   7.075  68.555  1.00  0.00    -0.121 A  
HETATM   25  C   UNL     1      -8.641   5.693  68.573  1.00  0.00    -0.107 A  
HETATM   26  C   UNL     1      -9.341   7.270  70.793  1.00  0.00    -0.160 A  
HETATM   27  C   UNL     1      -9.209   5.089  69.707  1.00  0.00    -0.168 A  
HETATM   28  C   UNL     1      -9.547   5.890  70.815  1.00  0.00    -0.203 A  
HETATM   29  C   UNL     1      -9.462   3.609  69.813  1.00  0.00    -0.254 C  
BRANCH  25  30
HETATM   30  C   UNL     1      -8.282   4.939  67.404  1.00  0.00    -0.106 C  
HETATM   31  C   UNL     1      -8.027   4.288  66.428  1.00  0.00    -0.098 C  
BRANCH  31  32
HETATM   32  C   UNL     1      -7.814   3.436  65.310  1.00  0.00    -0.082 A  
HETATM   33  C   UNL     1      -6.611   2.928  64.872  1.00  0.00    -0.039 A  
HETATM   34  N   UNL     1      -6.773   2.133  63.764  1.00  0.00    -0.029 NA 
HETATM   35  C   UNL     1      -8.067   2.151  63.525  1.00  0.00    -0.073 A  
HETATM   36  C   UNL     1      -8.821   1.513  62.515  1.00  0.00    -0.068 A  
HETATM   37  C   UNL     1     -10.147   1.686  62.480  1.00  0.00    -0.095 A  
HETATM   38  C   UNL     1     -10.745   2.554  63.525  1.00  0.00    -0.181 A  
HETATM   39  N   UNL     1     -10.109   3.161  64.474  1.00  0.00    -0.090 NA 
HETATM   40  N   UNL     1      -8.756   2.936  64.442  1.00  0.00    -0.095 NA 
ENDBRANCH  31  32
ENDBRANCH  25  30
ENDBRANCH  21  23
ENDBRANCH  12  19
ENDBRANCH   8   9
ENDBRANCH   5   8
TORSDOF 6
ENDMDL
MODEL       82
REMARK 921   NORMALIZED FREE ENERGY PREDICTED BY IDOCK:   -0.21 KCAL/MOL
REMARK 922        TOTAL FREE ENERGY PREDICTED BY IDOCK:   -1.60 KCAL/MOL
REMARK 923 INTER-LIGAND FREE ENERGY PREDICTED BY IDOCK:   -3.80 KCAL/MOL
REMARK 924 INTRA-LIGAND FREE ENERGY PREDICTED BY IDOCK:    2.20 KCAL/MOL
REMARK 927      BINDING AFFINITY PREDICTED BY RF-SCORE:    0.00 PKD
ROOT
HETATM    1  C   UNL     1     -10.281   4.404  71.720  1.00  0.00    -0.131 C  
HETATM    2  N   UNL     1      -9.054   4.707  70.984  1.00  0.00    -0.127 NA 
HETATM    3  C   UNL     1      -8.395   3.469  70.518  1.00  0.00    -0.060 C  
HETATM    4  C   UNL     1      -9.057   2.801  69.290  1.00  0.00    -0.129 C  
HETATM    5  N   UNL     1      -9.274   3.704  68.143  1.00  0.00    -0.154 NA 
HETATM    6  C   UNL     1      -9.338   5.599  69.842  1.00  0.00    -0.147 C  
HETATM    7  C   UNL     1      -9.998   4.905  68.622  1.00  0.00    -0.125 C  
ENDROOT
BRANCH   5   8
HETATM    8  C   UNL     1      -8.032   4.124  67.484  1.00  0.00    -0.091 C  
BRANCH   8   9
HETATM    9  C   UNL     1      -7.637   5.559  67.743  1.00  0.00    -0.088 A  
HETATM   10  C   UNL     1      -6.713   5.787  68.776  1.00  0.00    -0.064 A  
HETATM   11  C   UNL     1      -6.371   7.075  69.169  1.00  0.00    -0.035 A  
HETATM   12  C   UNL     1      -6.946   8.179  68.550  1.00  0.00    -0.072 A  
HETATM   13  C   UNL     1      -7.806   7.964  67.465  1.00  0.00    -0.122 A  
HETATM   14  F   UNL     1      -8.635   7.074  64.740  1.00  0.00    -0.077 F  
HETATM   15  C   UNL     1      -8.171   6.660  67.047  1.00  0.00    -0.113 A  
HETATM   16  F   UNL     1      -9.598   5.312  65.574  1.00  0.00    -0.170 F  
HETATM   17  C   UNL     1      -9.147   6.552  65.892  1.00  0.00    -0.039 C  
HETATM   18  F   UNL     1     -10.281   7.278  66.138  1.00  0.00    -0.143 F  
BRANCH  12  19
HETATM   19  N   UNL     1      -6.739   9.506  68.994  1.00  0.00    -0.050 N  
HETATM   20  O   UNL     1      -5.820  10.472  67.076  1.00  0.00    -0.048 OA 
HETATM   21  C   UNL     1      -6.172  10.528  68.248  1.00  0.00    -0.054 C  
HETATM   22  H   UNL     1      -7.033   9.731  69.945  1.00  0.00     0.000 HD 
BRANCH  21  23
HETATM   23  C   UNL     1      -5.924  11.806  68.963  1.00  0.00    -0.061 A  
HETATM   24  C   UNL     1      -6.377  12.987  68.359  1.00  0.00    -0.082 A  
HETATM   25  C   UNL     1      -6.202  14.223  68.987  1.00  0.00    -0.095 A  
HETATM   26  C   UNL     1      -5.307  11.857  70.214  1.00  0.00    -0.113 A  
HETATM   27  C   UNL     1      -5.566  14.283  70.239  1.00  0.00    -0.123 A  
HETATM   28  C   UNL     1      -5.130  13.089  70.844  1.00  0.00    -0.140 A  
HETATM   29  C   UNL     1      -5.338  15.569  70.986  1.00  0.00    -0.077 C  
BRANCH  25  30
HETATM   30  C   UNL     1      -6.662  15.401  68.307  1.00  0.00    -0.123 C  
HETATM   31  C   UNL     1      -7.005  16.409  67.752  1.00  0.00    -0.157 C  
BRANCH  31  32
HETATM   32  C   UNL     1      -7.335  17.665  67.172  1.00  0.00    -0.189 A  
HETATM   33  C   UNL     1      -8.226  18.595  67.660  1.00  0.00    -0.258 A  
HETATM   34  N   UNL     1      -8.295  19.701  66.849  1.00  0.00    -0.287 NA 
HETATM   35  C   UNL     1      -7.449  19.453  65.871  1.00  0.00    -0.279 A  
HETATM   36  C   UNL     1      -7.096  20.230  64.746  1.00  0.00     0.083 A  
HETATM   37  C   UNL     1      -6.195  19.756  63.878  1.00  0.00    -0.011 A  
HETATM   38  C   UNL     1      -5.620  18.417  64.164  1.00  0.00     0.228 A  
HETATM   39  N   UNL     1      -5.902  17.661  65.175  1.00  0.00     0.186 NA 
HETATM   40  N   UNL     1      -6.832  18.217  66.017  1.00  0.00    -0.258 NA 
ENDBRANCH  31  32
ENDBRANCH  25  30
ENDBRANCH  21  23
ENDBRANCH  12  19
ENDBRANCH   8   9
ENDBRANCH   5   8
TORSDOF 6
ENDMDL
MODEL       83
REMARK 921   NORMALIZED FREE ENERGY PREDICTED BY IDOCK:   -0.12 KCAL/MOL
REMARK 922        TOTAL FREE ENERGY PREDICTED BY IDOCK:   -1.47 KCAL/MOL
REMARK 923 INTER-LIGAND FREE ENERGY PREDICTED BY IDOCK:   -4.77 KCAL/MOL
REMARK 924 INTRA-LIGAND FREE ENERGY PREDICTED BY IDOCK:    3.30 KCAL/MOL
REMARK 927      BINDING AFFINITY PREDICTED BY RF-SCORE:    0.00 PKD
ROOT
HETATM    1  C   UNL     1      -9.812  21.096  67.879  1.00  0.00     0.326 C  
HETATM    2  N   UNL     1     -10.677  20.093  67.260  1.00  0.00    -0.208 NA 
HETATM    3  C   UNL     1     -10.089  19.588  66.001  1.00  0.00    -0.436 C  
HETATM    4  C   UNL     1      -8.926  18.585  66.182  1.00  0.00    -0.108 C  
HETATM    5  N   UNL     1      -9.229  17.448  67.074  1.00  0.00    -0.240 NA 
HETATM    6  C   UNL     1     -10.930  18.976  68.193  1.00  0.00     0.187 C  
HETATM    7  C   UNL     1      -9.751  17.981  68.353  1.00  0.00    -0.344 C  
ENDROOT
BRANCH   5   8
HETATM    8  C   UNL     1     -10.206  16.507  66.512  1.00  0.00    -0.300 C  
BRANCH   8   9
HETATM    9  C   UNL     1      -9.657  15.128  66.227  1.00  0.00    -0.325 A  
HETATM   10  C   UNL     1     -10.362  14.344  65.300  1.00  0.00    -0.427 A  
HETATM   11  C   UNL     1     -10.008  13.023  65.052  1.00  0.00    -0.158 A  
HETATM   12  C   UNL     1      -8.942  12.438  65.728  1.00  0.00     0.290 A  
HETATM   13  C   UNL     1      -8.182  13.236  66.594  1.00  0.00     0.306 A  
HETATM   14  F   UNL     1      -6.373  15.462  67.414  1.00  0.00    -0.165 F  
HETATM   15  C   UNL     1      -8.526  14.585  66.864  1.00  0.00    -0.179 A  
HETATM   16  F   UNL     1      -8.058  16.580  68.213  1.00  0.00    -0.159 F  
HETATM   17  C   UNL     1      -7.657  15.334  67.856  1.00  0.00    -0.139 C  
HETATM   18  F   UNL     1      -7.560  14.651  69.037  1.00  0.00    -0.113 F  
BRANCH  12  19
HETATM   19  N   UNL     1      -8.619  11.066  65.617  1.00  0.00    -0.283 N  
HETATM   20  O   UNL     1     -10.502  10.262  64.490  1.00  0.00    -0.159 OA 
HETATM   21  C   UNL     1      -9.423  10.091  65.046  1.00  0.00    -0.277 C  
HETATM   22  H   UNL     1      -7.718  10.767  65.990  1.00  0.00     0.000 HD 
BRANCH  21  23
HETATM   23  C   UNL     1      -8.944   8.690  65.163  1.00  0.00    -0.111 A  
HETATM   24  C   UNL     1      -9.075   8.061  66.410  1.00  0.00    -0.226 A  
HETATM   25  C   UNL     1      -8.670   6.735  66.586  1.00  0.00    -0.128 A  
HETATM   26  C   UNL     1      -8.422   7.983  64.079  1.00  0.00     0.124 A  
HETATM   27  C   UNL     1      -8.127   6.024  65.503  1.00  0.00    -0.133 A  
HETATM   28  C   UNL     1      -8.017   6.660  64.251  1.00  0.00    -0.092 A  
HETATM   29  C   UNL     1      -7.668   4.595  65.603  1.00  0.00    -0.094 C  
BRANCH  25  30
HETATM   30  C   UNL     1      -8.802   6.154  67.893  1.00  0.00    -0.111 C  
HETATM   31  C   UNL     1      -8.959   5.655  68.974  1.00  0.00    -0.117 C  
BRANCH  31  32
HETATM   32  C   UNL     1      -9.267   5.079  70.237  1.00  0.00    -0.139 A  
HETATM   33  C   UNL     1     -10.093   5.602  71.206  1.00  0.00    -0.206 A  
HETATM   34  N   UNL     1     -10.170   4.776  72.302  1.00  0.00    -0.187 NA 
HETATM   35  C   UNL     1      -9.399   3.751  72.004  1.00  0.00    -0.128 A  
HETATM   36  C   UNL     1      -9.093   2.589  72.745  1.00  0.00    -0.105 A  
HETATM   37  C   UNL     1      -8.269   1.675  72.221  1.00  0.00    -0.049 A  
HETATM   38  C   UNL     1      -7.722   1.953  70.868  1.00  0.00    -0.032 A  
HETATM   39  N   UNL     1      -7.966   2.996  70.142  1.00  0.00    -0.042 NA 
HETATM   40  N   UNL     1      -8.817   3.884  70.748  1.00  0.00    -0.080 NA 
ENDBRANCH  31  32
ENDBRANCH  25  30
ENDBRANCH  21  23
ENDBRANCH  12  19
ENDBRANCH   8   9
ENDBRANCH   5   8
TORSDOF 6
ENDMDL
MODEL       84
REMARK 921   NORMALIZED FREE ENERGY PREDICTED BY IDOCK:   -0.04 KCAL/MOL
REMARK 922        TOTAL FREE ENERGY PREDICTED BY IDOCK:   -1.36 KCAL/MOL
REMARK 923 INTER-LIGAND FREE ENERGY PREDICTED BY IDOCK:   -3.72 KCAL/MOL
REMARK 924 INTRA-LIGAND FREE ENERGY PREDICTED BY IDOCK:    2.36 KCAL/MOL
REMARK 927      BINDING AFFINITY PREDICTED BY RF-SCORE:    0.00 PKD
ROOT
HETATM    1  C   UNL     1      -9.788   4.399  69.486  1.00  0.00    -0.188 C  
HETATM    2  N   UNL     1      -8.452   4.982  69.372  1.00  0.00    -0.084 NA 
HETATM    3  C   UNL     1      -7.411   3.934  69.422  1.00  0.00    -0.053 C  
HETATM    4  C   UNL     1      -7.248   3.114  68.121  1.00  0.00    -0.050 C  
HETATM    5  N   UNL     1      -7.069   3.926  66.901  1.00  0.00    -0.062 NA 
HETATM    6  C   UNL     1      -8.331   5.767  68.127  1.00  0.00    -0.107 C  
HETATM    7  C   UNL     1      -8.164   4.921  66.837  1.00  0.00    -0.107 C  
ENDROOT
BRANCH   5   8
HETATM    8  C   UNL     1      -5.780   4.626  66.847  1.00  0.00    -0.018 C  
BRANCH   8   9
HETATM    9  C   UNL     1      -5.873   6.126  67.008  1.00  0.00    -0.017 A  
HETATM   10  C   UNL     1      -5.609   6.644  68.286  1.00  0.00    -0.016 A  
HETATM   11  C   UNL     1      -5.778   7.995  68.568  1.00  0.00    -0.032 A  
HETATM   12  C   UNL     1      -6.223   8.871  67.585  1.00  0.00    -0.056 A  
HETATM   13  C   UNL     1      -6.409   8.380  66.286  1.00  0.00    -0.053 A  
HETATM   14  F   UNL     1      -5.660   7.167  63.664  1.00  0.00    -0.033 F  
HETATM   15  C   UNL     1      -6.246   7.006  65.975  1.00  0.00    -0.036 A  
HETATM   16  F   UNL     1      -6.493   5.253  64.276  1.00  0.00    -0.033 F  
HETATM   17  C   UNL     1      -6.523   6.583  64.545  1.00  0.00    -0.041 C  
HETATM   18  F   UNL     1      -7.767   6.988  64.146  1.00  0.00    -0.090 F  
BRANCH  12  19
HETATM   19  N   UNL     1      -6.539  10.225  67.845  1.00  0.00    -0.062 N  
HETATM   20  O   UNL     1      -6.098  11.187  65.762  1.00  0.00    -0.078 OA 
HETATM   21  C   UNL     1      -6.424  11.270  66.940  1.00  0.00    -0.128 C  
HETATM   22  H   UNL     1      -6.881  10.452  68.779  1.00  0.00     0.000 HD 
BRANCH  21  23
HETATM   23  C   UNL     1      -6.679  12.632  67.472  1.00  0.00    -0.156 A  
HETATM   24  C   UNL     1      -7.937  12.885  68.037  1.00  0.00    -0.158 A  
HETATM   25  C   UNL     1      -8.237  14.136  68.582  1.00  0.00    -0.116 A  
HETATM   26  C   UNL     1      -5.705  13.633  67.467  1.00  0.00     0.056 A  
HETATM   27  C   UNL     1      -7.268  15.153  68.563  1.00  0.00    -0.118 A  
HETATM   28  C   UNL     1      -6.001  14.884  68.009  1.00  0.00    -0.158 A  
HETATM   29  C   UNL     1      -7.504  16.528  69.128  1.00  0.00    -0.218 C  
BRANCH  25  30
HETATM   30  C   UNL     1      -9.552  14.344  69.121  1.00  0.00     0.020 C  
HETATM   31  C   UNL     1     -10.644  14.567  69.570  1.00  0.00    -0.126 C  
BRANCH  31  32
HETATM   32  C   UNL     1     -11.892  14.941  70.139  1.00  0.00    -0.308 A  
HETATM   33  C   UNL     1     -13.104  15.029  69.493  1.00  0.00     0.698 A  
HETATM   34  N   UNL     1     -14.106  15.414  70.351  1.00  0.00     0.250 NA 
HETATM   35  C   UNL     1     -13.511  15.558  71.517  1.00  0.00    -0.494 A  
HETATM   36  C   UNL     1     -14.036  15.937  72.772  1.00  0.00    -0.353 A  
HETATM   37  C   UNL     1     -13.219  16.014  73.828  1.00  0.00    -0.390 A  
HETATM   38  C   UNL     1     -11.787  15.690  73.601  1.00  0.00    -0.258 A  
HETATM   39  N   UNL     1     -11.250  15.337  72.478  1.00  0.00    -0.231 NA 
HETATM   40  N   UNL     1     -12.151  15.282  71.446  1.00  0.00    -0.320 NA 
ENDBRANCH  31  32
ENDBRANCH  25  30
ENDBRANCH  21  23
ENDBRANCH  12  19
ENDBRANCH   8   9
ENDBRANCH   5   8
TORSDOF 6
ENDMDL
MODEL       85
REMARK 921   NORMALIZED FREE ENERGY PREDICTED BY IDOCK:    0.10 KCAL/MOL
REMARK 922        TOTAL FREE ENERGY PREDICTED BY IDOCK:   -1.18 KCAL/MOL
REMARK 923 INTER-LIGAND FREE ENERGY PREDICTED BY IDOCK:   -0.85 KCAL/MOL
REMARK 924 INTRA-LIGAND FREE ENERGY PREDICTED BY IDOCK:   -0.33 KCAL/MOL
REMARK 927      BINDING AFFINITY PREDICTED BY RF-SCORE:    0.00 PKD
ROOT
HETATM    1  C   UNL     1     -12.330  20.333  67.023  1.00  0.00     4.049 C  
HETATM    2  N   UNL     1     -11.119  19.889  66.334  1.00  0.00    -0.078 NA 
HETATM    3  C   UNL     1      -9.918  20.535  66.904  1.00  0.00    -0.325 C  
HETATM    4  C   UNL     1      -9.450  19.959  68.261  1.00  0.00    -0.303 C  
HETATM    5  N   UNL     1      -9.275  18.494  68.279  1.00  0.00    -0.311 NA 
HETATM    6  C   UNL     1     -10.992  18.419  66.400  1.00  0.00     0.215 C  
HETATM    7  C   UNL     1     -10.517  17.867  67.770  1.00  0.00    -0.400 C  
ENDROOT
BRANCH   5   8
HETATM    8  C   UNL     1      -8.139  18.029  67.474  1.00  0.00    -0.230 C  
BRANCH   8   9
HETATM    9  C   UNL     1      -8.075  16.532  67.282  1.00  0.00    -0.193 A  
HETATM   10  C   UNL     1      -8.814  15.997  66.214  1.00  0.00    -0.379 A  
HETATM   11  C   UNL     1      -8.914  14.624  66.021  1.00  0.00     0.123 A  
HETATM   12  C   UNL     1      -8.287  13.740  66.891  1.00  0.00    -0.007 A  
HETATM   13  C   UNL     1      -7.481  14.264  67.910  1.00  0.00    -0.157 A  
HETATM   14  F   UNL     1      -5.196  15.748  69.128  1.00  0.00    -0.099 F  
HETATM   15  C   UNL     1      -7.365  15.660  68.128  1.00  0.00    -0.123 A  
HETATM   16  F   UNL     1      -6.493  17.433  69.583  1.00  0.00    -0.240 F  
HETATM   17  C   UNL     1      -6.502  16.108  69.292  1.00  0.00    -0.182 C  
HETATM   18  F   UNL     1      -6.894  15.503  70.455  1.00  0.00     0.012 F  
BRANCH  12  19
HETATM   19  N   UNL     1      -8.462  12.338  66.823  1.00  0.00    -0.327 N  
HETATM   20  O   UNL     1      -6.348  11.667  66.087  1.00  0.00     0.034 OA 
HETATM   21  C   UNL     1      -7.507  11.424  66.402  1.00  0.00    -0.013 C  
HETATM   22  H   UNL     1      -9.369  11.967  67.108  1.00  0.00     0.000 HD 
BRANCH  21  23
HETATM   23  C   UNL     1      -7.954  10.014  66.278  1.00  0.00    -0.111 A  
HETATM   24  C   UNL     1      -8.617   9.443  67.375  1.00  0.00    -0.125 A  
HETATM   25  C   UNL     1      -9.089   8.130  67.318  1.00  0.00    -0.156 A  
HETATM   26  C   UNL     1      -7.778   9.272  65.109  1.00  0.00    -0.108 A  
HETATM   27  C   UNL     1      -8.899   7.372  66.151  1.00  0.00    -0.185 A  
HETATM   28  C   UNL     1      -8.248   7.960  65.050  1.00  0.00    -0.134 A  
HETATM   29  C   UNL     1      -9.376   5.952  66.003  1.00  0.00    -0.117 C  
BRANCH  25  30
HETATM   30  C   UNL     1      -9.735   7.591  68.483  1.00  0.00    -0.159 C  
HETATM   31  C   UNL     1     -10.297   7.184  69.463  1.00  0.00    -0.224 C  
BRANCH  31  32
HETATM   32  C   UNL     1     -10.974   6.821  70.659  1.00  0.00    -0.267 A  
HETATM   33  C   UNL     1     -11.798   7.620  71.420  1.00  0.00    -0.293 A  
HETATM   34  N   UNL     1     -12.290   6.943  72.510  1.00  0.00     0.049 NA 
HETATM   35  C   UNL     1     -11.774   5.736  72.415  1.00  0.00    -0.223 A  
HETATM   36  C   UNL     1     -11.927   4.607  73.250  1.00  0.00     0.067 A  
HETATM   37  C   UNL     1     -11.290   3.472  72.940  1.00  0.00     0.150 A  
HETATM   38  C   UNL     1     -10.449   3.479  71.716  1.00  0.00     0.294 A  
HETATM   39  N   UNL     1     -10.272   4.479  70.914  1.00  0.00    -0.155 NA 
HETATM   40  N   UNL     1     -10.957   5.604  71.299  1.00  0.00    -0.222 NA 
ENDBRANCH  31  32
ENDBRANCH  25  30
ENDBRANCH  21  23
ENDBRANCH  12  19
ENDBRANCH   8   9
ENDBRANCH   5   8
TORSDOF 6
ENDMDL
MODEL       86
REMARK 921   NORMALIZED FREE ENERGY PREDICTED BY IDOCK:    0.34 KCAL/MOL
REMARK 922        TOTAL FREE ENERGY PREDICTED BY IDOCK:   -0.85 KCAL/MOL
REMARK 923 INTER-LIGAND FREE ENERGY PREDICTED BY IDOCK:   -1.72 KCAL/MOL
REMARK 924 INTRA-LIGAND FREE ENERGY PREDICTED BY IDOCK:    0.87 KCAL/MOL
REMARK 927      BINDING AFFINITY PREDICTED BY RF-SCORE:    0.00 PKD
ROOT
HETATM    1  C   UNL     1      -6.424  19.290  72.243  1.00  0.00     1.521 C  
HETATM    2  N   UNL     1      -5.837  18.446  71.203  1.00  0.00     0.216 NA 
HETATM    3  C   UNL     1      -6.869  17.612  70.552  1.00  0.00     1.799 C  
HETATM    4  C   UNL     1      -7.769  18.361  69.541  1.00  0.00     0.392 C  
HETATM    5  N   UNL     1      -7.035  19.127  68.515  1.00  0.00    -0.271 NA 
HETATM    6  C   UNL     1      -5.132  19.268  70.200  1.00  0.00    -0.197 C  
HETATM    7  C   UNL     1      -6.056  20.005  69.196  1.00  0.00    -0.310 C  
ENDROOT
BRANCH   5   8
HETATM    8  C   UNL     1      -6.327  18.280  67.547  1.00  0.00    -0.181 C  
BRANCH   8   9
HETATM    9  C   UNL     1      -6.749  16.829  67.556  1.00  0.00    -0.173 A  
HETATM   10  C   UNL     1      -5.800  15.895  68.001  1.00  0.00    -0.140 A  
HETATM   11  C   UNL     1      -6.048  14.529  67.942  1.00  0.00    -0.161 A  
HETATM   12  C   UNL     1      -7.247  14.049  67.428  1.00  0.00    -0.095 A  
HETATM   13  C   UNL     1      -8.233  14.974  67.058  1.00  0.00    -0.246 A  
HETATM   14  F   UNL     1     -10.240  17.152  67.414  1.00  0.00    -0.283 F  
HETATM   15  C   UNL     1      -8.003  16.372  67.108  1.00  0.00    -0.215 A  
HETATM   16  F   UNL     1      -8.864  18.603  66.560  1.00  0.00    -0.274 F  
HETATM   17  C   UNL     1      -9.127  17.274  66.636  1.00  0.00    -0.265 C  
HETATM   18  F   UNL     1      -9.535  16.931  65.375  1.00  0.00    -0.072 F  
BRANCH  12  19
HETATM   19  N   UNL     1      -7.501  12.673  67.220  1.00  0.00    -0.275 N  
HETATM   20  O   UNL     1      -9.582  12.766  66.162  1.00  0.00    -0.254 OA 
HETATM   21  C   UNL     1      -8.644  12.141  66.642  1.00  0.00    -0.122 C  
HETATM   22  H   UNL     1      -6.781  12.016  67.521  1.00  0.00     0.000 HD 
BRANCH  21  23
HETATM   23  C   UNL     1      -8.759  10.661  66.651  1.00  0.00    -0.144 A  
HETATM   24  C   UNL     1      -8.341   9.983  67.805  1.00  0.00    -0.114 A  
HETATM   25  C   UNL     1      -8.445   8.593  67.894  1.00  0.00    -0.129 A  
HETATM   26  C   UNL     1      -9.303   9.945  65.583  1.00  0.00    -0.269 A  
HETATM   27  C   UNL     1      -8.975   7.865  66.815  1.00  0.00    -0.169 A  
HETATM   28  C   UNL     1      -9.408   8.557  65.667  1.00  0.00    -0.122 A  
HETATM   29  C   UNL     1      -9.125   6.368  66.825  1.00  0.00    -0.147 C  
BRANCH  25  30
HETATM   30  C   UNL     1      -7.974   7.952  69.090  1.00  0.00    -0.118 C  
HETATM   31  C   UNL     1      -7.579   7.374  70.065  1.00  0.00    -0.089 C  
BRANCH  31  32
HETATM   32  C   UNL     1      -7.155   6.584  71.169  1.00  0.00    -0.077 A  
HETATM   33  C   UNL     1      -5.894   6.076  71.389  1.00  0.00    -0.026 A  
HETATM   34  N   UNL     1      -5.836   5.362  72.561  1.00  0.00    -0.022 NA 
HETATM   35  C   UNL     1      -7.053   5.434  73.058  1.00  0.00    -0.089 A  
HETATM   36  C   UNL     1      -7.590   4.892  74.247  1.00  0.00    -0.090 A  
HETATM   37  C   UNL     1      -8.877   5.106  74.540  1.00  0.00    -0.110 A  
HETATM   38  C   UNL     1      -9.668   5.912  73.576  1.00  0.00    -0.160 A  
HETATM   39  N   UNL     1      -9.232   6.433  72.475  1.00  0.00    -0.140 NA 
HETATM   40  N   UNL     1      -7.906   6.170  72.245  1.00  0.00    -0.101 NA 
ENDBRANCH  31  32
ENDBRANCH  25  30
ENDBRANCH  21  23
ENDBRANCH  12  19
ENDBRANCH   8   9
ENDBRANCH   5   8
TORSDOF 6
ENDMDL
MODEL       87
REMARK 921   NORMALIZED FREE ENERGY PREDICTED BY IDOCK:    1.15 KCAL/MOL
REMARK 922        TOTAL FREE ENERGY PREDICTED BY IDOCK:    0.25 KCAL/MOL
REMARK 923 INTER-LIGAND FREE ENERGY PREDICTED BY IDOCK:   -0.01 KCAL/MOL
REMARK 924 INTRA-LIGAND FREE ENERGY PREDICTED BY IDOCK:    0.26 KCAL/MOL
REMARK 927      BINDING AFFINITY PREDICTED BY RF-SCORE:    0.00 PKD
ROOT
HETATM    1  C   UNL     1     -11.258   4.201  64.871  1.00  0.00     0.377 C  
HETATM    2  N   UNL     1      -9.922   4.180  65.465  1.00  0.00    -0.210 NA 
HETATM    3  C   UNL     1      -9.770   5.254  66.468  1.00  0.00    -0.167 C  
HETATM    4  C   UNL     1     -10.460   4.981  67.825  1.00  0.00     0.015 C  
HETATM    5  N   UNL     1     -10.116   3.683  68.438  1.00  0.00     0.346 NA 
HETATM    6  C   UNL     1      -9.643   2.864  66.075  1.00  0.00     0.143 C  
HETATM    7  C   UNL     1     -10.344   2.616  67.436  1.00  0.00     2.529 C  
ENDROOT
BRANCH   5   8
HETATM    8  C   UNL     1      -8.730   3.608  68.913  1.00  0.00    -0.093 C  
BRANCH   8   9
HETATM    9  C   UNL     1      -8.081   4.948  69.171  1.00  0.00    -0.079 A  
HETATM   10  C   UNL     1      -8.546   5.675  70.278  1.00  0.00    -0.131 A  
HETATM   11  C   UNL     1      -8.097   6.965  70.536  1.00  0.00    -0.115 A  
HETATM   12  C   UNL     1      -7.175   7.575  69.693  1.00  0.00    -0.077 A  
HETATM   13  C   UNL     1      -6.643   6.828  68.634  1.00  0.00    -0.051 A  
HETATM   14  F   UNL     1      -5.131   4.630  67.297  1.00  0.00    -0.006 F  
HETATM   15  C   UNL     1      -7.087   5.512  68.349  1.00  0.00    -0.070 A  
HETATM   16  F   UNL     1      -6.988   3.615  66.797  1.00  0.00    -0.050 F  
HETATM   17  C   UNL     1      -6.474   4.821  67.147  1.00  0.00    -0.045 C  
HETATM   18  F   UNL     1      -6.600   5.589  66.022  1.00  0.00    -0.042 F  
BRANCH  12  19
HETATM   19  N   UNL     1      -6.784   8.927  69.829  1.00  0.00    -0.044 N  
HETATM   20  O   UNL     1      -8.594   9.790  71.028  1.00  0.00    -0.115 OA 
HETATM   21  C   UNL     1      -7.524   9.924  70.447  1.00  0.00    -0.122 C  
HETATM   22  H   UNL     1      -5.879   9.192  69.439  1.00  0.00     0.000 HD 
BRANCH  21  23
HETATM   23  C   UNL     1      -6.982  11.303  70.350  1.00  0.00     0.815 A  
HETATM   24  C   UNL     1      -7.663  12.214  69.530  1.00  0.00     0.709 A  
HETATM   25  C   UNL     1      -7.225  13.535  69.413  1.00  0.00     0.182 A  
HETATM   26  C   UNL     1      -5.864  11.721  71.075  1.00  0.00     0.187 A  
HETATM   27  C   UNL     1      -6.090  13.957  70.125  1.00  0.00    -0.147 A  
HETATM   28  C   UNL     1      -5.423  13.040  70.960  1.00  0.00    -0.188 A  
HETATM   29  C   UNL     1      -5.550  15.360  70.059  1.00  0.00    -0.128 C  
BRANCH  25  30
HETATM   30  C   UNL     1      -7.946  14.414  68.535  1.00  0.00    -0.144 C  
HETATM   31  C   UNL     1      -8.520  15.185  67.815  1.00  0.00    -0.156 C  
BRANCH  31  32
HETATM   32  C   UNL     1      -9.154  16.190  67.035  1.00  0.00    -0.209 A  
HETATM   33  C   UNL     1      -9.517  16.105  65.709  1.00  0.00    -0.219 A  
HETATM   34  N   UNL     1     -10.117  17.262  65.275  1.00  0.00    -0.326 NA 
HETATM   35  C   UNL     1     -10.125  18.051  66.329  1.00  0.00    -0.363 A  
HETATM   36  C   UNL     1     -10.616  19.366  66.486  1.00  0.00    -0.554 A  
HETATM   37  C   UNL     1     -10.507  19.969  67.675  1.00  0.00    -0.476 A  
HETATM   38  C   UNL     1      -9.864  19.198  68.769  1.00  0.00    -0.439 A  
HETATM   39  N   UNL     1      -9.397  17.994  68.686  1.00  0.00    -0.300 NA 
HETATM   40  N   UNL     1      -9.545  17.446  67.438  1.00  0.00    -0.253 NA 
ENDBRANCH  31  32
ENDBRANCH  25  30
ENDBRANCH  21  23
ENDBRANCH  12  19
ENDBRANCH   8   9
ENDBRANCH   5   8
TORSDOF 6
ENDMDL
MODEL       88
REMARK 921   NORMALIZED FREE ENERGY PREDICTED BY IDOCK:    1.18 KCAL/MOL
REMARK 922        TOTAL FREE ENERGY PREDICTED BY IDOCK:    0.28 KCAL/MOL
REMARK 923 INTER-LIGAND FREE ENERGY PREDICTED BY IDOCK:   -3.14 KCAL/MOL
REMARK 924 INTRA-LIGAND FREE ENERGY PREDICTED BY IDOCK:    3.43 KCAL/MOL
REMARK 927      BINDING AFFINITY PREDICTED BY RF-SCORE:    0.00 PKD
ROOT
HETATM    1  C   UNL     1     -10.604   1.770  69.778  1.00  0.00     2.118 C  
HETATM    2  N   UNL     1      -9.733   2.843  70.255  1.00  0.00    -0.063 NA 
HETATM    3  C   UNL     1     -10.434   3.696  71.238  1.00  0.00     0.612 C  
HETATM    4  C   UNL     1     -10.577   3.081  72.650  1.00  0.00    -0.034 C  
HETATM    5  N   UNL     1      -9.315   2.589  73.237  1.00  0.00    -0.087 NA 
HETATM    6  C   UNL     1      -8.498   2.289  70.844  1.00  0.00    -0.050 C  
HETATM    7  C   UNL     1      -8.668   1.682  72.262  1.00  0.00    -0.060 C  
ENDROOT
BRANCH   5   8
HETATM    8  C   UNL     1      -8.377   3.661  73.592  1.00  0.00    -0.083 C  
BRANCH   8   9
HETATM    9  C   UNL     1      -8.463   4.887  72.712  1.00  0.00    -0.115 A  
HETATM   10  C   UNL     1      -9.589   5.709  72.878  1.00  0.00    -0.165 A  
HETATM   11  C   UNL     1      -9.820   6.796  72.043  1.00  0.00    -0.166 A  
HETATM   12  C   UNL     1      -8.938   7.093  71.010  1.00  0.00    -0.150 A  
HETATM   13  C   UNL     1      -7.770   6.330  70.888  1.00  0.00    -0.098 A  
HETATM   14  F   UNL     1      -5.125   5.194  71.675  1.00  0.00    -0.004 F  
HETATM   15  C   UNL     1      -7.514   5.215  71.726  1.00  0.00    -0.090 A  
HETATM   16  F   UNL     1      -6.056   3.295  72.181  1.00  0.00    -0.011 F  
HETATM   17  C   UNL     1      -6.240   4.435  71.468  1.00  0.00    -0.018 C  
HETATM   18  F   UNL     1      -6.163   4.039  70.160  1.00  0.00    -0.023 F  
BRANCH  12  19
HETATM   19  N   UNL     1      -9.189   8.101  70.049  1.00  0.00    -0.154 N  
HETATM   20  O   UNL     1     -11.054   9.148  70.989  1.00  0.00    -0.256 OA 
HETATM   21  C   UNL     1     -10.229   9.017  70.093  1.00  0.00    -0.197 C  
HETATM   22  H   UNL     1      -8.549   8.159  69.257  1.00  0.00     0.000 HD 
BRANCH  21  23
HETATM   23  C   UNL     1     -10.382   9.896  68.906  1.00  0.00    -0.221 A  
HETATM   24  C   UNL     1      -9.808  11.174  68.965  1.00  0.00    -0.132 A  
HETATM   25  C   UNL     1      -9.890  12.045  67.875  1.00  0.00    -0.196 A  
HETATM   26  C   UNL     1     -11.028   9.477  67.741  1.00  0.00    -0.165 A  
HETATM   27  C   UNL     1     -10.554  11.635  66.706  1.00  0.00    -0.280 A  
HETATM   28  C   UNL     1     -11.112  10.343  66.651  1.00  0.00     0.039 A  
HETATM   29  C   UNL     1     -10.688  12.506  65.487  1.00  0.00    -0.303 C  
BRANCH  25  30
HETATM   30  C   UNL     1      -9.307  13.351  68.005  1.00  0.00    -0.217 C  
HETATM   31  C   UNL     1      -8.822  14.438  68.163  1.00  0.00    -0.180 C  
BRANCH  31  32
HETATM   32  C   UNL     1      -8.298  15.725  68.464  1.00  0.00    -0.175 A  
HETATM   33  C   UNL     1      -7.285  16.022  69.348  1.00  0.00    -0.213 A  
HETATM   34  N   UNL     1      -7.029  17.371  69.387  1.00  0.00    -0.174 NA 
HETATM   35  C   UNL     1      -7.878  17.898  68.530  1.00  0.00    -0.298 A  
HETATM   36  C   UNL     1      -8.077  19.243  68.147  1.00  0.00    -0.349 A  
HETATM   37  C   UNL     1      -9.016  19.534  67.241  1.00  0.00    -0.367 A  
HETATM   38  C   UNL     1      -9.801  18.400  66.690  1.00  0.00    -0.353 A  
HETATM   39  N   UNL     1      -9.664  17.152  67.000  1.00  0.00    -0.257 NA 
HETATM   40  N   UNL     1      -8.683  16.935  67.934  1.00  0.00    -0.210 NA 
ENDBRANCH  31  32
ENDBRANCH  25  30
ENDBRANCH  21  23
ENDBRANCH  12  19
ENDBRANCH   8   9
ENDBRANCH   5   8
TORSDOF 6
ENDMDL
MODEL       89
REMARK 921   NORMALIZED FREE ENERGY PREDICTED BY IDOCK:    1.30 KCAL/MOL
REMARK 922        TOTAL FREE ENERGY PREDICTED BY IDOCK:    0.44 KCAL/MOL
REMARK 923 INTER-LIGAND FREE ENERGY PREDICTED BY IDOCK:   -4.50 KCAL/MOL
REMARK 924 INTRA-LIGAND FREE ENERGY PREDICTED BY IDOCK:    4.94 KCAL/MOL
REMARK 927      BINDING AFFINITY PREDICTED BY RF-SCORE:    0.00 PKD
ROOT
HETATM    1  C   UNL     1      -8.951  18.750  68.951  1.00  0.00    -0.204 C  
HETATM    2  N   UNL     1      -8.944  17.474  68.238  1.00  0.00    -0.260 NA 
HETATM    3  C   UNL     1      -9.460  16.385  69.095  1.00  0.00    -0.236 C  
HETATM    4  C   UNL     1     -10.997  16.365  69.270  1.00  0.00    -0.322 C  
HETATM    5  N   UNL     1     -11.759  16.400  68.006  1.00  0.00     0.055 NA 
HETATM    6  C   UNL     1      -9.735  17.567  66.994  1.00  0.00    -0.284 C  
HETATM    7  C   UNL     1     -11.273  17.541  67.197  1.00  0.00     0.411 C  
ENDROOT
BRANCH   5   8
HETATM    8  C   UNL     1     -11.643  15.168  67.218  1.00  0.00    -0.223 C  
BRANCH   8   9
HETATM    9  C   UNL     1     -11.531  13.905  68.040  1.00  0.00    -0.339 A  
HETATM   10  C   UNL     1     -10.808  12.842  67.475  1.00  0.00    -0.263 A  
HETATM   11  C   UNL     1     -10.743  11.601  68.097  1.00  0.00    -0.248 A  
HETATM   12  C   UNL     1     -11.402  11.377  69.300  1.00  0.00    -0.289 A  
HETATM   13  C   UNL     1     -12.057  12.454  69.913  1.00  0.00    -0.317 A  
HETATM   14  F   UNL     1     -12.345  15.116  71.231  1.00  0.00    -0.296 F  
HETATM   15  C   UNL     1     -12.140  13.728  69.296  1.00  0.00    -0.374 A  
HETATM   16  F   UNL     1     -13.107  15.981  69.387  1.00  0.00     0.239 F  
HETATM   17  C   UNL     1     -12.917  14.803  70.032  1.00  0.00     0.055 C  
HETATM   18  F   UNL     1     -14.178  14.372  70.342  1.00  0.00     0.233 F  
BRANCH  12  19
HETATM   19  N   UNL     1     -11.482  10.104  69.911  1.00  0.00    -0.310 N  
HETATM   20  O   UNL     1     -13.675  10.139  70.716  1.00  0.00    -0.131 OA 
HETATM   21  C   UNL     1     -12.582   9.601  70.590  1.00  0.00    -0.056 C  
HETATM   22  H   UNL     1     -10.659   9.504  69.846  1.00  0.00     0.000 HD 
BRANCH  21  23
HETATM   23  C   UNL     1     -12.394   8.296  71.272  1.00  0.00    -0.285 A  
HETATM   24  C   UNL     1     -11.145   7.671  71.148  1.00  0.00    -0.269 A  
HETATM   25  C   UNL     1     -10.889   6.454  71.786  1.00  0.00    -0.283 A  
HETATM   26  C   UNL     1     -13.391   7.709  72.054  1.00  0.00    -0.210 A  
HETATM   27  C   UNL     1     -11.894   5.850  72.560  1.00  0.00    -0.238 A  
HETATM   28  C   UNL     1     -13.139   6.494  72.691  1.00  0.00     0.687 A  
HETATM   29  C   UNL     1     -11.704   4.543  73.281  1.00  0.00    -0.164 C  
BRANCH  25  30
HETATM   30  C   UNL     1      -9.600   5.849  71.599  1.00  0.00    -0.173 C  
HETATM   31  C   UNL     1      -8.533   5.335  71.396  1.00  0.00    -0.125 C  
BRANCH  31  32
HETATM   32  C   UNL     1      -7.323   4.671  71.056  1.00  0.00    -0.052 A  
HETATM   33  C   UNL     1      -6.218   4.498  71.860  1.00  0.00    -0.021 A  
HETATM   34  N   UNL     1      -5.227   3.802  71.212  1.00  0.00     0.000 NA 
HETATM   35  C   UNL     1      -5.723   3.545  70.019  1.00  0.00    -0.017 A  
HETATM   36  C   UNL     1      -5.161   2.856  68.922  1.00  0.00    -0.011 A  
HETATM   37  C   UNL     1      -5.872   2.723  67.798  1.00  0.00    -0.019 A  
HETATM   38  C   UNL     1      -7.230   3.322  67.780  1.00  0.00    -0.054 A  
HETATM   39  N   UNL     1      -7.798   3.962  68.751  1.00  0.00    -0.063 NA 
HETATM   40  N   UNL     1      -7.006   4.056  69.867  1.00  0.00    -0.041 NA 
ENDBRANCH  31  32
ENDBRANCH  25  30
ENDBRANCH  21  23
ENDBRANCH  12  19
ENDBRANCH   8   9
ENDBRANCH   5   8
TORSDOF 6
ENDMDL
MODEL       90
REMARK 921   NORMALIZED FREE ENERGY PREDICTED BY IDOCK:    2.25 KCAL/MOL
REMARK 922        TOTAL FREE ENERGY PREDICTED BY IDOCK:    1.72 KCAL/MOL
REMARK 923 INTER-LIGAND FREE ENERGY PREDICTED BY IDOCK:    1.92 KCAL/MOL
REMARK 924 INTRA-LIGAND FREE ENERGY PREDICTED BY IDOCK:   -0.20 KCAL/MOL
REMARK 927      BINDING AFFINITY PREDICTED BY RF-SCORE:    0.00 PKD
ROOT
HETATM    1  C   UNL     1     -11.647  20.908  69.055  1.00  0.00     3.058 C  
HETATM    2  N   UNL     1     -11.649  19.817  68.081  1.00  0.00     1.360 NA 
HETATM    3  C   UNL     1     -11.401  20.325  66.715  1.00  0.00     1.258 C  
HETATM    4  C   UNL     1      -9.930  20.694  66.414  1.00  0.00     0.030 C  
HETATM    5  N   UNL     1      -8.954  19.631  66.728  1.00  0.00    -0.335 NA 
HETATM    6  C   UNL     1     -10.643  18.796  68.439  1.00  0.00    -0.070 C  
HETATM    7  C   UNL     1      -9.176  19.188  68.123  1.00  0.00    -0.327 C  
ENDROOT
BRANCH   5   8
HETATM    8  C   UNL     1      -9.045  18.470  65.835  1.00  0.00     0.230 C  
BRANCH   8   9
HETATM    9  C   UNL     1      -8.482  17.191  66.410  1.00  0.00    -0.307 A  
HETATM   10  C   UNL     1      -9.407  16.252  66.895  1.00  0.00    -0.241 A  
HETATM   11  C   UNL     1      -8.991  15.096  67.545  1.00  0.00    -0.187 A  
HETATM   12  C   UNL     1      -7.638  14.843  67.740  1.00  0.00    -0.156 A  
HETATM   13  C   UNL     1      -6.706  15.731  67.187  1.00  0.00    -0.127 A  
HETATM   14  F   UNL     1      -5.247  17.219  65.051  1.00  0.00     0.249 F  
HETATM   15  C   UNL     1      -7.106  16.918  66.522  1.00  0.00    -0.281 A  
HETATM   16  F   UNL     1      -6.383  19.022  65.488  1.00  0.00    -0.216 F  
HETATM   17  C   UNL     1      -6.006  17.826  66.008  1.00  0.00    -0.206 C  
HETATM   18  F   UNL     1      -5.128  18.147  67.007  1.00  0.00    -0.118 F  
BRANCH  12  19
HETATM   19  N   UNL     1      -7.160  13.755  68.507  1.00  0.00    -0.098 N  
HETATM   20  O   UNL     1      -8.076  11.954  67.334  1.00  0.00    -0.147 OA 
HETATM   21  C   UNL     1      -7.436  12.417  68.271  1.00  0.00    -0.124 C  
HETATM   22  H   UNL     1      -6.561  13.974  69.304  1.00  0.00     0.000 HD 
BRANCH  21  23
HETATM   23  C   UNL     1      -6.943  11.453  69.287  1.00  0.00    -0.115 A  
HETATM   24  C   UNL     1      -7.307  10.107  69.137  1.00  0.00    -0.089 A  
HETATM   25  C   UNL     1      -6.857   9.141  70.041  1.00  0.00    -0.049 A  
HETATM   26  C   UNL     1      -6.108  11.835  70.338  1.00  0.00    -0.057 A  
HETATM   27  C   UNL     1      -6.031   9.522  71.111  1.00  0.00    -0.078 A  
HETATM   28  C   UNL     1      -5.657  10.873  71.242  1.00  0.00     0.067 A  
HETATM   29  C   UNL     1      -5.500   8.548  72.129  1.00  0.00    -0.045 C  
BRANCH  25  30
HETATM   30  C   UNL     1      -7.286   7.783  69.852  1.00  0.00    -0.079 C  
HETATM   31  C   UNL     1      -7.600   6.633  69.706  1.00  0.00    -0.104 C  
BRANCH  31  32
HETATM   32  C   UNL     1      -7.850   5.247  69.515  1.00  0.00    -0.084 A  
HETATM   33  C   UNL     1      -7.740   4.538  68.340  1.00  0.00    -0.079 A  
HETATM   34  N   UNL     1      -8.051   3.212  68.519  1.00  0.00    -0.060 NA 
HETATM   35  C   UNL     1      -8.346   3.107  69.798  1.00  0.00    -0.051 A  
HETATM   36  C   UNL     1      -8.737   1.984  70.559  1.00  0.00    -0.115 A  
HETATM   37  C   UNL     1      -8.986   2.131  71.865  1.00  0.00    -0.122 A  
HETATM   38  C   UNL     1      -8.833   3.494  72.434  1.00  0.00    -0.088 A  
HETATM   39  N   UNL     1      -8.478   4.558  71.790  1.00  0.00    -0.110 NA 
HETATM   40  N   UNL     1      -8.241   4.325  70.459  1.00  0.00    -0.066 NA 
ENDBRANCH  31  32
ENDBRANCH  25  30
ENDBRANCH  21  23
ENDBRANCH  12  19
ENDBRANCH   8   9
ENDBRANCH   5   8
TORSDOF 6
ENDMDL
MODEL       91
REMARK 921   NORMALIZED FREE ENERGY PREDICTED BY IDOCK:    2.74 KCAL/MOL
REMARK 922        TOTAL FREE ENERGY PREDICTED BY IDOCK:    2.39 KCAL/MOL
REMARK 923 INTER-LIGAND FREE ENERGY PREDICTED BY IDOCK:   -3.10 KCAL/MOL
REMARK 924 INTRA-LIGAND FREE ENERGY PREDICTED BY IDOCK:    5.49 KCAL/MOL
REMARK 927      BINDING AFFINITY PREDICTED BY RF-SCORE:    0.00 PKD
ROOT
HETATM    1  C   UNL     1      -9.064  18.749  69.176  1.00  0.00    -0.016 C  
HETATM    2  N   UNL     1      -9.030  17.471  68.467  1.00  0.00    -0.277 NA 
HETATM    3  C   UNL     1      -9.629  16.395  69.284  1.00  0.00    -0.198 C  
HETATM    4  C   UNL     1     -11.174  16.406  69.346  1.00  0.00    -0.267 C  
HETATM    5  N   UNL     1     -11.841  16.453  68.030  1.00  0.00     0.200 NA 
HETATM    6  C   UNL     1      -9.726  17.577  67.168  1.00  0.00    -0.279 C  
HETATM    7  C   UNL     1     -11.274  17.582  67.258  1.00  0.00     0.347 C  
ENDROOT
BRANCH   5   8
HETATM    8  C   UNL     1     -11.692  15.216  67.253  1.00  0.00    -0.157 C  
BRANCH   8   9
HETATM    9  C   UNL     1     -11.628  13.956  68.085  1.00  0.00    -0.370 A  
HETATM   10  C   UNL     1     -10.902  12.880  67.551  1.00  0.00    -0.256 A  
HETATM   11  C   UNL     1     -10.877  11.641  68.182  1.00  0.00    -0.260 A  
HETATM   12  C   UNL     1     -11.582  11.434  69.361  1.00  0.00    -0.323 A  
HETATM   13  C   UNL     1     -12.242  12.523  69.945  1.00  0.00    -0.233 A  
HETATM   14  F   UNL     1     -12.537  15.196  71.239  1.00  0.00    -0.305 F  
HETATM   15  C   UNL     1     -12.284  13.795  69.320  1.00  0.00    -0.307 A  
HETATM   16  F   UNL     1     -13.220  16.063  69.365  1.00  0.00     0.407 F  
HETATM   17  C   UNL     1     -13.070  14.885  70.023  1.00  0.00     0.155 C  
HETATM   18  F   UNL     1     -14.348  14.475  70.289  1.00  0.00     0.490 F  
BRANCH  12  19
HETATM   19  N   UNL     1     -11.702  10.165  69.975  1.00  0.00    -0.379 N  
HETATM   20  O   UNL     1     -13.870  10.298  70.836  1.00  0.00     0.042 OA 
HETATM   21  C   UNL     1     -12.805   9.711  70.682  1.00  0.00     0.000 C  
HETATM   22  H   UNL     1     -10.909   9.529  69.890  1.00  0.00     0.000 HD 
BRANCH  21  23
HETATM   23  C   UNL     1     -12.658   8.399  71.360  1.00  0.00    -0.299 A  
HETATM   24  C   UNL     1     -11.359   7.963  71.660  1.00  0.00    -0.299 A  
HETATM   25  C   UNL     1     -11.147   6.751  72.322  1.00  0.00    -0.286 A  
HETATM   26  C   UNL     1     -13.756   7.625  71.741  1.00  0.00    -0.408 A  
HETATM   27  C   UNL     1     -12.247   5.959  72.692  1.00  0.00     0.036 A  
HETATM   28  C   UNL     1     -13.548   6.414  72.402  1.00  0.00     0.420 A  
HETATM   29  C   UNL     1     -12.111   4.642  73.407  1.00  0.00     0.352 C  
BRANCH  25  30
HETATM   30  C   UNL     1      -9.793   6.345  72.576  1.00  0.00    -0.175 C  
HETATM   31  C   UNL     1      -8.674   5.959  72.778  1.00  0.00    -0.125 C  
BRANCH  31  32
HETATM   32  C   UNL     1      -7.398   5.388  73.035  1.00  0.00    -0.092 A  
HETATM   33  C   UNL     1      -6.171   5.988  72.860  1.00  0.00    -0.057 A  
HETATM   34  N   UNL     1      -5.143   5.148  73.215  1.00  0.00    -0.009 NA 
HETATM   35  C   UNL     1      -5.737   4.040  73.609  1.00  0.00    -0.004 A  
HETATM   36  C   UNL     1      -5.192   2.829  74.088  1.00  0.00     0.000 A  
HETATM   37  C   UNL     1      -6.013   1.831  74.432  1.00  0.00    -0.004 A  
HETATM   38  C   UNL     1      -7.471   2.071  74.281  1.00  0.00    -0.033 A  
HETATM   39  N   UNL     1      -8.029   3.156  73.850  1.00  0.00    -0.068 NA 
HETATM   40  N   UNL     1      -7.121   4.130  73.519  1.00  0.00    -0.063 NA 
ENDBRANCH  31  32
ENDBRANCH  25  30
ENDBRANCH  21  23
ENDBRANCH  12  19
ENDBRANCH   8   9
ENDBRANCH   5   8
TORSDOF 6
ENDMDL
MODEL       92
REMARK 921   NORMALIZED FREE ENERGY PREDICTED BY IDOCK:    2.90 KCAL/MOL
REMARK 922        TOTAL FREE ENERGY PREDICTED BY IDOCK:    2.61 KCAL/MOL
REMARK 923 INTER-LIGAND FREE ENERGY PREDICTED BY IDOCK:    2.93 KCAL/MOL
REMARK 924 INTRA-LIGAND FREE ENERGY PREDICTED BY IDOCK:   -0.33 KCAL/MOL
REMARK 927      BINDING AFFINITY PREDICTED BY RF-SCORE:    0.00 PKD
ROOT
HETATM    1  C   UNL     1     -11.636  20.904  69.058  1.00  0.00     3.058 C  
HETATM    2  N   UNL     1     -11.644  19.843  68.051  1.00  0.00     1.215 NA 
HETATM    3  C   UNL     1     -11.370  20.388  66.705  1.00  0.00     1.614 C  
HETATM    4  C   UNL     1      -9.888  20.739  66.433  1.00  0.00     0.222 C  
HETATM    5  N   UNL     1      -8.935  19.651  66.727  1.00  0.00    -0.335 NA 
HETATM    6  C   UNL     1     -10.661  18.795  68.391  1.00  0.00    -0.070 C  
HETATM    7  C   UNL     1      -9.183  19.171  68.105  1.00  0.00    -0.327 C  
ENDROOT
BRANCH   5   8
HETATM    8  C   UNL     1      -9.035  18.519  65.798  1.00  0.00     0.473 C  
BRANCH   8   9
HETATM    9  C   UNL     1      -8.499  17.214  66.340  1.00  0.00    -0.307 A  
HETATM   10  C   UNL     1      -9.444  16.272  66.777  1.00  0.00    -0.253 A  
HETATM   11  C   UNL     1      -9.054  15.090  67.396  1.00  0.00    -0.194 A  
HETATM   12  C   UNL     1      -7.708  14.812  67.605  1.00  0.00    -0.182 A  
HETATM   13  C   UNL     1      -6.755  15.706  67.100  1.00  0.00    -0.080 A  
HETATM   14  F   UNL     1      -5.239  17.245  65.040  1.00  0.00     0.249 F  
HETATM   15  C   UNL     1      -7.128  16.919  66.468  1.00  0.00    -0.281 A  
HETATM   16  F   UNL     1      -6.360  19.046  65.517  1.00  0.00    -0.216 F  
HETATM   17  C   UNL     1      -6.008  17.830  66.004  1.00  0.00    -0.206 C  
HETATM   18  F   UNL     1      -5.144  18.106  67.029  1.00  0.00    -0.118 F  
BRANCH  12  19
HETATM   19  N   UNL     1      -7.259  13.693  68.345  1.00  0.00    -0.099 N  
HETATM   20  O   UNL     1      -7.416  12.010  66.733  1.00  0.00    -0.092 OA 
HETATM   21  C   UNL     1      -7.178  12.392  67.872  1.00  0.00    -0.110 C  
HETATM   22  H   UNL     1      -6.968  13.858  69.309  1.00  0.00     0.000 HD 
BRANCH  21  23
HETATM   23  C   UNL     1      -6.810  11.352  68.865  1.00  0.00    -0.089 A  
HETATM   24  C   UNL     1      -6.889  10.011  68.463  1.00  0.00    -0.054 A  
HETATM   25  C   UNL     1      -6.532   8.981  69.336  1.00  0.00    -0.044 A  
HETATM   26  C   UNL     1      -6.353  11.668  70.146  1.00  0.00    -0.060 A  
HETATM   27  C   UNL     1      -6.088   9.291  70.633  1.00  0.00    -0.056 A  
HETATM   28  C   UNL     1      -5.996  10.642  71.021  1.00  0.00     0.072 A  
HETATM   29  C   UNL     1      -5.683   8.247  71.637  1.00  0.00    -0.037 C  
BRANCH  25  30
HETATM   30  C   UNL     1      -6.661   7.626  68.876  1.00  0.00    -0.049 C  
HETATM   31  C   UNL     1      -6.815   6.504  68.479  1.00  0.00    -0.071 C  
BRANCH  31  32
HETATM   32  C   UNL     1      -7.121   5.192  68.025  1.00  0.00    -0.063 A  
HETATM   33  C   UNL     1      -7.276   4.062  68.797  1.00  0.00    -0.055 A  
HETATM   34  N   UNL     1      -7.575   2.963  68.029  1.00  0.00    -0.056 NA 
HETATM   35  C   UNL     1      -7.607   3.417  66.794  1.00  0.00    -0.076 A  
HETATM   36  C   UNL     1      -7.868   2.746  65.578  1.00  0.00    -0.078 A  
HETATM   37  C   UNL     1      -7.843   3.435  64.432  1.00  0.00    -0.082 A  
HETATM   38  C   UNL     1      -7.536   4.885  64.519  1.00  0.00    -0.077 A  
HETATM   39  N   UNL     1      -7.291   5.553  65.599  1.00  0.00    -0.072 NA 
HETATM   40  N   UNL     1      -7.335   4.778  66.731  1.00  0.00    -0.080 NA 
ENDBRANCH  31  32
ENDBRANCH  25  30
ENDBRANCH  21  23
ENDBRANCH  12  19
ENDBRANCH   8   9
ENDBRANCH   5   8
TORSDOF 6
ENDMDL
MODEL       93
REMARK 921   NORMALIZED FREE ENERGY PREDICTED BY IDOCK:    5.81 KCAL/MOL
REMARK 922        TOTAL FREE ENERGY PREDICTED BY IDOCK:    6.54 KCAL/MOL
REMARK 923 INTER-LIGAND FREE ENERGY PREDICTED BY IDOCK:    5.19 KCAL/MOL
REMARK 924 INTRA-LIGAND FREE ENERGY PREDICTED BY IDOCK:    1.35 KCAL/MOL
REMARK 927      BINDING AFFINITY PREDICTED BY RF-SCORE:    0.00 PKD
ROOT
HETATM    1  C   UNL     1      -9.562  19.685  71.358  1.00  0.00     2.777 C  
HETATM    2  N   UNL     1     -10.055  18.974  70.179  1.00  0.00     0.780 NA 
HETATM    3  C   UNL     1     -10.733  19.900  69.247  1.00  0.00     0.699 C  
HETATM    4  C   UNL     1      -9.786  20.790  68.409  1.00  0.00     0.400 C  
HETATM    5  N   UNL     1      -8.728  20.054  67.688  1.00  0.00    -0.329 NA 
HETATM    6  C   UNL     1      -8.951  18.272  69.494  1.00  0.00     0.650 C  
HETATM    7  C   UNL     1      -8.018  19.187  68.657  1.00  0.00    -0.363 C  
ENDROOT
BRANCH   5   8
HETATM    8  C   UNL     1      -9.236  19.228  66.587  1.00  0.00    -0.338 C  
BRANCH   8   9
HETATM    9  C   UNL     1      -8.938  17.752  66.719  1.00  0.00    -0.272 A  
HETATM   10  C   UNL     1      -9.999  16.924  67.118  1.00  0.00    -0.276 A  
HETATM   11  C   UNL     1      -9.803  15.572  67.379  1.00  0.00    -0.224 A  
HETATM   12  C   UNL     1      -8.539  15.005  67.258  1.00  0.00    -0.206 A  
HETATM   13  C   UNL     1      -7.491  15.804  66.781  1.00  0.00    -0.135 A  
HETATM   14  F   UNL     1      -5.980  17.503  64.849  1.00  0.00     0.213 F  
HETATM   15  C   UNL     1      -7.667  17.185  66.511  1.00  0.00    -0.321 A  
HETATM   16  F   UNL     1      -6.581  19.302  65.912  1.00  0.00    -0.202 F  
HETATM   17  C   UNL     1      -6.448  17.958  66.046  1.00  0.00    -0.263 C  
HETATM   18  F   UNL     1      -5.405  17.802  66.919  1.00  0.00    -0.131 F  
BRANCH  12  19
HETATM   19  N   UNL     1      -8.253  13.673  67.636  1.00  0.00    -0.164 N  
HETATM   20  O   UNL     1      -9.302  12.493  65.914  1.00  0.00    -0.164 OA 
HETATM   21  C   UNL     1      -8.676  12.535  66.966  1.00  0.00    -0.205 C  
HETATM   22  H   UNL     1      -7.687  13.538  68.474  1.00  0.00     0.000 HD 
BRANCH  21  23
HETATM   23  C   UNL     1      -8.376  11.236  67.620  1.00  0.00    -0.123 A  
HETATM   24  C   UNL     1      -8.419  10.082  66.825  1.00  0.00    -0.125 A  
HETATM   25  C   UNL     1      -8.122   8.829  67.368  1.00  0.00    -0.105 A  
HETATM   26  C   UNL     1      -8.015  11.140  68.966  1.00  0.00    -0.087 A  
HETATM   27  C   UNL     1      -7.776   8.724  68.725  1.00  0.00    -0.097 A  
HETATM   28  C   UNL     1      -7.718   9.891  69.511  1.00  0.00    -0.135 A  
HETATM   29  C   UNL     1      -7.439   7.417  69.391  1.00  0.00    -0.091 C  
BRANCH  25  30
HETATM   30  C   UNL     1      -8.210   7.680  66.510  1.00  0.00    -0.125 C  
HETATM   31  C   UNL     1      -8.308   6.695  65.830  1.00  0.00    -0.143 C  
BRANCH  31  32
HETATM   32  C   UNL     1      -8.434   5.464  65.130  1.00  0.00    -0.150 A  
HETATM   33  C   UNL     1      -7.476   4.846  64.360  1.00  0.00    -0.068 A  
HETATM   34  N   UNL     1      -7.936   3.663  63.835  1.00  0.00    -0.084 NA 
HETATM   35  C   UNL     1      -9.169   3.554  64.284  1.00  0.00    -0.131 A  
HETATM   36  C   UNL     1     -10.134   2.544  64.078  1.00  0.00    -0.089 A  
HETATM   37  C   UNL     1     -11.337   2.660  64.650  1.00  0.00     2.217 A  
HETATM   38  C   UNL     1     -11.580   3.868  65.478  1.00  0.00     2.989 A  
HETATM   39  N   UNL     1     -10.738   4.824  65.704  1.00  0.00    -0.235 NA 
HETATM   40  N   UNL     1      -9.529   4.633  65.084  1.00  0.00    -0.157 NA 
ENDBRANCH  31  32
ENDBRANCH  25  30
ENDBRANCH  21  23
ENDBRANCH  12  19
ENDBRANCH   8   9
ENDBRANCH   5   8
TORSDOF 6
ENDMDL
MODEL       94
REMARK 921   NORMALIZED FREE ENERGY PREDICTED BY IDOCK:    5.99 KCAL/MOL
REMARK 922        TOTAL FREE ENERGY PREDICTED BY IDOCK:    6.77 KCAL/MOL
REMARK 923 INTER-LIGAND FREE ENERGY PREDICTED BY IDOCK:    6.15 KCAL/MOL
REMARK 924 INTRA-LIGAND FREE ENERGY PREDICTED BY IDOCK:    0.63 KCAL/MOL
REMARK 927      BINDING AFFINITY PREDICTED BY RF-SCORE:    0.00 PKD
ROOT
HETATM    1  C   UNL     1     -11.344   4.889  65.352  1.00  0.00     0.558 C  
HETATM    2  N   UNL     1     -10.117   5.022  66.136  1.00  0.00    -0.219 NA 
HETATM    3  C   UNL     1     -10.170   6.216  67.006  1.00  0.00    -0.202 C  
HETATM    4  C   UNL     1     -11.050   6.064  68.269  1.00  0.00    -0.160 C  
HETATM    5  N   UNL     1     -10.750   4.873  69.087  1.00  0.00     0.263 NA 
HETATM    6  C   UNL     1      -9.880   3.809  66.944  1.00  0.00    -0.005 C  
HETATM    7  C   UNL     1     -10.772   3.682  68.206  1.00  0.00     2.989 C  
ENDROOT
BRANCH   5   8
HETATM    8  C   UNL     1      -9.452   4.942  69.768  1.00  0.00    -0.154 C  
BRANCH   8   9
HETATM    9  C   UNL     1      -8.718   6.251  69.590  1.00  0.00    -0.136 A  
HETATM   10  C   UNL     1      -9.348   7.404  70.087  1.00  0.00    -0.158 A  
HETATM   11  C   UNL     1      -8.812   8.669  69.874  1.00  0.00    -0.144 A  
HETATM   12  C   UNL     1      -7.634   8.825  69.152  1.00  0.00    -0.088 A  
HETATM   13  C   UNL     1      -6.955   7.677  68.724  1.00  0.00    -0.071 A  
HETATM   14  F   UNL     1      -5.459   5.107  68.971  1.00  0.00    -0.006 F  
HETATM   15  C   UNL     1      -7.483   6.377  68.927  1.00  0.00    -0.088 A  
HETATM   16  F   UNL     1      -7.246   3.981  68.455  1.00  0.00    -0.052 F  
HETATM   17  C   UNL     1      -6.682   5.212  68.376  1.00  0.00    -0.054 C  
HETATM   18  F   UNL     1      -6.417   5.385  67.045  1.00  0.00    -0.038 F  
BRANCH  12  19
HETATM   19  N   UNL     1      -7.115  10.090  68.791  1.00  0.00    -0.069 N  
HETATM   20  O   UNL     1      -7.902  11.407  70.553  1.00  0.00     1.619 OA 
HETATM   21  C   UNL     1      -7.310  11.273  69.488  1.00  0.00     0.032 C  
HETATM   22  H   UNL     1      -6.547  10.136  67.944  1.00  0.00     0.000 HD 
BRANCH  21  23
HETATM   23  C   UNL     1      -6.788  12.508  68.851  1.00  0.00    -0.098 A  
HETATM   24  C   UNL     1      -7.534  13.685  69.004  1.00  0.00     0.021 A  
HETATM   25  C   UNL     1      -7.089  14.890  68.454  1.00  0.00    -0.113 A  
HETATM   26  C   UNL     1      -5.576  12.538  68.157  1.00  0.00    -0.068 A  
HETATM   27  C   UNL     1      -5.880  14.923  67.740  1.00  0.00    -0.112 A  
HETATM   28  C   UNL     1      -5.129  13.739  67.606  1.00  0.00     0.073 A  
HETATM   29  C   UNL     1      -5.325  16.175  67.116  1.00  0.00     0.030 C  
BRANCH  25  30
HETATM   30  C   UNL     1      -7.911  16.056  68.620  1.00  0.00    -0.179 C  
HETATM   31  C   UNL     1      -8.601  17.035  68.710  1.00  0.00    -0.238 C  
BRANCH  31  32
HETATM   32  C   UNL     1      -9.378  18.225  68.701  1.00  0.00    -0.303 A  
HETATM   33  C   UNL     1      -9.689  19.020  69.781  1.00  0.00     0.466 A  
HETATM   34  N   UNL     1     -10.455  20.098  69.410  1.00  0.00     0.019 NA 
HETATM   35  C   UNL     1     -10.610  19.967  68.109  1.00  0.00    -0.217 A  
HETATM   36  C   UNL     1     -11.303  20.777  67.182  1.00  0.00     2.662 A  
HETATM   37  C   UNL     1     -11.317  20.430  65.890  1.00  0.00     1.218 A  
HETATM   38  C   UNL     1     -10.591  19.190  65.514  1.00  0.00    -0.070 A  
HETATM   39  N   UNL     1      -9.940  18.410  66.315  1.00  0.00    -0.435 NA 
HETATM   40  N   UNL     1      -9.972  18.833  67.620  1.00  0.00    -0.329 NA 
ENDBRANCH  31  32
ENDBRANCH  25  30
ENDBRANCH  21  23
ENDBRANCH  12  19
ENDBRANCH   8   9
ENDBRANCH   5   8
TORSDOF 6
ENDMDL
MODEL       95
REMARK 921   NORMALIZED FREE ENERGY PREDICTED BY IDOCK:    6.53 KCAL/MOL
REMARK 922        TOTAL FREE ENERGY PREDICTED BY IDOCK:    7.50 KCAL/MOL
REMARK 923 INTER-LIGAND FREE ENERGY PREDICTED BY IDOCK:    5.55 KCAL/MOL
REMARK 924 INTRA-LIGAND FREE ENERGY PREDICTED BY IDOCK:    1.96 KCAL/MOL
REMARK 927      BINDING AFFINITY PREDICTED BY RF-SCORE:    0.00 PKD
ROOT
HETATM    1  C   UNL     1     -10.201  20.756  64.208  1.00  0.00     3.396 C  
HETATM    2  N   UNL     1     -10.756  19.484  64.668  1.00  0.00     0.658 NA 
HETATM    3  C   UNL     1      -9.707  18.635  65.271  1.00  0.00     1.539 C  
HETATM    4  C   UNL     1      -9.273  19.048  66.697  1.00  0.00    -0.329 C  
HETATM    5  N   UNL     1     -10.385  19.210  67.654  1.00  0.00    -0.403 NA 
HETATM    6  C   UNL     1     -11.851  19.711  65.633  1.00  0.00     2.755 C  
HETATM    7  C   UNL     1     -11.389  20.121  67.057  1.00  0.00     0.925 C  
ENDROOT
BRANCH   5   8
HETATM    8  C   UNL     1     -11.038  17.946  68.014  1.00  0.00     0.137 C  
BRANCH   8   9
HETATM    9  C   UNL     1     -10.318  16.708  67.530  1.00  0.00    -0.294 A  
HETATM   10  C   UNL     1     -10.291  16.491  66.143  1.00  0.00    -0.344 A  
HETATM   11  C   UNL     1      -9.755  15.327  65.604  1.00  0.00    -0.360 A  
HETATM   12  C   UNL     1      -9.234  14.338  66.432  1.00  0.00    -0.199 A  
HETATM   13  C   UNL     1      -9.181  14.582  67.811  1.00  0.00    -0.194 A  
HETATM   14  F   UNL     1      -8.364  15.937  70.341  1.00  0.00     0.508 F  
HETATM   15  C   UNL     1      -9.724  15.759  68.384  1.00  0.00    -0.203 A  
HETATM   16  F   UNL     1     -10.284  16.952  70.454  1.00  0.00     0.185 F  
HETATM   17  C   UNL     1      -9.652  15.890  69.893  1.00  0.00     0.046 C  
HETATM   18  F   UNL     1     -10.203  14.798  70.507  1.00  0.00    -0.002 F  
BRANCH  12  19
HETATM   19  N   UNL     1      -8.798  13.081  65.952  1.00  0.00    -0.147 N  
HETATM   20  O   UNL     1     -10.746  11.816  66.204  1.00  0.00    -0.257 OA 
HETATM   21  C   UNL     1      -9.564  11.926  65.905  1.00  0.00    -0.231 C  
HETATM   22  H   UNL     1      -7.839  13.020  65.611  1.00  0.00     0.000 HD 
BRANCH  21  23
HETATM   23  C   UNL     1      -8.859  10.686  65.492  1.00  0.00    -0.202 A  
HETATM   24  C   UNL     1      -8.664   9.694  66.465  1.00  0.00    -0.147 A  
HETATM   25  C   UNL     1      -8.033   8.491  66.141  1.00  0.00    -0.102 A  
HETATM   26  C   UNL     1      -8.435  10.466  64.180  1.00  0.00    -0.163 A  
HETATM   27  C   UNL     1      -7.588   8.271  64.826  1.00  0.00    -0.103 A  
HETATM   28  C   UNL     1      -7.804   9.265  63.853  1.00  0.00    -0.130 A  
HETATM   29  C   UNL     1      -6.901   7.005  64.390  1.00  0.00    -0.047 C  
BRANCH  25  30
HETATM   30  C   UNL     1      -7.836   7.525  67.186  1.00  0.00    -0.117 C  
HETATM   31  C   UNL     1      -7.681   6.753  68.092  1.00  0.00    -0.109 C  
BRANCH  31  32
HETATM   32  C   UNL     1      -7.470   5.938  69.238  1.00  0.00    -0.084 A  
HETATM   33  C   UNL     1      -6.462   6.060  70.168  1.00  0.00    -0.039 A  
HETATM   34  N   UNL     1      -6.565   5.106  71.152  1.00  0.00    -0.037 NA 
HETATM   35  C   UNL     1      -7.633   4.407  70.829  1.00  0.00    -0.052 A  
HETATM   36  C   UNL     1      -8.232   3.300  71.471  1.00  0.00    -0.068 A  
HETATM   37  C   UNL     1      -9.331   2.752  70.942  1.00  0.00    -0.219 A  
HETATM   38  C   UNL     1      -9.854   3.355  69.690  1.00  0.00     0.198 A  
HETATM   39  N   UNL     1      -9.352   4.366  69.058  1.00  0.00    -0.141 NA 
HETATM   40  N   UNL     1      -8.228   4.872  69.662  1.00  0.00    -0.079 NA 
ENDBRANCH  31  32
ENDBRANCH  25  30
ENDBRANCH  21  23
ENDBRANCH  12  19
ENDBRANCH   8   9
ENDBRANCH   5   8
TORSDOF 6
ENDMDL
MODEL       96
REMARK 921   NORMALIZED FREE ENERGY PREDICTED BY IDOCK:    7.28 KCAL/MOL
REMARK 922        TOTAL FREE ENERGY PREDICTED BY IDOCK:    8.52 KCAL/MOL
REMARK 923 INTER-LIGAND FREE ENERGY PREDICTED BY IDOCK:    8.47 KCAL/MOL
REMARK 924 INTRA-LIGAND FREE ENERGY PREDICTED BY IDOCK:    0.05 KCAL/MOL
REMARK 927      BINDING AFFINITY PREDICTED BY RF-SCORE:    0.00 PKD
ROOT
HETATM    1  C   UNL     1     -12.804  18.017  69.106  1.00  0.00    10.714 C  
HETATM    2  N   UNL     1     -11.356  17.815  69.065  1.00  0.00     1.120 NA 
HETATM    3  C   UNL     1     -11.021  16.493  68.496  1.00  0.00    -0.350 C  
HETATM    4  C   UNL     1     -11.155  16.393  66.959  1.00  0.00     0.067 C  
HETATM    5  N   UNL     1     -10.441  17.446  66.210  1.00  0.00    -0.315 NA 
HETATM    6  C   UNL     1     -10.702  18.889  68.291  1.00  0.00    -0.012 C  
HETATM    7  C   UNL     1     -10.848  18.763  66.752  1.00  0.00    -0.180 C  
ENDROOT
BRANCH   5   8
HETATM    8  C   UNL     1      -8.980  17.328  66.281  1.00  0.00    -0.217 C  
BRANCH   8   9
HETATM    9  C   UNL     1      -8.483  16.025  66.863  1.00  0.00    -0.275 A  
HETATM   10  C   UNL     1      -8.806  14.852  66.161  1.00  0.00     0.014 A  
HETATM   11  C   UNL     1      -8.496  13.596  66.669  1.00  0.00     0.138 A  
HETATM   12  C   UNL     1      -7.859  13.469  67.899  1.00  0.00    -0.159 A  
HETATM   13  C   UNL     1      -7.459  14.634  68.568  1.00  0.00    -0.120 A  
HETATM   14  F   UNL     1      -5.967  17.178  69.019  1.00  0.00    -0.148 F  
HETATM   15  C   UNL     1      -7.767  15.925  68.070  1.00  0.00    -0.139 A  
HETATM   16  F   UNL     1      -7.729  18.341  68.499  1.00  0.00    -0.265 F  
HETATM   17  C   UNL     1      -7.324  17.111  68.906  1.00  0.00    -0.241 C  
HETATM   18  F   UNL     1      -7.783  17.005  70.190  1.00  0.00     0.698 F  
BRANCH  12  19
HETATM   19  N   UNL     1      -7.638  12.221  68.526  1.00  0.00    -0.120 N  
HETATM   20  O   UNL     1      -5.319  12.274  68.802  1.00  0.00    -0.050 OA 
HETATM   21  C   UNL     1      -6.403  11.711  68.896  1.00  0.00    -0.062 C  
HETATM   22  H   UNL     1      -8.458  11.647  68.724  1.00  0.00     0.000 HD 
BRANCH  21  23
HETATM   23  C   UNL     1      -6.393  10.319  69.414  1.00  0.00    -0.050 A  
HETATM   24  C   UNL     1      -7.135   9.359  68.711  1.00  0.00    -0.069 A  
HETATM   25  C   UNL     1      -7.149   8.024  69.125  1.00  0.00    -0.068 A  
HETATM   26  C   UNL     1      -5.646   9.940  70.530  1.00  0.00    -0.056 A  
HETATM   27  C   UNL     1      -6.413   7.640  70.259  1.00  0.00    -0.038 A  
HETATM   28  C   UNL     1      -5.658   8.609  70.947  1.00  0.00    -0.032 A  
HETATM   29  C   UNL     1      -6.371   6.227  70.774  1.00  0.00    -0.040 C  
BRANCH  25  30
HETATM   30  C   UNL     1      -7.949   7.092  68.382  1.00  0.00    -0.123 C  
HETATM   31  C   UNL     1      -8.601   6.331  67.718  1.00  0.00    -0.115 C  
BRANCH  31  32
HETATM   32  C   UNL     1      -9.361   5.513  66.839  1.00  0.00    -0.127 A  
HETATM   33  C   UNL     1     -10.719   5.572  66.618  1.00  0.00    -0.261 A  
HETATM   34  N   UNL     1     -11.121   4.635  65.697  1.00  0.00     0.003 NA 
HETATM   35  C   UNL     1     -10.015   4.009  65.352  1.00  0.00    -0.179 A  
HETATM   36  C   UNL     1      -9.808   2.952  64.438  1.00  0.00    -0.105 A  
HETATM   37  C   UNL     1      -8.572   2.476  64.256  1.00  0.00    -0.091 A  
HETATM   38  C   UNL     1      -7.481   3.104  65.043  1.00  0.00    -0.072 A  
HETATM   39  N   UNL     1      -7.608   4.073  65.891  1.00  0.00    -0.088 NA 
HETATM   40  N   UNL     1      -8.904   4.505  66.023  1.00  0.00    -0.117 NA 
ENDBRANCH  31  32
ENDBRANCH  25  30
ENDBRANCH  21  23
ENDBRANCH  12  19
ENDBRANCH   8   9
ENDBRANCH   5   8
TORSDOF 6
ENDMDL
MODEL       97
REMARK 921   NORMALIZED FREE ENERGY PREDICTED BY IDOCK:    7.52 KCAL/MOL
REMARK 922        TOTAL FREE ENERGY PREDICTED BY IDOCK:    8.85 KCAL/MOL
REMARK 923 INTER-LIGAND FREE ENERGY PREDICTED BY IDOCK:    4.86 KCAL/MOL
REMARK 924 INTRA-LIGAND FREE ENERGY PREDICTED BY IDOCK:    3.99 KCAL/MOL
REMARK 927      BINDING AFFINITY PREDICTED BY RF-SCORE:    0.00 PKD
ROOT
HETATM    1  C   UNL     1      -7.269  14.793  65.769  1.00  0.00     5.981 C  
HETATM    2  N   UNL     1      -8.474  14.635  66.583  1.00  0.00    -0.114 NA 
HETATM    3  C   UNL     1      -8.689  15.815  67.447  1.00  0.00    -0.183 C  
HETATM    4  C   UNL     1      -9.250  17.060  66.722  1.00  0.00    -0.252 C  
HETATM    5  N   UNL     1     -10.464  16.810  65.921  1.00  0.00    -0.368 NA 
HETATM    6  C   UNL     1      -9.655  14.404  65.727  1.00  0.00    -0.181 C  
HETATM    7  C   UNL     1     -10.200  15.669  65.014  1.00  0.00    -0.167 C  
ENDROOT
BRANCH   5   8
HETATM    8  C   UNL     1     -11.650  16.513  66.733  1.00  0.00     0.918 C  
BRANCH   8   9
HETATM    9  C   UNL     1     -11.754  15.077  67.192  1.00  0.00    -0.227 A  
HETATM   10  C   UNL     1     -11.184  14.766  68.437  1.00  0.00    -0.298 A  
HETATM   11  C   UNL     1     -11.124  13.456  68.898  1.00  0.00    -0.307 A  
HETATM   12  C   UNL     1     -11.626  12.412  68.128  1.00  0.00    -0.341 A  
HETATM   13  C   UNL     1     -12.271  12.721  66.923  1.00  0.00    -0.109 A  
HETATM   14  F   UNL     1     -14.340  13.906  65.129  1.00  0.00     1.587 F  
HETATM   15  C   UNL     1     -12.341  14.049  66.431  1.00  0.00    -0.468 A  
HETATM   16  F   UNL     1     -12.976  15.501  64.558  1.00  0.00    -0.029 F  
HETATM   17  C   UNL     1     -13.021  14.254  65.091  1.00  0.00    -0.112 C  
HETATM   18  F   UNL     1     -12.469  13.450  64.132  1.00  0.00    -0.420 F  
BRANCH  12  19
HETATM   19  N   UNL     1     -11.475  11.051  68.483  1.00  0.00    -0.287 N  
HETATM   20  O   UNL     1     -11.210  11.229  70.798  1.00  0.00     0.252 OA 
HETATM   21  C   UNL     1     -11.250  10.572  69.765  1.00  0.00    -0.298 C  
HETATM   22  H   UNL     1     -11.537  10.364  67.732  1.00  0.00     0.000 HD 
BRANCH  21  23
HETATM   23  C   UNL     1     -10.983   9.116  69.885  1.00  0.00    -0.218 A  
HETATM   24  C   UNL     1     -10.687   8.410  68.711  1.00  0.00    -0.086 A  
HETATM   25  C   UNL     1     -10.399   7.043  68.753  1.00  0.00    -0.196 A  
HETATM   26  C   UNL     1     -10.974   8.455  71.115  1.00  0.00    -0.292 A  
HETATM   27  C   UNL     1     -10.406   6.369  69.985  1.00  0.00    -0.245 A  
HETATM   28  C   UNL     1     -10.687   7.091  71.161  1.00  0.00    -0.253 A  
HETATM   29  C   UNL     1     -10.106   4.900  70.123  1.00  0.00    -0.332 C  
BRANCH  25  30
HETATM   30  C   UNL     1     -10.131   6.368  67.514  1.00  0.00    -0.190 C  
HETATM   31  C   UNL     1      -9.891   5.846  66.459  1.00  0.00    -0.189 C  
BRANCH  31  32
HETATM   32  C   UNL     1      -9.617   5.342  65.158  1.00  0.00     0.284 A  
HETATM   33  C   UNL     1      -8.887   5.959  64.167  1.00  0.00     0.390 A  
HETATM   34  N   UNL     1      -8.816   5.183  63.036  1.00  0.00    -0.060 NA 
HETATM   35  C   UNL     1      -9.495   4.095  63.333  1.00  0.00    -0.139 A  
HETATM   36  C   UNL     1      -9.763   2.943  62.561  1.00  0.00    -0.092 A  
HETATM   37  C   UNL     1     -10.489   1.953  63.091  1.00  0.00    -0.142 A  
HETATM   38  C   UNL     1     -10.975   2.140  64.482  1.00  0.00     1.207 A  
HETATM   39  N   UNL     1     -10.762   3.169  65.237  1.00  0.00     1.028 NA 
HETATM   40  N   UNL     1     -10.011   4.138  64.622  1.00  0.00    -0.186 NA 
ENDBRANCH  31  32
ENDBRANCH  25  30
ENDBRANCH  21  23
ENDBRANCH  12  19
ENDBRANCH   8   9
ENDBRANCH   5   8
TORSDOF 6
ENDMDL
MODEL       98
REMARK 921   NORMALIZED FREE ENERGY PREDICTED BY IDOCK:    7.62 KCAL/MOL
REMARK 922        TOTAL FREE ENERGY PREDICTED BY IDOCK:    8.98 KCAL/MOL
REMARK 923 INTER-LIGAND FREE ENERGY PREDICTED BY IDOCK:    5.27 KCAL/MOL
REMARK 924 INTRA-LIGAND FREE ENERGY PREDICTED BY IDOCK:    3.71 KCAL/MOL
REMARK 927      BINDING AFFINITY PREDICTED BY RF-SCORE:    0.00 PKD
ROOT
HETATM    1  C   UNL     1     -12.002   7.693  66.193  1.00  0.00     6.911 C  
HETATM    2  N   UNL     1     -10.961   8.479  66.853  1.00  0.00     0.103 NA 
HETATM    3  C   UNL     1     -10.762   8.030  68.248  1.00  0.00    -0.023 C  
HETATM    4  C   UNL     1      -9.970   6.711  68.401  1.00  0.00    -0.145 C  
HETATM    5  N   UNL     1      -8.678   6.683  67.687  1.00  0.00    -0.119 NA 
HETATM    6  C   UNL     1      -9.692   8.399  66.102  1.00  0.00    -0.153 C  
HETATM    7  C   UNL     1      -8.915   7.067  66.276  1.00  0.00    -0.151 C  
ENDROOT
BRANCH   5   8
HETATM    8  C   UNL     1      -7.669   7.578  68.265  1.00  0.00    -0.120 C  
BRANCH   8   9
HETATM    9  C   UNL     1      -7.923   9.049  68.026  1.00  0.00    -0.101 A  
HETATM   10  C   UNL     1      -8.780   9.699  68.928  1.00  0.00    -0.132 A  
HETATM   11  C   UNL     1      -9.168  11.020  68.731  1.00  0.00    -0.167 A  
HETATM   12  C   UNL     1      -8.719  11.732  67.625  1.00  0.00    -0.159 A  
HETATM   13  C   UNL     1      -7.799  11.119  66.764  1.00  0.00    -0.153 A  
HETATM   14  F   UNL     1      -5.230   9.854  65.926  1.00  0.00    -0.036 F  
HETATM   15  C   UNL     1      -7.391   9.773  66.942  1.00  0.00    -0.091 A  
HETATM   16  F   UNL     1      -6.137   7.879  66.013  1.00  0.00    -0.036 F  
HETATM   17  C   UNL     1      -6.428   9.202  65.919  1.00  0.00    -0.061 C  
HETATM   18  F   UNL     1      -6.911   9.359  64.649  1.00  0.00    -0.087 F  
BRANCH  12  19
HETATM   19  N   UNL     1      -9.184  13.028  67.303  1.00  0.00    -0.205 N  
HETATM   20  O   UNL     1     -11.367  12.555  66.618  1.00  0.00    -0.296 OA 
HETATM   21  C   UNL     1     -10.440  13.335  66.801  1.00  0.00    -0.270 C  
HETATM   22  H   UNL     1      -8.539  13.805  67.452  1.00  0.00     0.000 HD 
BRANCH  21  23
HETATM   23  C   UNL     1     -10.663  14.748  66.403  1.00  0.00    -0.313 A  
HETATM   24  C   UNL     1      -9.687  15.687  66.765  1.00  0.00    -0.255 A  
HETATM   25  C   UNL     1      -9.818  17.029  66.399  1.00  0.00    -0.312 A  
HETATM   26  C   UNL     1     -11.771  15.149  65.654  1.00  0.00    -0.036 A  
HETATM   27  C   UNL     1     -10.940  17.443  65.661  1.00  0.00     0.143 A  
HETATM   28  C   UNL     1     -11.905  16.488  65.288  1.00  0.00     1.191 A  
HETATM   29  C   UNL     1     -11.160  18.866  65.225  1.00  0.00     0.819 C  
BRANCH  25  30
HETATM   30  C   UNL     1      -8.800  17.950  66.823  1.00  0.00    -0.271 C  
HETATM   31  C   UNL     1      -7.944  18.694  67.219  1.00  0.00    -0.245 C  
BRANCH  31  32
HETATM   32  C   UNL     1      -6.957  19.533  67.803  1.00  0.00    -0.242 A  
HETATM   33  C   UNL     1      -6.008  20.281  67.142  1.00  0.00    -0.175 A  
HETATM   34  N   UNL     1      -5.217  20.982  68.020  1.00  0.00    -0.261 NA 
HETATM   35  C   UNL     1      -5.681  20.669  69.212  1.00  0.00    -0.373 A  
HETATM   36  C   UNL     1      -5.266  21.088  70.495  1.00  0.00    -0.201 A  
HETATM   37  C   UNL     1      -5.905  20.624  71.574  1.00  0.00    -0.060 A  
HETATM   38  C   UNL     1      -7.027  19.680  71.343  1.00  0.00     1.158 A  
HETATM   39  N   UNL     1      -7.453  19.262  70.195  1.00  0.00     0.529 NA 
HETATM   40  N   UNL     1      -6.748  19.782  69.140  1.00  0.00    -0.337 NA 
ENDBRANCH  31  32
ENDBRANCH  25  30
ENDBRANCH  21  23
ENDBRANCH  12  19
ENDBRANCH   8   9
ENDBRANCH   5   8
TORSDOF 6
ENDMDL
MODEL       99
REMARK 921   NORMALIZED FREE ENERGY PREDICTED BY IDOCK:    9.76 KCAL/MOL
REMARK 922        TOTAL FREE ENERGY PREDICTED BY IDOCK:   11.87 KCAL/MOL
REMARK 923 INTER-LIGAND FREE ENERGY PREDICTED BY IDOCK:    6.03 KCAL/MOL
REMARK 924 INTRA-LIGAND FREE ENERGY PREDICTED BY IDOCK:    5.83 KCAL/MOL
REMARK 927      BINDING AFFINITY PREDICTED BY RF-SCORE:    0.00 PKD
ROOT
HETATM    1  C   UNL     1      -6.263  16.703  66.496  1.00  0.00     0.135 C  
HETATM    2  N   UNL     1      -7.270  15.685  66.197  1.00  0.00     0.957 NA 
HETATM    3  C   UNL     1      -8.106  15.403  67.383  1.00  0.00    -0.180 C  
HETATM    4  C   UNL     1      -9.174  16.477  67.697  1.00  0.00    -0.200 C  
HETATM    5  N   UNL     1     -10.041  16.833  66.557  1.00  0.00    -0.303 NA 
HETATM    6  C   UNL     1      -8.114  16.105  65.061  1.00  0.00     4.931 C  
HETATM    7  C   UNL     1      -9.180  17.179  65.403  1.00  0.00     1.033 C  
ENDROOT
BRANCH   5   8
HETATM    8  C   UNL     1     -10.962  15.759  66.164  1.00  0.00    -0.169 C  
BRANCH   8   9
HETATM    9  C   UNL     1     -10.855  14.503  66.998  1.00  0.00    -0.297 A  
HETATM   10  C   UNL     1      -9.748  14.404  67.856  1.00  0.00    -0.223 A  
HETATM   11  C   UNL     1      -9.496  13.244  68.580  1.00  0.00    -0.113 A  
HETATM   12  C   UNL     1     -10.336  12.143  68.465  1.00  0.00    -0.221 A  
HETATM   13  C   UNL     1     -11.488  12.260  67.675  1.00  0.00    -0.401 A  
HETATM   14  F   UNL     1     -14.149  13.307  66.821  1.00  0.00     4.790 F  
HETATM   15  C   UNL     1     -11.765  13.432  66.926  1.00  0.00    -0.434 A  
HETATM   16  F   UNL     1     -13.215  14.491  65.254  1.00  0.00    -0.371 F  
HETATM   17  C   UNL     1     -13.016  13.424  66.069  1.00  0.00     0.227 C  
HETATM   18  F   UNL     1     -13.031  12.343  65.231  1.00  0.00    -0.419 F  
BRANCH  12  19
HETATM   19  N   UNL     1     -10.058  10.895  69.071  1.00  0.00    -0.232 N  
HETATM   20  O   UNL     1     -12.183  10.299  69.840  1.00  0.00    -0.181 OA 
HETATM   21  C   UNL     1     -10.980  10.095  69.730  1.00  0.00    -0.280 C  
HETATM   22  H   UNL     1      -9.098  10.555  69.018  1.00  0.00     0.000 HD 
BRANCH  21  23
HETATM   23  C   UNL     1     -10.438   8.892  70.412  1.00  0.00    -0.245 A  
HETATM   24  C   UNL     1      -9.799   7.928  69.619  1.00  0.00    -0.179 A  
HETATM   25  C   UNL     1      -9.241   6.785  70.197  1.00  0.00    -0.155 A  
HETATM   26  C   UNL     1     -10.505   8.722  71.796  1.00  0.00    -0.417 A  
HETATM   27  C   UNL     1      -9.322   6.598  71.587  1.00  0.00    -0.149 A  
HETATM   28  C   UNL     1      -9.950   7.581  72.376  1.00  0.00    -0.233 A  
HETATM   29  C   UNL     1      -8.749   5.398  72.292  1.00  0.00    -0.129 C  
BRANCH  25  30
HETATM   30  C   UNL     1      -8.625   5.819  69.331  1.00  0.00    -0.111 C  
HETATM   31  C   UNL     1      -8.070   5.040  68.603  1.00  0.00    -0.085 C  
BRANCH  31  32
HETATM   32  C   UNL     1      -7.343   4.215  67.702  1.00  0.00    -0.068 A  
HETATM   33  C   UNL     1      -7.139   2.858  67.803  1.00  0.00    -0.049 A  
HETATM   34  N   UNL     1      -6.395   2.380  66.751  1.00  0.00    -0.024 NA 
HETATM   35  C   UNL     1      -6.148   3.439  66.008  1.00  0.00    -0.024 A  
HETATM   36  C   UNL     1      -5.429   3.561  64.798  1.00  0.00    -0.010 A  
HETATM   37  C   UNL     1      -5.314   4.764  64.223  1.00  0.00    -0.013 A  
HETATM   38  C   UNL     1      -5.962   5.909  64.912  1.00  0.00    -0.025 A  
HETATM   39  N   UNL     1      -6.632   5.858  66.018  1.00  0.00    -0.046 NA 
HETATM   40  N   UNL     1      -6.705   4.594  66.544  1.00  0.00    -0.050 NA 
ENDBRANCH  31  32
ENDBRANCH  25  30
ENDBRANCH  21  23
ENDBRANCH  12  19
ENDBRANCH   8   9
ENDBRANCH   5   8
TORSDOF 6
ENDMDL
MODEL      100
REMARK 921   NORMALIZED FREE ENERGY PREDICTED BY IDOCK:   10.19 KCAL/MOL
REMARK 922        TOTAL FREE ENERGY PREDICTED BY IDOCK:   12.45 KCAL/MOL
REMARK 923 INTER-LIGAND FREE ENERGY PREDICTED BY IDOCK:    9.97 KCAL/MOL
REMARK 924 INTRA-LIGAND FREE ENERGY PREDICTED BY IDOCK:    2.48 KCAL/MOL
REMARK 927      BINDING AFFINITY PREDICTED BY RF-SCORE:    0.00 PKD
ROOT
HETATM    1  C   UNL     1      -9.265  20.196  69.442  1.00  0.00     0.515 C  
HETATM    2  N   UNL     1     -10.377  19.322  69.069  1.00  0.00    -0.167 NA 
HETATM    3  C   UNL     1     -10.717  19.479  67.640  1.00  0.00    -0.401 C  
HETATM    4  C   UNL     1      -9.744  18.786  66.658  1.00  0.00    -0.344 C  
HETATM    5  N   UNL     1      -9.488  17.362  66.949  1.00  0.00    -0.261 NA 
HETATM    6  C   UNL     1     -10.055  17.912  69.369  1.00  0.00     0.009 C  
HETATM    7  C   UNL     1      -9.080  17.240  68.367  1.00  0.00    -0.265 C  
ENDROOT
BRANCH   5   8
HETATM    8  C   UNL     1     -10.649  16.497  66.707  1.00  0.00    -0.224 C  
BRANCH   8   9
HETATM    9  C   UNL     1     -10.308  15.048  66.446  1.00  0.00    -0.293 A  
HETATM   10  C   UNL     1     -11.292  14.098  66.764  1.00  0.00    -0.353 A  
HETATM   11  C   UNL     1     -11.038  12.734  66.670  1.00  0.00    -0.313 A  
HETATM   12  C   UNL     1      -9.791  12.274  66.262  1.00  0.00    -0.241 A  
HETATM   13  C   UNL     1      -8.830  13.213  65.864  1.00  0.00     0.636 A  
HETATM   14  F   UNL     1      -7.618  15.388  64.220  1.00  0.00     9.165 F  
HETATM   15  C   UNL     1      -9.065  14.608  65.954  1.00  0.00     0.117 A  
HETATM   16  F   UNL     1      -8.107  16.858  65.746  1.00  0.00    -0.311 F  
HETATM   17  C   UNL     1      -7.932  15.528  65.540  1.00  0.00     3.323 C  
HETATM   18  F   UNL     1      -6.782  15.223  66.214  1.00  0.00     0.975 F  
BRANCH  12  19
HETATM   19  N   UNL     1      -9.433  10.906  66.275  1.00  0.00    -0.188 N  
HETATM   20  O   UNL     1     -11.374   9.952  67.158  1.00  0.00    -0.028 OA 
HETATM   21  C   UNL     1     -10.224   9.868  66.744  1.00  0.00    -0.236 C  
HETATM   22  H   UNL     1      -8.513  10.661  65.907  1.00  0.00     0.000 HD 
BRANCH  21  23
HETATM   23  C   UNL     1      -9.591   8.526  66.790  1.00  0.00    -0.273 A  
HETATM   24  C   UNL     1      -9.137   8.063  68.033  1.00  0.00    -0.130 A  
HETATM   25  C   UNL     1      -8.556   6.799  68.155  1.00  0.00    -0.120 A  
HETATM   26  C   UNL     1      -9.481   7.711  65.662  1.00  0.00     0.330 A  
HETATM   27  C   UNL     1      -8.425   5.981  67.020  1.00  0.00    -0.108 A  
HETATM   28  C   UNL     1      -8.901   6.447  65.780  1.00  0.00    -0.111 A  
HETATM   29  C   UNL     1      -7.814   4.606  67.061  1.00  0.00    -0.098 C  
BRANCH  25  30
HETATM   30  C   UNL     1      -8.084   6.392  69.449  1.00  0.00    -0.118 C  
HETATM   31  C   UNL     1      -7.735   6.048  70.546  1.00  0.00    -0.101 C  
BRANCH  31  32
HETATM   32  C   UNL     1      -7.434   5.684  71.887  1.00  0.00    -0.095 A  
HETATM   33  C   UNL     1      -7.883   6.298  73.034  1.00  0.00    -0.103 A  
HETATM   34  N   UNL     1      -7.399   5.678  74.161  1.00  0.00    -0.089 NA 
HETATM   35  C   UNL     1      -6.660   4.688  73.707  1.00  0.00    -0.062 A  
HETATM   36  C   UNL     1      -5.914   3.709  74.400  1.00  0.00    -0.016 A  
HETATM   37  C   UNL     1      -5.233   2.791  73.706  1.00  0.00     0.000 A  
HETATM   38  C   UNL     1      -5.307   2.869  72.225  1.00  0.00     0.000 A  
HETATM   39  N   UNL     1      -5.972   3.739  71.535  1.00  0.00    -0.013 NA 
HETATM   40  N   UNL     1      -6.643   4.644  72.318  1.00  0.00    -0.036 NA 
ENDBRANCH  31  32
ENDBRANCH  25  30
ENDBRANCH  21  23
ENDBRANCH  12  19
ENDBRANCH   8   9
ENDBRANCH   5   8
TORSDOF 6
ENDMDL
MODEL      101
REMARK 921   NORMALIZED FREE ENERGY PREDICTED BY IDOCK:   11.32 KCAL/MOL
REMARK 922        TOTAL FREE ENERGY PREDICTED BY IDOCK:   13.99 KCAL/MOL
REMARK 923 INTER-LIGAND FREE ENERGY PREDICTED BY IDOCK:   13.93 KCAL/MOL
REMARK 924 INTRA-LIGAND FREE ENERGY PREDICTED BY IDOCK:    0.06 KCAL/MOL
REMARK 927      BINDING AFFINITY PREDICTED BY RF-SCORE:    0.00 PKD
ROOT
HETATM    1  C   UNL     1     -12.664  17.223  67.650  1.00  0.00     4.704 C  
HETATM    2  N   UNL     1     -11.217  17.014  67.694  1.00  0.00    -0.039 NA 
HETATM    3  C   UNL     1     -10.859  15.669  67.198  1.00  0.00    -0.297 C  
HETATM    4  C   UNL     1     -10.912  15.506  65.661  1.00  0.00    -0.303 C  
HETATM    5  N   UNL     1     -10.153  16.525  64.909  1.00  0.00    -0.087 NA 
HETATM    6  C   UNL     1     -10.516  18.053  66.912  1.00  0.00    -0.341 C  
HETATM    7  C   UNL     1     -10.580  17.864  65.374  1.00  0.00     0.116 C  
ENDROOT
BRANCH   5   8
HETATM    8  C   UNL     1      -8.699  16.404  65.063  1.00  0.00     3.075 C  
BRANCH   8   9
HETATM    9  C   UNL     1      -8.234  15.078  65.618  1.00  0.00     2.624 A  
HETATM   10  C   UNL     1      -8.800  13.922  65.057  1.00  0.00     2.720 A  
HETATM   11  C   UNL     1      -8.526  12.660  65.572  1.00  0.00     1.546 A  
HETATM   12  C   UNL     1      -7.684  12.511  66.668  1.00  0.00     0.320 A  
HETATM   13  C   UNL     1      -7.050  13.650  67.183  1.00  0.00     0.246 A  
HETATM   14  F   UNL     1      -5.252  16.031  67.203  1.00  0.00    -0.124 F  
HETATM   15  C   UNL     1      -7.315  14.947  66.676  1.00  0.00     0.953 A  
HETATM   16  F   UNL     1      -6.955  17.358  66.950  1.00  0.00    -0.167 F  
HETATM   17  C   UNL     1      -6.606  16.108  67.346  1.00  0.00    -0.185 C  
HETATM   18  F   UNL     1      -6.822  16.102  68.697  1.00  0.00    -0.116 F  
BRANCH  12  19
HETATM   19  N   UNL     1      -7.474  11.271  67.316  1.00  0.00    -0.119 N  
HETATM   20  O   UNL     1      -5.577  10.503  66.188  1.00  0.00    -0.060 OA 
HETATM   21  C   UNL     1      -6.473  10.360  67.011  1.00  0.00    -0.074 C  
HETATM   22  H   UNL     1      -8.114  11.026  68.072  1.00  0.00     0.000 HD 
BRANCH  21  23
HETATM   23  C   UNL     1      -6.527   9.060  67.726  1.00  0.00    -0.057 A  
HETATM   24  C   UNL     1      -7.746   8.689  68.311  1.00  0.00    -0.101 A  
HETATM   25  C   UNL     1      -7.877   7.467  68.976  1.00  0.00    -0.120 A  
HETATM   26  C   UNL     1      -5.433   8.196  67.791  1.00  0.00    -0.034 A  
HETATM   27  C   UNL     1      -6.774   6.600  69.060  1.00  0.00    -0.052 A  
HETATM   28  C   UNL     1      -5.559   6.975  68.455  1.00  0.00    -0.018 A  
HETATM   29  C   UNL     1      -6.826   5.267  69.755  1.00  0.00    -0.056 C  
BRANCH  25  30
HETATM   30  C   UNL     1      -9.142   7.155  69.578  1.00  0.00    -0.146 C  
HETATM   31  C   UNL     1     -10.205   6.940  70.096  1.00  0.00    -0.208 C  
BRANCH  31  32
HETATM   32  C   UNL     1     -11.442   6.789  70.779  1.00  0.00    -0.342 A  
HETATM   33  C   UNL     1     -12.064   5.607  71.115  1.00  0.00     1.138 A  
HETATM   34  N   UNL     1     -13.247   5.831  71.778  1.00  0.00     1.231 NA 
HETATM   35  C   UNL     1     -13.347   7.142  71.851  1.00  0.00    -0.205 A  
HETATM   36  C   UNL     1     -14.351   7.953  72.425  1.00  0.00    -0.206 A  
HETATM   37  C   UNL     1     -14.227   9.284  72.373  1.00  0.00    -0.258 A  
HETATM   38  C   UNL     1     -13.019   9.826  71.700  1.00  0.00    -0.419 A  
HETATM   39  N   UNL     1     -12.068   9.136  71.159  1.00  0.00    -0.299 NA 
HETATM   40  N   UNL     1     -12.268   7.782  71.253  1.00  0.00    -0.311 NA 
ENDBRANCH  31  32
ENDBRANCH  25  30
ENDBRANCH  21  23
ENDBRANCH  12  19
ENDBRANCH   8   9
ENDBRANCH   5   8
TORSDOF 6
ENDMDL
MODEL      102
REMARK 921   NORMALIZED FREE ENERGY PREDICTED BY IDOCK:   11.35 KCAL/MOL
REMARK 922        TOTAL FREE ENERGY PREDICTED BY IDOCK:   14.01 KCAL/MOL
REMARK 923 INTER-LIGAND FREE ENERGY PREDICTED BY IDOCK:   12.58 KCAL/MOL
REMARK 924 INTRA-LIGAND FREE ENERGY PREDICTED BY IDOCK:    1.44 KCAL/MOL
REMARK 927      BINDING AFFINITY PREDICTED BY RF-SCORE:    0.00 PKD
ROOT
HETATM    1  C   UNL     1     -13.219  16.852  63.388  1.00  0.00     8.992 C  
HETATM    2  N   UNL     1     -11.783  16.672  63.594  1.00  0.00    -0.248 NA 
HETATM    3  C   UNL     1     -11.203  17.822  64.319  1.00  0.00     3.368 C  
HETATM    4  C   UNL     1     -11.494  17.850  65.837  1.00  0.00     1.668 C  
HETATM    5  N   UNL     1     -11.160  16.601  66.549  1.00  0.00     0.137 NA 
HETATM    6  C   UNL     1     -11.514  15.417  64.324  1.00  0.00    -0.171 C  
HETATM    7  C   UNL     1     -11.810  15.472  65.846  1.00  0.00     0.449 C  
ENDROOT
BRANCH   5   8
HETATM    8  C   UNL     1      -9.717  16.345  66.638  1.00  0.00    -0.257 C  
BRANCH   8   9
HETATM    9  C   UNL     1      -9.348  15.079  67.376  1.00  0.00    -0.204 A  
HETATM   10  C   UNL     1      -8.289  14.323  66.849  1.00  0.00    -0.084 A  
HETATM   11  C   UNL     1      -7.946  13.087  67.385  1.00  0.00    -0.173 A  
HETATM   12  C   UNL     1      -8.654  12.562  68.460  1.00  0.00    -0.054 A  
HETATM   13  C   UNL     1      -9.658  13.344  69.045  1.00  0.00     0.294 A  
HETATM   14  F   UNL     1     -10.853  15.665  70.491  1.00  0.00    -0.284 F  
HETATM   15  C   UNL     1     -10.028  14.606  68.514  1.00  0.00    -0.235 A  
HETATM   16  F   UNL     1     -11.603  16.484  68.622  1.00  0.00    -0.344 F  
HETATM   17  C   UNL     1     -11.162  15.340  69.203  1.00  0.00    -0.278 C  
HETATM   18  F   UNL     1     -12.275  14.549  69.294  1.00  0.00    -0.342 F  
BRANCH  12  19
HETATM   19  N   UNL     1      -8.438  11.257  68.961  1.00  0.00    -0.362 N  
HETATM   20  O   UNL     1      -6.700  10.537  67.575  1.00  0.00    -0.068 OA 
HETATM   21  C   UNL     1      -7.515  10.346  68.469  1.00  0.00    -0.089 C  
HETATM   22  H   UNL     1      -9.010  10.960  69.752  1.00  0.00     0.000 HD 
BRANCH  21  23
HETATM   23  C   UNL     1      -7.557   8.983  69.058  1.00  0.00    -0.078 A  
HETATM   24  C   UNL     1      -7.921   7.922  68.217  1.00  0.00    -0.122 A  
HETATM   25  C   UNL     1      -7.955   6.610  68.697  1.00  0.00    -0.118 A  
HETATM   26  C   UNL     1      -7.206   8.730  70.385  1.00  0.00    -0.050 A  
HETATM   27  C   UNL     1      -7.620   6.351  70.037  1.00  0.00    -0.096 A  
HETATM   28  C   UNL     1      -7.239   7.421  70.868  1.00  0.00    -0.068 A  
HETATM   29  C   UNL     1      -7.628   4.970  70.636  1.00  0.00    -0.070 C  
BRANCH  25  30
HETATM   30  C   UNL     1      -8.363   5.569  67.796  1.00  0.00    -0.099 C  
HETATM   31  C   UNL     1      -8.744   4.725  67.031  1.00  0.00    -0.103 C  
BRANCH  31  32
HETATM   32  C   UNL     1      -9.311   3.773  66.140  1.00  0.00    -0.178 A  
HETATM   33  C   UNL     1      -9.536   2.437  66.388  1.00  0.00     0.185 A  
HETATM   34  N   UNL     1     -10.105   1.812  65.305  1.00  0.00     0.666 NA 
HETATM   35  C   UNL     1     -10.231   2.760  64.399  1.00  0.00     0.083 A  
HETATM   36  C   UNL     1     -10.755   2.711  63.089  1.00  0.00    -0.225 A  
HETATM   37  C   UNL     1     -10.777   3.826  62.350  1.00  0.00    -0.185 A  
HETATM   38  C   UNL     1     -10.236   5.061  62.971  1.00  0.00     0.982 A  
HETATM   39  N   UNL     1      -9.746   5.168  64.164  1.00  0.00     0.522 NA 
HETATM   40  N   UNL     1      -9.759   3.984  64.857  1.00  0.00    -0.183 NA 
ENDBRANCH  31  32
ENDBRANCH  25  30
ENDBRANCH  21  23
ENDBRANCH  12  19
ENDBRANCH   8   9
ENDBRANCH   5   8
TORSDOF 6
ENDMDL
MODEL      103
REMARK 921   NORMALIZED FREE ENERGY PREDICTED BY IDOCK:   15.40 KCAL/MOL
REMARK 922        TOTAL FREE ENERGY PREDICTED BY IDOCK:   19.50 KCAL/MOL
REMARK 923 INTER-LIGAND FREE ENERGY PREDICTED BY IDOCK:   11.77 KCAL/MOL
REMARK 924 INTRA-LIGAND FREE ENERGY PREDICTED BY IDOCK:    7.72 KCAL/MOL
REMARK 927      BINDING AFFINITY PREDICTED BY RF-SCORE:    0.00 PKD
ROOT
HETATM    1  C   UNL     1     -12.152  16.545  68.341  1.00  0.00     0.813 C  
HETATM    2  N   UNL     1     -11.045  15.932  69.075  1.00  0.00    -0.272 NA 
HETATM    3  C   UNL     1      -9.830  15.859  68.238  1.00  0.00    -0.217 C  
HETATM    4  C   UNL     1      -9.074  17.198  68.067  1.00  0.00    -0.240 C  
HETATM    5  N   UNL     1      -8.759  17.891  69.331  1.00  0.00     0.335 NA 
HETATM    6  C   UNL     1     -10.768  16.678  70.319  1.00  0.00     0.007 C  
HETATM    7  C   UNL     1     -10.006  18.015  70.121  1.00  0.00     1.334 C  
ENDROOT
BRANCH   5   8
HETATM    8  C   UNL     1      -7.745  17.204  70.140  1.00  0.00     1.999 C  
BRANCH   8   9
HETATM    9  C   UNL     1      -7.689  15.707  69.936  1.00  0.00     0.148 A  
HETATM   10  C   UNL     1      -8.278  15.204  68.765  1.00  0.00    -0.169 A  
HETATM   11  C   UNL     1      -8.380  13.836  68.538  1.00  0.00    -0.120 A  
HETATM   12  C   UNL     1      -7.906  12.926  69.476  1.00  0.00     0.976 A  
HETATM   13  C   UNL     1      -7.244  13.418  70.609  1.00  0.00     2.226 A  
HETATM   14  F   UNL     1      -5.127  14.830  72.167  1.00  0.00    -0.154 F  
HETATM   15  C   UNL     1      -7.129  14.808  70.863  1.00  0.00     0.922 A  
HETATM   16  F   UNL     1      -6.436  16.542  72.455  1.00  0.00     2.621 F  
HETATM   17  C   UNL     1      -6.434  15.221  72.146  1.00  0.00     1.879 C  
HETATM   18  F   UNL     1      -7.004  14.612  73.231  1.00  0.00     1.152 F  
BRANCH  12  19
HETATM   19  N   UNL     1      -8.101  11.530  69.362  1.00  0.00    -0.324 N  
HETATM   20  O   UNL     1     -10.396  11.373  69.775  1.00  0.00     0.153 OA 
HETATM   21  C   UNL     1      -9.304  10.865  69.549  1.00  0.00     0.223 C  
HETATM   22  H   UNL     1      -7.287  10.963  69.123  1.00  0.00     0.000 HD 
BRANCH  21  23
HETATM   23  C   UNL     1      -9.248   9.382  69.517  1.00  0.00    -0.182 A  
HETATM   24  C   UNL     1      -8.624   8.778  68.416  1.00  0.00    -0.134 A  
HETATM   25  C   UNL     1      -8.511   7.388  68.333  1.00  0.00    -0.125 A  
HETATM   26  C   UNL     1      -9.747   8.590  70.554  1.00  0.00    -0.202 A  
HETATM   27  C   UNL     1      -9.028   6.585  69.364  1.00  0.00    -0.132 A  
HETATM   28  C   UNL     1      -9.636   7.202  70.474  1.00  0.00    -0.169 A  
HETATM   29  C   UNL     1      -8.948   5.082  69.357  1.00  0.00    -0.125 C  
BRANCH  25  30
HETATM   30  C   UNL     1      -7.888   6.826  67.167  1.00  0.00    -0.112 C  
HETATM   31  C   UNL     1      -7.362   6.402  66.174  1.00  0.00    -0.080 C  
BRANCH  31  32
HETATM   32  C   UNL     1      -6.775   6.006  64.941  1.00  0.00    -0.043 A  
HETATM   33  C   UNL     1      -6.278   6.830  63.957  1.00  0.00    -0.035 A  
HETATM   34  N   UNL     1      -5.777   6.109  62.900  1.00  0.00    -0.021 NA 
HETATM   35  C   UNL     1      -5.963   4.850  63.237  1.00  0.00    -0.017 A  
HETATM   36  C   UNL     1      -5.644   3.661  62.544  1.00  0.00    -0.012 A  
HETATM   37  C   UNL     1      -5.936   2.480  63.102  1.00  0.00    -0.010 A  
HETATM   38  C   UNL     1      -6.589   2.503  64.435  1.00  0.00    -0.031 A  
HETATM   39  N   UNL     1      -6.903   3.557  65.116  1.00  0.00    -0.048 NA 
HETATM   40  N   UNL     1      -6.573   4.726  64.479  1.00  0.00    -0.042 NA 
ENDBRANCH  31  32
ENDBRANCH  25  30
ENDBRANCH  21  23
ENDBRANCH  12  19
ENDBRANCH   8   9
ENDBRANCH   5   8
TORSDOF 6
ENDMDL
MODEL      104
REMARK 921   NORMALIZED FREE ENERGY PREDICTED BY IDOCK:   15.53 KCAL/MOL
REMARK 922        TOTAL FREE ENERGY PREDICTED BY IDOCK:   19.67 KCAL/MOL
REMARK 923 INTER-LIGAND FREE ENERGY PREDICTED BY IDOCK:   16.55 KCAL/MOL
REMARK 924 INTRA-LIGAND FREE ENERGY PREDICTED BY IDOCK:    3.11 KCAL/MOL
REMARK 927      BINDING AFFINITY PREDICTED BY RF-SCORE:    0.00 PKD
ROOT
HETATM    1  C   UNL     1     -10.593  21.047  65.072  1.00  0.00     2.235 C  
HETATM    2  N   UNL     1     -11.225  19.854  65.634  1.00  0.00    -0.041 NA 
HETATM    3  C   UNL     1     -10.220  18.960  66.247  1.00  0.00    -0.438 C  
HETATM    4  C   UNL     1      -9.692  19.422  67.625  1.00  0.00    -0.331 C  
HETATM    5  N   UNL     1     -10.743  19.732  68.614  1.00  0.00     0.047 NA 
HETATM    6  C   UNL     1     -12.254  20.227  66.626  1.00  0.00     3.757 C  
HETATM    7  C   UNL     1     -11.698  20.683  68.000  1.00  0.00     3.306 C  
ENDROOT
BRANCH   5   8
HETATM    8  C   UNL     1     -11.476  18.548  69.079  1.00  0.00     2.917 C  
BRANCH   8   9
HETATM    9  C   UNL     1     -11.034  17.248  68.450  1.00  0.00    -0.171 A  
HETATM   10  C   UNL     1     -11.208  17.123  67.062  1.00  0.00     0.414 A  
HETATM   11  C   UNL     1     -10.940  15.928  66.404  1.00  0.00    -0.115 A  
HETATM   12  C   UNL     1     -10.496  14.816  67.111  1.00  0.00    -0.265 A  
HETATM   13  C   UNL     1     -10.240  14.954  68.481  1.00  0.00    -0.235 A  
HETATM   14  F   UNL     1      -8.915  15.989  70.947  1.00  0.00     1.539 F  
HETATM   15  C   UNL     1     -10.508  16.162  69.175  1.00  0.00    -0.265 A  
HETATM   16  F   UNL     1     -10.613  17.285  71.353  1.00  0.00     0.927 F  
HETATM   17  C   UNL     1     -10.237  16.177  70.667  1.00  0.00     0.747 C  
HETATM   18  F   UNL     1     -10.884  15.147  71.294  1.00  0.00    -0.352 F  
BRANCH  12  19
HETATM   19  N   UNL     1     -10.334  13.542  66.519  1.00  0.00    -0.277 N  
HETATM   20  O   UNL     1     -12.446  12.615  66.892  1.00  0.00    -0.301 OA 
HETATM   21  C   UNL     1     -11.294  12.541  66.483  1.00  0.00    -0.334 C  
HETATM   22  H   UNL     1      -9.435  13.341  66.082  1.00  0.00     0.000 HD 
BRANCH  21  23
HETATM   23  C   UNL     1     -10.860  11.232  65.933  1.00  0.00    -0.264 A  
HETATM   24  C   UNL     1     -10.771  10.151  66.822  1.00  0.00    -0.191 A  
HETATM   25  C   UNL     1     -10.395   8.884  66.369  1.00  0.00    -0.189 A  
HETATM   26  C   UNL     1     -10.589  11.041  64.577  1.00  0.00    -0.383 A  
HETATM   27  C   UNL     1     -10.103   8.689  65.009  1.00  0.00     1.935 A  
HETATM   28  C   UNL     1     -10.213   9.778  64.122  1.00  0.00     1.088 A  
HETATM   29  C   UNL     1      -9.693   7.360  64.436  1.00  0.00     3.357 C  
BRANCH  25  30
HETATM   30  C   UNL     1     -10.294   7.822  67.332  1.00  0.00    -0.354 C  
HETATM   31  C   UNL     1     -10.171   6.917  68.111  1.00  0.00    -0.203 C  
BRANCH  31  32
HETATM   32  C   UNL     1      -9.965   5.783  68.944  1.00  0.00    -0.161 A  
HETATM   33  C   UNL     1     -10.119   4.460  68.595  1.00  0.00     0.105 A  
HETATM   34  N   UNL     1      -9.829   3.624  69.646  1.00  0.00    -0.053 NA 
HETATM   35  C   UNL     1      -9.496   4.430  70.633  1.00  0.00    -0.172 A  
HETATM   36  C   UNL     1      -9.099   4.142  71.957  1.00  0.00    -0.160 A  
HETATM   37  C   UNL     1      -8.807   5.148  72.788  1.00  0.00    -0.118 A  
HETATM   38  C   UNL     1      -8.924   6.527  72.249  1.00  0.00    -0.138 A  
HETATM   39  N   UNL     1      -9.281   6.853  71.048  1.00  0.00    -0.156 NA 
HETATM   40  N   UNL     1      -9.563   5.767  70.259  1.00  0.00    -0.160 NA 
ENDBRANCH  31  32
ENDBRANCH  25  30
ENDBRANCH  21  23
ENDBRANCH  12  19
ENDBRANCH   8   9
ENDBRANCH   5   8
TORSDOF 6
ENDMDL
MODEL      105
REMARK 921   NORMALIZED FREE ENERGY PREDICTED BY IDOCK:   16.03 KCAL/MOL
REMARK 922        TOTAL FREE ENERGY PREDICTED BY IDOCK:   20.35 KCAL/MOL
REMARK 923 INTER-LIGAND FREE ENERGY PREDICTED BY IDOCK:   -4.68 KCAL/MOL
REMARK 924 INTRA-LIGAND FREE ENERGY PREDICTED BY IDOCK:   25.02 KCAL/MOL
REMARK 927      BINDING AFFINITY PREDICTED BY RF-SCORE:    0.00 PKD
ROOT
HETATM    1  C   UNL     1      -7.253   2.154  70.772  1.00  0.00    -0.033 C  
HETATM    2  N   UNL     1      -7.166   3.522  71.281  1.00  0.00    -0.033 NA 
HETATM    3  C   UNL     1      -7.934   4.455  70.430  1.00  0.00    -0.056 C  
HETATM    4  C   UNL     1      -9.467   4.400  70.622  1.00  0.00    -0.172 C  
HETATM    5  N   UNL     1      -9.916   4.530  72.022  1.00  0.00    -0.184 NA 
HETATM    6  C   UNL     1      -7.642   3.590  72.677  1.00  0.00    -0.059 C  
HETATM    7  C   UNL     1      -9.184   3.537  72.842  1.00  0.00    -0.099 C  
ENDROOT
BRANCH   5   8
HETATM    8  C   UNL     1      -9.702   5.869  72.585  1.00  0.00    -0.153 C  
BRANCH   8   9
HETATM    9  C   UNL     1      -9.899   7.001  71.603  1.00  0.00    -0.169 A  
HETATM   10  C   UNL     1     -10.708   8.069  72.021  1.00  0.00    -0.319 A  
HETATM   11  C   UNL     1     -11.044   9.103  71.154  1.00  0.00    -0.393 A  
HETATM   12  C   UNL     1     -10.590   9.100  69.840  1.00  0.00    -0.230 A  
HETATM   13  C   UNL     1      -9.715   8.082  69.438  1.00  0.00    -0.170 A  
HETATM   14  F   UNL     1      -7.220   6.446  69.406  1.00  0.00    -0.074 F  
HETATM   15  C   UNL     1      -9.360   7.016  70.303  1.00  0.00    -0.159 A  
HETATM   16  F   UNL     1      -8.207   4.861  70.520  1.00  0.00    -0.086 F  
HETATM   17  C   UNL     1      -8.444   5.946  69.740  1.00  0.00    -0.125 C  
HETATM   18  F   UNL     1      -8.948   5.431  68.577  1.00  0.00    -0.107 F  
BRANCH  12  19
HETATM   19  N   UNL     1     -11.006  10.051  68.879  1.00  0.00    -0.301 N  
HETATM   20  O   UNL     1      -9.334   9.804  67.266  1.00  0.00    -0.136 OA 
HETATM   21  C   UNL     1     -10.341  10.351  67.700  1.00  0.00    -0.219 C  
HETATM   22  H   UNL     1     -11.869  10.560  69.070  1.00  0.00     0.000 HD 
BRANCH  21  23
HETATM   23  C   UNL     1     -10.884  11.483  66.907  1.00  0.00    -0.331 A  
HETATM   24  C   UNL     1     -10.582  12.782  67.338  1.00  0.00    -0.241 A  
HETATM   25  C   UNL     1     -11.036  13.895  66.625  1.00  0.00    -0.302 A  
HETATM   26  C   UNL     1     -11.631  11.292  65.743  1.00  0.00     0.329 A  
HETATM   27  C   UNL     1     -11.804  13.710  65.463  1.00  0.00    -0.382 A  
HETATM   28  C   UNL     1     -12.087  12.401  65.029  1.00  0.00    -0.468 A  
HETATM   29  C   UNL     1     -12.333  14.850  64.635  1.00  0.00    -0.290 C  
BRANCH  25  30
HETATM   30  C   UNL     1     -10.719  15.201  67.132  1.00  0.00    -0.310 C  
HETATM   31  C   UNL     1     -10.498  16.295  67.576  1.00  0.00    -0.302 C  
BRANCH  31  32
HETATM   32  C   UNL     1     -10.361  17.607  68.106  1.00  0.00    -0.386 A  
HETATM   33  C   UNL     1     -11.105  18.174  69.117  1.00  0.00     1.414 A  
HETATM   34  N   UNL     1     -10.698  19.460  69.381  1.00  0.00     0.744 NA 
HETATM   35  C   UNL     1      -9.709  19.678  68.540  1.00  0.00    -0.402 A  
HETATM   36  C   UNL     1      -8.903  20.822  68.351  1.00  0.00     0.628 A  
HETATM   37  C   UNL     1      -7.945  20.802  67.418  1.00  0.00    -0.264 A  
HETATM   38  C   UNL     1      -7.795  19.553  66.628  1.00  0.00    -0.283 A  
HETATM   39  N   UNL     1      -8.500  18.476  66.756  1.00  0.00    -0.273 NA 
HETATM   40  N   UNL     1      -9.459  18.575  67.731  1.00  0.00    -0.285 NA 
ENDBRANCH  31  32
ENDBRANCH  25  30
ENDBRANCH  21  23
ENDBRANCH  12  19
ENDBRANCH   8   9
ENDBRANCH   5   8
TORSDOF 6
ENDMDL
MODEL      106
REMARK 921   NORMALIZED FREE ENERGY PREDICTED BY IDOCK:   19.90 KCAL/MOL
REMARK 922        TOTAL FREE ENERGY PREDICTED BY IDOCK:   25.57 KCAL/MOL
REMARK 923 INTER-LIGAND FREE ENERGY PREDICTED BY IDOCK:   23.32 KCAL/MOL
REMARK 924 INTRA-LIGAND FREE ENERGY PREDICTED BY IDOCK:    2.25 KCAL/MOL
REMARK 927      BINDING AFFINITY PREDICTED BY RF-SCORE:    0.00 PKD
ROOT
HETATM    1  C   UNL     1      -8.917  18.655  72.893  1.00  0.00    10.156 C  
HETATM    2  N   UNL     1      -9.568  18.076  71.719  1.00  0.00     7.564 NA 
HETATM    3  C   UNL     1     -10.816  18.798  71.394  1.00  0.00     3.525 C  
HETATM    4  C   UNL     1     -10.615  20.166  70.701  1.00  0.00     2.026 C  
HETATM    5  N   UNL     1      -9.744  20.130  69.511  1.00  0.00     0.093 NA 
HETATM    6  C   UNL     1      -8.653  18.082  70.559  1.00  0.00     4.240 C  
HETATM    7  C   UNL     1      -8.473  19.466  69.880  1.00  0.00     0.858 C  
ENDROOT
BRANCH   5   8
HETATM    8  C   UNL     1     -10.340  19.426  68.369  1.00  0.00    -0.359 C  
BRANCH   8   9
HETATM    9  C   UNL     1      -9.780  18.044  68.122  1.00  0.00    -0.323 A  
HETATM   10  C   UNL     1     -10.471  16.967  68.701  1.00  0.00    -0.363 A  
HETATM   11  C   UNL     1      -9.977  15.670  68.630  1.00  0.00    -0.208 A  
HETATM   12  C   UNL     1      -8.774  15.406  67.986  1.00  0.00    -0.160 A  
HETATM   13  C   UNL     1      -8.119  16.460  67.334  1.00  0.00    -0.175 A  
HETATM   14  F   UNL     1      -7.723  18.648  65.344  1.00  0.00    -0.080 F  
HETATM   15  C   UNL     1      -8.602  17.791  67.395  1.00  0.00    -0.233 A  
HETATM   16  F   UNL     1      -8.171  20.146  66.856  1.00  0.00    -0.310 F  
HETATM   17  C   UNL     1      -7.783  18.856  66.691  1.00  0.00    -0.248 C  
HETATM   18  F   UNL     1      -6.481  18.832  67.113  1.00  0.00    -0.185 F  
BRANCH  12  19
HETATM   19  N   UNL     1      -8.157  14.133  67.996  1.00  0.00    -0.136 N  
HETATM   20  O   UNL     1      -9.590  12.941  66.586  1.00  0.00    -0.245 OA 
HETATM   21  C   UNL     1      -8.621  13.006  67.333  1.00  0.00    -0.199 C  
HETATM   22  H   UNL     1      -7.298  14.035  68.537  1.00  0.00     0.000 HD 
BRANCH  21  23
HETATM   23  C   UNL     1      -7.891  11.740  67.597  1.00  0.00    -0.138 A  
HETATM   24  C   UNL     1      -8.602  10.694  68.202  1.00  0.00    -0.123 A  
HETATM   25  C   UNL     1      -7.987   9.465  68.455  1.00  0.00    -0.093 A  
HETATM   26  C   UNL     1      -6.559  11.551  67.225  1.00  0.00    -0.113 A  
HETATM   27  C   UNL     1      -6.641   9.275  68.100  1.00  0.00    -0.059 A  
HETATM   28  C   UNL     1      -5.941  10.326  67.477  1.00  0.00    -0.053 A  
HETATM   29  C   UNL     1      -5.901   7.986  68.335  1.00  0.00    -0.036 C  
BRANCH  25  30
HETATM   30  C   UNL     1      -8.758   8.441  69.103  1.00  0.00    -0.142 C  
HETATM   31  C   UNL     1      -9.366   7.579  69.677  1.00  0.00    -0.153 C  
BRANCH  31  32
HETATM   32  C   UNL     1      -9.976   6.518  70.401  1.00  0.00    -0.179 A  
HETATM   33  C   UNL     1     -10.535   5.373  69.880  1.00  0.00    -0.308 A  
HETATM   34  N   UNL     1     -11.029   4.558  70.870  1.00  0.00     0.754 NA 
HETATM   35  C   UNL     1     -10.771   5.198  71.991  1.00  0.00    -0.169 A  
HETATM   36  C   UNL     1     -11.044   4.845  73.331  1.00  0.00    -0.415 A  
HETATM   37  C   UNL     1     -10.678   5.674  74.315  1.00  0.00    -0.020 A  
HETATM   38  C   UNL     1      -9.998   6.934  73.921  1.00  0.00    -0.331 A  
HETATM   39  N   UNL     1      -9.721   7.310  72.715  1.00  0.00    -0.153 NA 
HETATM   40  N   UNL     1     -10.127   6.408  71.764  1.00  0.00    -0.184 NA 
ENDBRANCH  31  32
ENDBRANCH  25  30
ENDBRANCH  21  23
ENDBRANCH  12  19
ENDBRANCH   8   9
ENDBRANCH   5   8
TORSDOF 6
ENDMDL
MODEL      107
REMARK 921   NORMALIZED FREE ENERGY PREDICTED BY IDOCK:   21.61 KCAL/MOL
REMARK 922        TOTAL FREE ENERGY PREDICTED BY IDOCK:   27.88 KCAL/MOL
REMARK 923 INTER-LIGAND FREE ENERGY PREDICTED BY IDOCK:   25.32 KCAL/MOL
REMARK 924 INTRA-LIGAND FREE ENERGY PREDICTED BY IDOCK:    2.56 KCAL/MOL
REMARK 927      BINDING AFFINITY PREDICTED BY RF-SCORE:    0.00 PKD
ROOT
HETATM    1  C   UNL     1      -8.160  19.297  73.479  1.00  0.00     6.289 C  
HETATM    2  N   UNL     1      -8.694  18.851  72.193  1.00  0.00     8.188 NA 
HETATM    3  C   UNL     1      -9.903  19.618  71.825  1.00  0.00     3.133 C  
HETATM    4  C   UNL     1      -9.633  21.048  71.303  1.00  0.00     2.889 C  
HETATM    5  N   UNL     1      -8.649  21.126  70.206  1.00  0.00     3.339 NA 
HETATM    6  C   UNL     1      -7.670  18.967  71.135  1.00  0.00     3.898 C  
HETATM    7  C   UNL     1      -7.421  20.411  70.626  1.00  0.00     1.319 C  
ENDROOT
BRANCH   5   8
HETATM    8  C   UNL     1      -9.131  20.551  68.944  1.00  0.00     0.806 C  
BRANCH   8   9
HETATM    9  C   UNL     1      -8.619  19.159  68.652  1.00  0.00    -0.396 A  
HETATM   10  C   UNL     1      -9.438  18.088  69.042  1.00  0.00    -0.116 A  
HETATM   11  C   UNL     1      -9.010  16.770  68.922  1.00  0.00    -0.227 A  
HETATM   12  C   UNL     1      -7.748  16.480  68.417  1.00  0.00    -0.189 A  
HETATM   13  C   UNL     1      -6.956  17.537  67.949  1.00  0.00    -0.185 A  
HETATM   14  F   UNL     1      -6.180  19.845  66.224  1.00  0.00    -0.174 F  
HETATM   15  C   UNL     1      -7.370  18.888  68.063  1.00  0.00    -0.274 A  
HETATM   16  F   UNL     1      -6.744  21.245  67.790  1.00  0.00    -0.388 F  
HETATM   17  C   UNL     1      -6.407  19.950  67.565  1.00  0.00    -0.203 C  
HETATM   18  F   UNL     1      -5.177  19.807  68.147  1.00  0.00    -0.171 F  
BRANCH  12  19
HETATM   19  N   UNL     1      -7.209  15.172  68.396  1.00  0.00    -0.110 N  
HETATM   20  O   UNL     1      -8.776  14.073  67.056  1.00  0.00    -0.219 OA 
HETATM   21  C   UNL     1      -7.770  14.078  67.755  1.00  0.00    -0.172 C  
HETATM   22  H   UNL     1      -6.331  15.022  68.895  1.00  0.00     0.000 HD 
BRANCH  21  23
HETATM   23  C   UNL     1      -7.104  12.770  67.982  1.00  0.00    -0.111 A  
HETATM   24  C   UNL     1      -7.311  11.761  67.030  1.00  0.00    -0.133 A  
HETATM   25  C   UNL     1      -6.695  10.515  67.165  1.00  0.00    -0.079 A  
HETATM   26  C   UNL     1      -6.260  12.537  69.069  1.00  0.00    -0.087 A  
HETATM   27  C   UNL     1      -5.858  10.268  68.266  1.00  0.00    -0.041 A  
HETATM   28  C   UNL     1      -5.643  11.294  69.207  1.00  0.00    -0.041 A  
HETATM   29  C   UNL     1      -5.154   8.957  68.489  1.00  0.00    -0.030 C  
BRANCH  25  30
HETATM   30  C   UNL     1      -6.967   9.512  66.173  1.00  0.00    -0.091 C  
HETATM   31  C   UNL     1      -7.238   8.665  65.366  1.00  0.00    -0.083 C  
BRANCH  31  32
HETATM   32  C   UNL     1      -7.638   7.614  64.496  1.00  0.00    -0.112 A  
HETATM   33  C   UNL     1      -7.620   7.626  63.119  1.00  0.00    -0.119 A  
HETATM   34  N   UNL     1      -8.069   6.437  62.599  1.00  0.00    -0.105 NA 
HETATM   35  C   UNL     1      -8.356   5.698  63.651  1.00  0.00    -0.048 A  
HETATM   36  C   UNL     1      -8.855   4.380  63.735  1.00  0.00    -0.139 A  
HETATM   37  C   UNL     1      -9.070   3.836  64.939  1.00  0.00    -0.140 A  
HETATM   38  C   UNL     1      -8.764   4.675  66.125  1.00  0.00    -0.114 A  
HETATM   39  N   UNL     1      -8.306   5.885  66.110  1.00  0.00    -0.119 NA 
HETATM   40  N   UNL     1      -8.113   6.371  64.842  1.00  0.00    -0.124 NA 
ENDBRANCH  31  32
ENDBRANCH  25  30
ENDBRANCH  21  23
ENDBRANCH  12  19
ENDBRANCH   8   9
ENDBRANCH   5   8
TORSDOF 6
ENDMDL
MODEL      108
REMARK 921   NORMALIZED FREE ENERGY PREDICTED BY IDOCK:   22.43 KCAL/MOL
REMARK 922        TOTAL FREE ENERGY PREDICTED BY IDOCK:   28.99 KCAL/MOL
REMARK 923 INTER-LIGAND FREE ENERGY PREDICTED BY IDOCK:   26.44 KCAL/MOL
REMARK 924 INTRA-LIGAND FREE ENERGY PREDICTED BY IDOCK:    2.54 KCAL/MOL
REMARK 927      BINDING AFFINITY PREDICTED BY RF-SCORE:    0.00 PKD
ROOT
HETATM    1  C   UNL     1      -8.159  19.299  73.468  1.00  0.00     6.289 C  
HETATM    2  N   UNL     1      -8.689  18.858  72.179  1.00  0.00     8.188 NA 
HETATM    3  C   UNL     1      -9.889  19.636  71.805  1.00  0.00     3.133 C  
HETATM    4  C   UNL     1      -9.604  21.065  71.286  1.00  0.00     2.889 C  
HETATM    5  N   UNL     1      -8.613  21.135  70.194  1.00  0.00     3.355 NA 
HETATM    6  C   UNL     1      -7.658  18.967  71.127  1.00  0.00     3.623 C  
HETATM    7  C   UNL     1      -7.394  20.410  70.621  1.00  0.00     1.171 C  
ENDROOT
BRANCH   5   8
HETATM    8  C   UNL     1      -9.092  20.566  68.929  1.00  0.00     0.806 C  
BRANCH   8   9
HETATM    9  C   UNL     1      -8.584  19.174  68.634  1.00  0.00    -0.396 A  
HETATM   10  C   UNL     1      -9.413  18.104  69.007  1.00  0.00    -0.130 A  
HETATM   11  C   UNL     1      -8.990  16.785  68.884  1.00  0.00    -0.227 A  
HETATM   12  C   UNL     1      -7.724  16.492  68.392  1.00  0.00    -0.189 A  
HETATM   13  C   UNL     1      -6.921  17.548  67.940  1.00  0.00    -0.185 A  
HETATM   14  F   UNL     1      -6.114  19.863  66.240  1.00  0.00    -0.171 F  
HETATM   15  C   UNL     1      -7.329  18.901  68.058  1.00  0.00    -0.274 A  
HETATM   16  F   UNL     1      -6.689  21.256  67.808  1.00  0.00    -0.388 F  
HETATM   17  C   UNL     1      -6.356  19.960  67.579  1.00  0.00    -0.203 C  
HETATM   18  F   UNL     1      -5.133  19.808  68.174  1.00  0.00    -0.168 F  
BRANCH  12  19
HETATM   19  N   UNL     1      -7.190  15.182  68.369  1.00  0.00    -0.110 N  
HETATM   20  O   UNL     1      -8.735  14.104  66.986  1.00  0.00    -0.214 OA 
HETATM   21  C   UNL     1      -7.744  14.097  67.706  1.00  0.00    -0.168 C  
HETATM   22  H   UNL     1      -6.324  15.022  68.884  1.00  0.00     0.000 HD 
BRANCH  21  23
HETATM   23  C   UNL     1      -7.090  12.783  67.933  1.00  0.00    -0.118 A  
HETATM   24  C   UNL     1      -7.909  11.645  67.962  1.00  0.00    -0.128 A  
HETATM   25  C   UNL     1      -7.359  10.374  68.144  1.00  0.00    -0.088 A  
HETATM   26  C   UNL     1      -5.707  12.648  68.068  1.00  0.00    -0.091 A  
HETATM   27  C   UNL     1      -5.969  10.233  68.300  1.00  0.00    -0.041 A  
HETATM   28  C   UNL     1      -5.154  11.380  68.251  1.00  0.00    -0.039 A  
HETATM   29  C   UNL     1      -5.293   8.904  68.499  1.00  0.00    -0.037 C  
BRANCH  25  30
HETATM   30  C   UNL     1      -8.251   9.250  68.194  1.00  0.00    -0.119 C  
HETATM   31  C   UNL     1      -8.975   8.295  68.277  1.00  0.00    -0.136 C  
BRANCH  31  32
HETATM   32  C   UNL     1      -9.744   7.111  68.447  1.00  0.00    -0.142 A  
HETATM   33  C   UNL     1     -11.105   7.027  68.634  1.00  0.00    -0.014 A  
HETATM   34  N   UNL     1     -11.518   5.722  68.756  1.00  0.00     0.381 NA 
HETATM   35  C   UNL     1     -10.416   5.010  68.641  1.00  0.00     0.043 A  
HETATM   36  C   UNL     1     -10.220   3.612  68.682  1.00  0.00     0.810 A  
HETATM   37  C   UNL     1      -8.985   3.119  68.538  1.00  0.00    -0.188 A  
HETATM   38  C   UNL     1      -7.884   4.096  68.343  1.00  0.00    -0.073 A  
HETATM   39  N   UNL     1      -8.001   5.384  68.296  1.00  0.00    -0.088 NA 
HETATM   40  N   UNL     1      -9.296   5.811  68.451  1.00  0.00    -0.119 NA 
ENDBRANCH  31  32
ENDBRANCH  25  30
ENDBRANCH  21  23
ENDBRANCH  12  19
ENDBRANCH   8   9
ENDBRANCH   5   8
TORSDOF 6
ENDMDL
MODEL      109
REMARK 921   NORMALIZED FREE ENERGY PREDICTED BY IDOCK:   27.09 KCAL/MOL
REMARK 922        TOTAL FREE ENERGY PREDICTED BY IDOCK:   35.28 KCAL/MOL
REMARK 923 INTER-LIGAND FREE ENERGY PREDICTED BY IDOCK:   34.73 KCAL/MOL
REMARK 924 INTRA-LIGAND FREE ENERGY PREDICTED BY IDOCK:    0.55 KCAL/MOL
REMARK 927      BINDING AFFINITY PREDICTED BY RF-SCORE:    0.00 PKD
ROOT
HETATM    1  C   UNL     1      -9.302  19.325  73.393  1.00  0.00     5.283 C  
HETATM    2  N   UNL     1      -8.994  18.831  72.051  1.00  0.00     8.399 NA 
HETATM    3  C   UNL     1      -9.490  17.451  71.867  1.00  0.00     9.778 C  
HETATM    4  C   UNL     1     -11.016  17.331  71.644  1.00  0.00     1.748 C  
HETATM    5  N   UNL     1     -11.550  18.193  70.571  1.00  0.00     4.146 NA 
HETATM    6  C   UNL     1      -9.567  19.725  71.024  1.00  0.00     2.058 C  
HETATM    7  C   UNL     1     -11.098  19.582  70.817  1.00  0.00     4.343 C  
ENDROOT
BRANCH   5   8
HETATM    8  C   UNL     1     -11.129  17.782  69.226  1.00  0.00     1.072 C  
BRANCH   8   9
HETATM    9  C   UNL     1     -10.420  16.449  69.170  1.00  0.00    -0.303 A  
HETATM   10  C   UNL     1      -9.020  16.480  69.064  1.00  0.00    -0.225 A  
HETATM   11  C   UNL     1      -8.283  15.314  68.891  1.00  0.00    -0.186 A  
HETATM   12  C   UNL     1      -8.919  14.080  68.811  1.00  0.00    -0.030 A  
HETATM   13  C   UNL     1     -10.307  14.031  68.998  1.00  0.00    -0.136 A  
HETATM   14  F   UNL     1     -12.906  14.321  70.435  1.00  0.00    -0.380 F  
HETATM   15  C   UNL     1     -11.080  15.206  69.173  1.00  0.00    -0.263 A  
HETATM   16  F   UNL     1     -13.334  16.159  69.355  1.00  0.00     0.726 F  
HETATM   17  C   UNL     1     -12.580  15.032  69.318  1.00  0.00     0.137 C  
HETATM   18  F   UNL     1     -13.092  14.309  68.275  1.00  0.00     0.630 F  
BRANCH  12  19
HETATM   19  N   UNL     1      -8.237  12.880  68.504  1.00  0.00    -0.291 N  
HETATM   20  O   UNL     1      -9.843  11.780  67.213  1.00  0.00    -0.184 OA 
HETATM   21  C   UNL     1      -8.752  11.824  67.768  1.00  0.00    -0.155 C  
HETATM   22  H   UNL     1      -7.283  12.783  68.855  1.00  0.00     0.000 HD 
BRANCH  21  23
HETATM   23  C   UNL     1      -7.910  10.604  67.688  1.00  0.00    -0.105 A  
HETATM   24  C   UNL     1      -8.076   9.632  68.685  1.00  0.00    -0.100 A  
HETATM   25  C   UNL     1      -7.336   8.447  68.657  1.00  0.00    -0.088 A  
HETATM   26  C   UNL     1      -7.010  10.382  66.643  1.00  0.00    -0.111 A  
HETATM   27  C   UNL     1      -6.416   8.226  67.618  1.00  0.00    -0.057 A  
HETATM   28  C   UNL     1      -6.269   9.200  66.613  1.00  0.00    -0.065 A  
HETATM   29  C   UNL     1      -5.580   6.979  67.510  1.00  0.00    -0.024 C  
BRANCH  25  30
HETATM   30  C   UNL     1      -7.529   7.502  69.721  1.00  0.00    -0.091 C  
HETATM   31  C   UNL     1      -7.693   6.675  70.577  1.00  0.00    -0.104 C  
BRANCH  31  32
HETATM   32  C   UNL     1      -7.939   5.625  71.503  1.00  0.00    -0.117 A  
HETATM   33  C   UNL     1      -8.254   5.752  72.837  1.00  0.00    -0.119 A  
HETATM   34  N   UNL     1      -8.433   4.527  73.433  1.00  0.00    -0.102 NA 
HETATM   35  C   UNL     1      -8.233   3.654  72.468  1.00  0.00    -0.081 A  
HETATM   36  C   UNL     1      -8.283   2.242  72.485  1.00  0.00    -0.055 A  
HETATM   37  C   UNL     1      -8.038   1.564  71.359  1.00  0.00    -0.046 A  
HETATM   38  C   UNL     1      -7.722   2.358  70.145  1.00  0.00    -0.043 A  
HETATM   39  N   UNL     1      -7.662   3.649  70.067  1.00  0.00    -0.048 NA 
HETATM   40  N   UNL     1      -7.925   4.271  71.261  1.00  0.00    -0.075 NA 
ENDBRANCH  31  32
ENDBRANCH  25  30
ENDBRANCH  21  23
ENDBRANCH  12  19
ENDBRANCH   8   9
ENDBRANCH   5   8
TORSDOF 6
ENDMDL
MODEL      110
REMARK 921   NORMALIZED FREE ENERGY PREDICTED BY IDOCK:   29.36 KCAL/MOL
REMARK 922        TOTAL FREE ENERGY PREDICTED BY IDOCK:   38.34 KCAL/MOL
REMARK 923 INTER-LIGAND FREE ENERGY PREDICTED BY IDOCK:   37.83 KCAL/MOL
REMARK 924 INTRA-LIGAND FREE ENERGY PREDICTED BY IDOCK:    0.52 KCAL/MOL
REMARK 927      BINDING AFFINITY PREDICTED BY RF-SCORE:    0.00 PKD
ROOT
HETATM    1  C   UNL     1      -8.849  19.663  73.669  1.00  0.00     5.283 C  
HETATM    2  N   UNL     1      -8.597  19.118  72.335  1.00  0.00     6.608 NA 
HETATM    3  C   UNL     1      -9.079  17.724  72.232  1.00  0.00    14.000 C  
HETATM    4  C   UNL     1     -10.611  17.573  72.087  1.00  0.00     3.811 C  
HETATM    5  N   UNL     1     -11.208  18.381  71.006  1.00  0.00     3.281 NA 
HETATM    6  C   UNL     1      -9.231  19.958  71.300  1.00  0.00     2.479 C  
HETATM    7  C   UNL     1     -10.767  19.785  71.172  1.00  0.00     3.400 C  
ENDROOT
BRANCH   5   8
HETATM    8  C   UNL     1     -10.844  17.920  69.661  1.00  0.00     1.079 C  
BRANCH   8   9
HETATM    9  C   UNL     1     -10.129  16.589  69.625  1.00  0.00    -0.100 A  
HETATM   10  C   UNL     1      -8.734  16.621  69.470  1.00  0.00     0.323 A  
HETATM   11  C   UNL     1      -7.997  15.453  69.312  1.00  0.00    -0.229 A  
HETATM   12  C   UNL     1      -8.629  14.215  69.296  1.00  0.00     0.347 A  
HETATM   13  C   UNL     1     -10.009  14.166  69.533  1.00  0.00     0.363 A  
HETATM   14  F   UNL     1     -12.559  14.495  71.049  1.00  0.00    -0.326 F  
HETATM   15  C   UNL     1     -10.782  15.344  69.694  1.00  0.00    -0.281 A  
HETATM   16  F   UNL     1     -13.034  16.293  69.922  1.00  0.00     0.150 F  
HETATM   17  C   UNL     1     -12.275  15.168  69.897  1.00  0.00    -0.314 C  
HETATM   18  F   UNL     1     -12.820  14.408  68.897  1.00  0.00    -0.041 F  
BRANCH  12  19
HETATM   19  N   UNL     1      -7.951  13.008  69.007  1.00  0.00    -0.323 N  
HETATM   20  O   UNL     1      -9.600  11.853  67.821  1.00  0.00    -0.181 OA 
HETATM   21  C   UNL     1      -8.488  11.922  68.331  1.00  0.00    -0.155 C  
HETATM   22  H   UNL     1      -6.984  12.929  69.323  1.00  0.00     0.000 HD 
BRANCH  21  23
HETATM   23  C   UNL     1      -7.641  10.705  68.262  1.00  0.00    -0.097 A  
HETATM   24  C   UNL     1      -8.111   9.628  67.496  1.00  0.00    -0.114 A  
HETATM   25  C   UNL     1      -7.354   8.461  67.365  1.00  0.00    -0.089 A  
HETATM   26  C   UNL     1      -6.396  10.622  68.887  1.00  0.00    -0.045 A  
HETATM   27  C   UNL     1      -6.108   8.365  68.007  1.00  0.00    -0.051 A  
HETATM   28  C   UNL     1      -5.637   9.458  68.759  1.00  0.00    -0.037 A  
HETATM   29  C   UNL     1      -5.227   7.148  67.918  1.00  0.00    -0.019 C  
BRANCH  25  30
HETATM   30  C   UNL     1      -7.900   7.382  66.591  1.00  0.00    -0.109 C  
HETATM   31  C   UNL     1      -8.317   6.453  65.954  1.00  0.00    -0.143 C  
BRANCH  31  32
HETATM   32  C   UNL     1      -8.691   5.314  65.189  1.00  0.00    -0.146 A  
HETATM   33  C   UNL     1      -9.948   4.762  65.085  1.00  0.00     0.011 A  
HETATM   34  N   UNL     1      -9.951   3.669  64.253  1.00  0.00    -0.181 NA 
HETATM   35  C   UNL     1      -8.704   3.554  63.846  1.00  0.00    -0.094 A  
HETATM   36  C   UNL     1      -8.108   2.616  62.975  1.00  0.00    -0.070 A  
HETATM   37  C   UNL     1      -6.800   2.707  62.709  1.00  0.00    -0.027 A  
HETATM   38  C   UNL     1      -6.052   3.810  63.364  1.00  0.00    -0.014 A  
HETATM   39  N   UNL     1      -6.542   4.697  64.168  1.00  0.00    -0.041 NA 
HETATM   40  N   UNL     1      -7.886   4.537  64.389  1.00  0.00    -0.084 NA 
ENDBRANCH  31  32
ENDBRANCH  25  30
ENDBRANCH  21  23
ENDBRANCH  12  19
ENDBRANCH   8   9
ENDBRANCH   5   8
TORSDOF 6
ENDMDL
MODEL      111
REMARK 921   NORMALIZED FREE ENERGY PREDICTED BY IDOCK:   30.29 KCAL/MOL
REMARK 922        TOTAL FREE ENERGY PREDICTED BY IDOCK:   39.60 KCAL/MOL
REMARK 923 INTER-LIGAND FREE ENERGY PREDICTED BY IDOCK:   37.07 KCAL/MOL
REMARK 924 INTRA-LIGAND FREE ENERGY PREDICTED BY IDOCK:    2.53 KCAL/MOL
REMARK 927      BINDING AFFINITY PREDICTED BY RF-SCORE:    0.00 PKD
ROOT
HETATM    1  C   UNL     1      -8.394   3.796  73.413  1.00  0.00    -0.088 C  
HETATM    2  N   UNL     1      -8.564   4.394  72.090  1.00  0.00    -0.111 NA 
HETATM    3  C   UNL     1      -7.290   4.958  71.596  1.00  0.00    -0.074 C  
HETATM    4  C   UNL     1      -6.273   3.914  71.078  1.00  0.00    -0.018 C  
HETATM    5  N   UNL     1      -6.815   2.972  70.078  1.00  0.00    -0.033 NA 
HETATM    6  C   UNL     1      -9.092   3.401  71.133  1.00  0.00    -0.109 C  
HETATM    7  C   UNL     1      -8.052   2.369  70.625  1.00  0.00    -0.045 C  
ENDROOT
BRANCH   5   8
HETATM    8  C   UNL     1      -7.118   3.600  68.786  1.00  0.00    -0.050 C  
BRANCH   8   9
HETATM    9  C   UNL     1      -7.263   5.103  68.837  1.00  0.00    -0.061 A  
HETATM   10  C   UNL     1      -6.144   5.834  69.265  1.00  0.00    -0.031 A  
HETATM   11  C   UNL     1      -6.209   7.210  69.455  1.00  0.00    -0.035 A  
HETATM   12  C   UNL     1      -7.395   7.899  69.232  1.00  0.00    -0.082 A  
HETATM   13  C   UNL     1      -8.494   7.192  68.726  1.00  0.00    -0.126 A  
HETATM   14  F   UNL     1     -10.065   5.568  66.777  1.00  0.00    -0.147 F  
HETATM   15  C   UNL     1      -8.452   5.789  68.526  1.00  0.00    -0.110 A  
HETATM   16  F   UNL     1      -9.722   3.770  67.951  1.00  0.00    -0.230 F  
HETATM   17  C   UNL     1      -9.718   5.125  68.020  1.00  0.00    -0.146 C  
HETATM   18  F   UNL     1     -10.786   5.433  68.818  1.00  0.00    -0.280 F  
BRANCH  12  19
HETATM   19  N   UNL     1      -7.558   9.271  69.535  1.00  0.00    -0.077 N  
HETATM   20  O   UNL     1      -9.508   9.755  68.342  1.00  0.00    -0.139 OA 
HETATM   21  C   UNL     1      -8.566  10.091  69.050  1.00  0.00    -0.153 C  
HETATM   22  H   UNL     1      -6.875   9.694  70.164  1.00  0.00     0.000 HD 
BRANCH  21  23
HETATM   23  C   UNL     1      -8.462  11.533  69.388  1.00  0.00     0.545 A  
HETATM   24  C   UNL     1      -9.104  12.448  68.541  1.00  0.00    -0.068 A  
HETATM   25  C   UNL     1      -9.071  13.818  68.813  1.00  0.00     0.027 A  
HETATM   26  C   UNL     1      -7.797  11.989  70.528  1.00  0.00     4.309 A  
HETATM   27  C   UNL     1      -8.387  14.285  69.949  1.00  0.00     0.956 A  
HETATM   28  C   UNL     1      -7.762  13.356  70.803  1.00  0.00     4.220 A  
HETATM   29  C   UNL     1      -8.302  15.741  70.318  1.00  0.00     1.146 C  
BRANCH  25  30
HETATM   30  C   UNL     1      -9.722  14.708  67.894  1.00  0.00    -0.216 C  
HETATM   31  C   UNL     1     -10.274  15.484  67.161  1.00  0.00    -0.260 C  
BRANCH  31  32
HETATM   32  C   UNL     1     -10.983  16.450  66.397  1.00  0.00     0.044 A  
HETATM   33  C   UNL     1     -11.059  17.804  66.637  1.00  0.00     0.439 A  
HETATM   34  N   UNL     1     -11.826  18.442  65.692  1.00  0.00     2.634 NA 
HETATM   35  C   UNL     1     -12.215  17.485  64.875  1.00  0.00     5.014 A  
HETATM   36  C   UNL     1     -13.020  17.541  63.716  1.00  0.00    11.294 A  
HETATM   37  C   UNL     1     -13.279  16.414  63.043  1.00  0.00     7.672 A  
HETATM   38  C   UNL     1     -12.691  15.158  63.573  1.00  0.00     1.383 A  
HETATM   39  N   UNL     1     -11.947  15.044  64.626  1.00  0.00    -0.399 NA 
HETATM   40  N   UNL     1     -11.728  16.241  65.260  1.00  0.00     0.473 NA 
ENDBRANCH  31  32
ENDBRANCH  25  30
ENDBRANCH  21  23
ENDBRANCH  12  19
ENDBRANCH   8   9
ENDBRANCH   5   8
TORSDOF 6
ENDMDL
MODEL      112
REMARK 921   NORMALIZED FREE ENERGY PREDICTED BY IDOCK:   32.99 KCAL/MOL
REMARK 922        TOTAL FREE ENERGY PREDICTED BY IDOCK:   43.25 KCAL/MOL
REMARK 923 INTER-LIGAND FREE ENERGY PREDICTED BY IDOCK:   38.55 KCAL/MOL
REMARK 924 INTRA-LIGAND FREE ENERGY PREDICTED BY IDOCK:    4.70 KCAL/MOL
REMARK 927      BINDING AFFINITY PREDICTED BY RF-SCORE:    0.00 PKD
ROOT
HETATM    1  C   UNL     1      -5.806   3.253  66.809  1.00  0.00    -0.023 C  
HETATM    2  N   UNL     1      -6.316   3.869  68.033  1.00  0.00    -0.036 NA 
HETATM    3  C   UNL     1      -7.520   4.680  67.757  1.00  0.00    -0.077 C  
HETATM    4  C   UNL     1      -8.817   3.867  67.535  1.00  0.00    -0.118 C  
HETATM    5  N   UNL     1      -9.118   2.888  68.598  1.00  0.00    -0.140 NA 
HETATM    6  C   UNL     1      -6.613   2.840  69.050  1.00  0.00    -0.033 C  
HETATM    7  C   UNL     1      -7.921   2.042  68.807  1.00  0.00    -0.052 C  
ENDROOT
BRANCH   5   8
HETATM    8  C   UNL     1      -9.498   3.507  69.873  1.00  0.00    -0.184 C  
BRANCH   8   9
HETATM    9  C   UNL     1      -9.804   4.984  69.788  1.00  0.00    -0.286 A  
HETATM   10  C   UNL     1      -9.277   5.800  70.802  1.00  0.00    -0.171 A  
HETATM   11  C   UNL     1      -9.593   7.152  70.879  1.00  0.00    -0.167 A  
HETATM   12  C   UNL     1     -10.452   7.731  69.952  1.00  0.00    -0.232 A  
HETATM   13  C   UNL     1     -10.917   6.945  68.890  1.00  0.00    -0.217 A  
HETATM   14  F   UNL     1     -10.760   5.271  66.424  1.00  0.00    -0.287 F  
HETATM   15  C   UNL     1     -10.611   5.564  68.791  1.00  0.00    -0.236 A  
HETATM   16  F   UNL     1     -11.026   3.460  67.599  1.00  0.00     2.187 F  
HETATM   17  C   UNL     1     -11.211   4.804  67.624  1.00  0.00     2.416 C  
HETATM   18  F   UNL     1     -12.569   4.966  67.580  1.00  0.00     7.251 F  
BRANCH  12  19
HETATM   19  N   UNL     1     -10.913   9.064  70.057  1.00  0.00    -0.272 N  
HETATM   20  O   UNL     1      -9.032  10.109  70.968  1.00  0.00     0.526 OA 
HETATM   21  C   UNL     1     -10.194  10.129  70.578  1.00  0.00     0.035 C  
HETATM   22  H   UNL     1     -11.857   9.259  69.721  1.00  0.00     0.000 HD 
BRANCH  21  23
HETATM   23  C   UNL     1     -10.926  11.413  70.719  1.00  0.00     1.476 A  
HETATM   24  C   UNL     1     -11.124  12.179  69.562  1.00  0.00    -0.117 A  
HETATM   25  C   UNL     1     -11.829  13.384  69.616  1.00  0.00    -0.394 A  
HETATM   26  C   UNL     1     -11.453  11.845  71.938  1.00  0.00     3.975 A  
HETATM   27  C   UNL     1     -12.346  13.834  70.843  1.00  0.00    -0.456 A  
HETATM   28  C   UNL     1     -12.156  13.048  71.996  1.00  0.00     1.112 A  
HETATM   29  C   UNL     1     -13.117  15.117  70.991  1.00  0.00    -0.513 C  
BRANCH  25  30
HETATM   30  C   UNL     1     -11.975  14.140  68.403  1.00  0.00    -0.366 C  
HETATM   31  C   UNL     1     -12.144  14.758  67.387  1.00  0.00    -0.122 C  
BRANCH  31  32
HETATM   32  C   UNL     1     -12.443  15.415  66.162  1.00  0.00     1.128 A  
HETATM   33  C   UNL     1     -13.488  15.142  65.309  1.00  0.00     1.685 A  
HETATM   34  N   UNL     1     -13.480  15.977  64.218  1.00  0.00     1.163 NA 
HETATM   35  C   UNL     1     -12.437  16.759  64.403  1.00  0.00     3.135 A  
HETATM   36  C   UNL     1     -11.930  17.813  63.611  1.00  0.00     8.682 A  
HETATM   37  C   UNL     1     -10.839  18.471  64.016  1.00  0.00     7.061 A  
HETATM   38  C   UNL     1     -10.223  18.038  65.296  1.00  0.00     0.731 A  
HETATM   39  N   UNL     1     -10.641  17.084  66.063  1.00  0.00    -0.262 NA 
HETATM   40  N   UNL     1     -11.762  16.459  65.580  1.00  0.00     0.750 NA 
ENDBRANCH  31  32
ENDBRANCH  25  30
ENDBRANCH  21  23
ENDBRANCH  12  19
ENDBRANCH   8   9
ENDBRANCH   5   8
TORSDOF 6
ENDMDL
MODEL      113
REMARK 921   NORMALIZED FREE ENERGY PREDICTED BY IDOCK:   33.37 KCAL/MOL
REMARK 922        TOTAL FREE ENERGY PREDICTED BY IDOCK:   43.76 KCAL/MOL
REMARK 923 INTER-LIGAND FREE ENERGY PREDICTED BY IDOCK:   43.22 KCAL/MOL
REMARK 924 INTRA-LIGAND FREE ENERGY PREDICTED BY IDOCK:    0.54 KCAL/MOL
REMARK 927      BINDING AFFINITY PREDICTED BY RF-SCORE:    0.00 PKD
ROOT
HETATM    1  C   UNL     1     -12.503  16.252  67.947  1.00  0.00     1.815 C  
HETATM    2  N   UNL     1     -11.089  16.131  67.593  1.00  0.00    -0.264 NA 
HETATM    3  C   UNL     1     -10.817  14.837  66.932  1.00  0.00    -0.316 C  
HETATM    4  C   UNL     1     -11.273  14.750  65.457  1.00  0.00    -0.346 C  
HETATM    5  N   UNL     1     -10.790  15.851  64.600  1.00  0.00    -0.564 NA 
HETATM    6  C   UNL     1     -10.671  17.249  66.724  1.00  0.00    -0.095 C  
HETATM    7  C   UNL     1     -11.137  17.136  65.249  1.00  0.00     0.168 C  
ENDROOT
BRANCH   5   8
HETATM    8  C   UNL     1      -9.344  15.812  64.354  1.00  0.00     4.460 C  
BRANCH   8   9
HETATM    9  C   UNL     1      -8.689  14.487  64.671  1.00  0.00     5.376 A  
HETATM   10  C   UNL     1      -9.424  13.329  64.373  1.00  0.00     1.014 A  
HETATM   11  C   UNL     1      -8.961  12.067  64.730  1.00  0.00     0.648 A  
HETATM   12  C   UNL     1      -7.753  11.921  65.401  1.00  0.00     1.638 A  
HETATM   13  C   UNL     1      -6.973  13.063  65.629  1.00  0.00     5.696 A  
HETATM   14  F   UNL     1      -5.329  15.458  64.949  1.00  0.00     8.024 F  
HETATM   15  C   UNL     1      -7.425  14.360  65.278  1.00  0.00     9.238 A  
HETATM   16  F   UNL     1      -7.000  16.773  65.401  1.00  0.00     0.543 F  
HETATM   17  C   UNL     1      -6.516  15.524  65.618  1.00  0.00     6.704 C  
HETATM   18  F   UNL     1      -6.178  15.512  66.944  1.00  0.00    -0.038 F  
BRANCH  12  19
HETATM   19  N   UNL     1      -7.296  10.681  65.905  1.00  0.00    -0.194 N  
HETATM   20  O   UNL     1      -6.083   9.884  64.074  1.00  0.00    -0.107 OA 
HETATM   21  C   UNL     1      -6.536   9.756  65.205  1.00  0.00    -0.089 C  
HETATM   22  H   UNL     1      -7.548  10.447  66.866  1.00  0.00     0.000 HD 
BRANCH  21  23
HETATM   23  C   UNL     1      -6.287   8.459  65.884  1.00  0.00    -0.052 A  
HETATM   24  C   UNL     1      -7.100   8.132  66.979  1.00  0.00    -0.079 A  
HETATM   25  C   UNL     1      -6.941   6.916  67.648  1.00  0.00    -0.083 A  
HETATM   26  C   UNL     1      -5.319   7.556  65.443  1.00  0.00    -0.029 A  
HETATM   27  C   UNL     1      -5.956   6.011  67.221  1.00  0.00    -0.018 A  
HETATM   28  C   UNL     1      -5.156   6.341  66.110  1.00  0.00    -0.013 A  
HETATM   29  C   UNL     1      -5.716   4.680  67.882  1.00  0.00    -0.021 C  
BRANCH  25  30
HETATM   30  C   UNL     1      -7.784   6.650  68.780  1.00  0.00    -0.109 C  
HETATM   31  C   UNL     1      -8.485   6.473  69.740  1.00  0.00    -0.131 C  
BRANCH  31  32
HETATM   32  C   UNL     1      -9.258   6.365  70.928  1.00  0.00    -0.158 A  
HETATM   33  C   UNL     1      -8.787   6.240  72.215  1.00  0.00    -0.136 A  
HETATM   34  N   UNL     1      -9.815   6.167  73.124  1.00  0.00    -0.163 NA 
HETATM   35  C   UNL     1     -10.910   6.251  72.398  1.00  0.00    -0.243 A  
HETATM   36  C   UNL     1     -12.269   6.236  72.784  1.00  0.00     0.280 A  
HETATM   37  C   UNL     1     -13.217   6.338  71.847  1.00  0.00     0.361 A  
HETATM   38  C   UNL     1     -12.767   6.462  70.437  1.00  0.00     1.147 A  
HETATM   39  N   UNL     1     -11.541   6.483  70.024  1.00  0.00    -0.417 NA 
HETATM   40  N   UNL     1     -10.629   6.373  71.042  1.00  0.00    -0.226 NA 
ENDBRANCH  31  32
ENDBRANCH  25  30
ENDBRANCH  21  23
ENDBRANCH  12  19
ENDBRANCH   8   9
ENDBRANCH   5   8
TORSDOF 6
ENDMDL
MODEL      114
REMARK 921   NORMALIZED FREE ENERGY PREDICTED BY IDOCK:   36.00 KCAL/MOL
REMARK 922        TOTAL FREE ENERGY PREDICTED BY IDOCK:   47.31 KCAL/MOL
REMARK 923 INTER-LIGAND FREE ENERGY PREDICTED BY IDOCK:   43.49 KCAL/MOL
REMARK 924 INTRA-LIGAND FREE ENERGY PREDICTED BY IDOCK:    3.83 KCAL/MOL
REMARK 927      BINDING AFFINITY PREDICTED BY RF-SCORE:    0.00 PKD
ROOT
HETATM    1  C   UNL     1     -12.010   8.386  64.495  1.00  0.00    17.745 C  
HETATM    2  N   UNL     1     -11.057   9.023  65.403  1.00  0.00     3.635 NA 
HETATM    3  C   UNL     1     -11.112   8.411  66.746  1.00  0.00     0.861 C  
HETATM    4  C   UNL     1     -10.419   7.033  66.864  1.00  0.00    -0.286 C  
HETATM    5  N   UNL     1      -9.030   7.001  66.365  1.00  0.00    -0.150 NA 
HETATM    6  C   UNL     1      -9.686   8.945  64.858  1.00  0.00     0.770 C  
HETATM    7  C   UNL     1      -9.012   7.554  64.992  1.00  0.00     0.459 C  
ENDROOT
BRANCH   5   8
HETATM    8  C   UNL     1      -8.090   7.758  67.201  1.00  0.00    -0.118 C  
BRANCH   8   9
HETATM    9  C   UNL     1      -8.278   9.257  67.157  1.00  0.00    -0.117 A  
HETATM   10  C   UNL     1      -9.240   9.800  68.023  1.00  0.00    -0.131 A  
HETATM   11  C   UNL     1      -9.571  11.150  67.980  1.00  0.00    -0.181 A  
HETATM   12  C   UNL     1      -8.956  12.000  67.067  1.00  0.00    -0.198 A  
HETATM   13  C   UNL     1      -7.937  11.484  66.256  1.00  0.00     0.019 A  
HETATM   14  F   UNL     1      -5.300  10.254  65.591  1.00  0.00    -0.044 F  
HETATM   15  C   UNL     1      -7.584  10.111  66.280  1.00  0.00    -0.111 A  
HETATM   16  F   UNL     1      -6.250   8.327  65.251  1.00  0.00    -0.044 F  
HETATM   17  C   UNL     1      -6.499   9.660  65.322  1.00  0.00    -0.083 C  
HETATM   18  F   UNL     1      -6.795  10.024  64.037  1.00  0.00    -0.113 F  
BRANCH  12  19
HETATM   19  N   UNL     1      -9.344  13.348  66.887  1.00  0.00    -0.245 N  
HETATM   20  O   UNL     1     -11.287  13.079  65.617  1.00  0.00    -0.291 OA 
HETATM   21  C   UNL     1     -10.443  13.782  66.161  1.00  0.00    -0.297 C  
HETATM   22  H   UNL     1      -8.766  14.063  67.330  1.00  0.00     0.000 HD 
BRANCH  21  23
HETATM   23  C   UNL     1     -10.581  15.250  65.988  1.00  0.00    -0.327 A  
HETATM   24  C   UNL     1     -10.303  16.064  67.096  1.00  0.00    -0.295 A  
HETATM   25  C   UNL     1     -10.385  17.455  66.999  1.00  0.00    -0.318 A  
HETATM   26  C   UNL     1     -10.926  15.832  64.767  1.00  0.00    -0.410 A  
HETATM   27  C   UNL     1     -10.750  18.046  65.778  1.00  0.00    -0.091 A  
HETATM   28  C   UNL     1     -11.009  17.221  64.666  1.00  0.00     0.796 A  
HETATM   29  C   UNL     1     -10.861  19.534  65.583  1.00  0.00    -0.354 C  
BRANCH  25  30
HETATM   30  C   UNL     1     -10.118  18.234  68.175  1.00  0.00    -0.397 C  
HETATM   31  C   UNL     1      -9.898  18.845  69.186  1.00  0.00    -0.292 C  
BRANCH  31  32
HETATM   32  C   UNL     1      -9.696  19.476  70.444  1.00  0.00     1.114 A  
HETATM   33  C   UNL     1      -8.943  20.600  70.696  1.00  0.00     2.241 A  
HETATM   34  N   UNL     1      -8.972  20.939  72.027  1.00  0.00     1.833 NA 
HETATM   35  C   UNL     1      -9.742  20.029  72.587  1.00  0.00     3.252 A  
HETATM   36  C   UNL     1     -10.139  19.868  73.933  1.00  0.00     5.479 A  
HETATM   37  C   UNL     1     -10.940  18.848  74.262  1.00  0.00     3.267 A  
HETATM   38  C   UNL     1     -11.363  17.939  73.168  1.00  0.00     1.895 A  
HETATM   39  N   UNL     1     -11.035  18.036  71.920  1.00  0.00     2.231 NA 
HETATM   40  N   UNL     1     -10.214  19.105  71.663  1.00  0.00     2.782 NA 
ENDBRANCH  31  32
ENDBRANCH  25  30
ENDBRANCH  21  23
ENDBRANCH  12  19
ENDBRANCH   8   9
ENDBRANCH   5   8
TORSDOF 6
ENDMDL
MODEL      115
REMARK 921   NORMALIZED FREE ENERGY PREDICTED BY IDOCK:   39.85 KCAL/MOL
REMARK 922        TOTAL FREE ENERGY PREDICTED BY IDOCK:   52.52 KCAL/MOL
REMARK 923 INTER-LIGAND FREE ENERGY PREDICTED BY IDOCK:   46.61 KCAL/MOL
REMARK 924 INTRA-LIGAND FREE ENERGY PREDICTED BY IDOCK:    5.91 KCAL/MOL
REMARK 927      BINDING AFFINITY PREDICTED BY RF-SCORE:    0.00 PKD
ROOT
HETATM    1  C   UNL     1      -6.532   5.298  74.433  1.00  0.00    -0.070 C  
HETATM    2  N   UNL     1      -6.802   6.001  73.180  1.00  0.00    -0.078 NA 
HETATM    3  C   UNL     1      -6.066   5.385  72.056  1.00  0.00    -0.034 C  
HETATM    4  C   UNL     1      -6.668   4.061  71.531  1.00  0.00    -0.026 C  
HETATM    5  N   UNL     1      -8.105   4.128  71.199  1.00  0.00    -0.071 NA 
HETATM    6  C   UNL     1      -8.251   6.022  72.895  1.00  0.00    -0.117 C  
HETATM    7  C   UNL     1      -8.829   4.683  72.366  1.00  0.00    -0.118 C  
ENDROOT
BRANCH   5   8
HETATM    8  C   UNL     1      -8.395   4.950  70.018  1.00  0.00    -0.073 C  
BRANCH   8   9
HETATM    9  C   UNL     1      -8.505   6.431  70.296  1.00  0.00    -0.135 A  
HETATM   10  C   UNL     1      -9.772   6.917  70.656  1.00  0.00    -0.180 A  
HETATM   11  C   UNL     1     -10.004   8.278  70.820  1.00  0.00    -0.217 A  
HETATM   12  C   UNL     1      -8.981   9.199  70.624  1.00  0.00    -0.244 A  
HETATM   13  C   UNL     1      -7.694   8.719  70.346  1.00  0.00    -0.091 A  
HETATM   14  F   UNL     1      -5.135   7.259  70.821  1.00  0.00    -0.022 F  
HETATM   15  C   UNL     1      -7.434   7.336  70.171  1.00  0.00    -0.088 A  
HETATM   16  F   UNL     1      -5.787   5.634  69.530  1.00  0.00    -0.013 F  
HETATM   17  C   UNL     1      -6.011   6.940  69.825  1.00  0.00    -0.023 C  
HETATM   18  F   UNL     1      -5.565   7.622  68.727  1.00  0.00    -0.023 F  
BRANCH  12  19
HETATM   19  N   UNL     1      -9.189  10.598  70.647  1.00  0.00     1.154 N  
HETATM   20  O   UNL     1      -7.002  11.370  70.364  1.00  0.00     0.075 OA 
HETATM   21  C   UNL     1      -8.197  11.563  70.550  1.00  0.00     4.177 C  
HETATM   22  H   UNL     1     -10.150  10.925  70.744  1.00  0.00     0.000 HD 
BRANCH  21  23
HETATM   23  C   UNL     1      -8.628  12.971  70.738  1.00  0.00     7.906 A  
HETATM   24  C   UNL     1      -8.514  13.838  69.641  1.00  0.00     1.188 A  
HETATM   25  C   UNL     1      -8.926  15.169  69.738  1.00  0.00     0.037 A  
HETATM   26  C   UNL     1      -9.176  13.434  71.936  1.00  0.00    14.329 A  
HETATM   27  C   UNL     1      -9.461  15.646  70.947  1.00  0.00     1.876 A  
HETATM   28  C   UNL     1      -9.588  14.763  72.036  1.00  0.00     4.757 A  
HETATM   29  C   UNL     1      -9.930  17.063  71.139  1.00  0.00     3.692 C  
BRANCH  25  30
HETATM   30  C   UNL     1      -8.758  16.016  68.590  1.00  0.00    -0.206 C  
HETATM   31  C   UNL     1      -8.570  16.715  67.632  1.00  0.00    -0.207 C  
BRANCH  31  32
HETATM   32  C   UNL     1      -8.227  17.551  66.534  1.00  0.00    -0.276 A  
HETATM   33  C   UNL     1      -7.060  17.523  65.803  1.00  0.00    -0.031 A  
HETATM   34  N   UNL     1      -7.066  18.470  64.807  1.00  0.00     0.534 NA 
HETATM   35  C   UNL     1      -8.231  19.072  64.925  1.00  0.00     2.788 A  
HETATM   36  C   UNL     1      -8.797  20.126  64.174  1.00  0.00     4.994 A  
HETATM   37  C   UNL     1     -10.017  20.575  64.491  1.00  0.00     2.603 A  
HETATM   38  C   UNL     1     -10.703  19.921  65.634  1.00  0.00    -0.272 A  
HETATM   39  N   UNL     1     -10.238  18.954  66.356  1.00  0.00    -0.401 NA 
HETATM   40  N   UNL     1      -8.985  18.551  65.970  1.00  0.00    -0.484 NA 
ENDBRANCH  31  32
ENDBRANCH  25  30
ENDBRANCH  21  23
ENDBRANCH  12  19
ENDBRANCH   8   9
ENDBRANCH   5   8
TORSDOF 6
ENDMDL
MODEL      116
REMARK 921   NORMALIZED FREE ENERGY PREDICTED BY IDOCK:   41.52 KCAL/MOL
REMARK 922        TOTAL FREE ENERGY PREDICTED BY IDOCK:   54.77 KCAL/MOL
REMARK 923 INTER-LIGAND FREE ENERGY PREDICTED BY IDOCK:   -3.11 KCAL/MOL
REMARK 924 INTRA-LIGAND FREE ENERGY PREDICTED BY IDOCK:   57.88 KCAL/MOL
REMARK 927      BINDING AFFINITY PREDICTED BY RF-SCORE:    0.00 PKD
ROOT
HETATM    1  C   UNL     1      -8.235   4.411  73.077  1.00  0.00    -0.095 C  
HETATM    2  N   UNL     1      -8.029   5.167  71.843  1.00  0.00    -0.110 NA 
HETATM    3  C   UNL     1      -6.597   5.476  71.643  1.00  0.00    -0.052 C  
HETATM    4  C   UNL     1      -5.737   4.290  71.149  1.00  0.00    -0.012 C  
HETATM    5  N   UNL     1      -6.264   3.605  69.952  1.00  0.00    -0.027 NA 
HETATM    6  C   UNL     1      -8.561   4.426  70.682  1.00  0.00    -0.082 C  
HETATM    7  C   UNL     1      -7.678   3.244  70.203  1.00  0.00    -0.043 C  
ENDROOT
BRANCH   5   8
HETATM    8  C   UNL     1      -6.186   4.417  68.731  1.00  0.00    -0.032 C  
BRANCH   8   9
HETATM    9  C   UNL     1      -6.227   5.909  68.966  1.00  0.00    -0.036 A  
HETATM   10  C   UNL     1      -5.404   6.702  68.150  1.00  0.00    -0.011 A  
HETATM   11  C   UNL     1      -5.282   8.071  68.360  1.00  0.00    -0.032 A  
HETATM   12  C   UNL     1      -5.971   8.692  69.395  1.00  0.00    -0.040 A  
HETATM   13  C   UNL     1      -6.858   7.925  70.162  1.00  0.00    -0.045 A  
HETATM   14  F   UNL     1      -9.238   6.220  70.741  1.00  0.00    -0.149 F  
HETATM   15  C   UNL     1      -6.997   6.527  69.969  1.00  0.00    -0.063 A  
HETATM   16  F   UNL     1      -7.989   4.441  70.795  1.00  0.00    -0.059 F  
HETATM   17  C   UNL     1      -7.951   5.794  70.892  1.00  0.00    -0.111 C  
HETATM   18  F   UNL     1      -7.648   6.036  72.204  1.00  0.00    -0.090 F  
BRANCH  12  19
HETATM   19  N   UNL     1      -5.784  10.051  69.739  1.00  0.00    -0.040 N  
HETATM   20  O   UNL     1      -8.001  10.760  69.944  1.00  0.00     0.057 OA 
HETATM   21  C   UNL     1      -6.796  10.976  69.952  1.00  0.00    -0.095 C  
HETATM   22  H   UNL     1      -4.824  10.379  69.838  1.00  0.00     0.000 HD 
BRANCH  21  23
HETATM   23  C   UNL     1      -6.368  12.382  70.166  1.00  0.00     0.053 A  
HETATM   24  C   UNL     1      -6.920  13.364  69.330  1.00  0.00     0.067 A  
HETATM   25  C   UNL     1      -6.583  14.710  69.492  1.00  0.00    -0.149 A  
HETATM   26  C   UNL     1      -5.486  12.751  71.183  1.00  0.00    -0.132 A  
HETATM   27  C   UNL     1      -5.682  15.086  70.503  1.00  0.00    -0.138 A  
HETATM   28  C   UNL     1      -5.147  14.094  71.347  1.00  0.00    -0.147 A  
HETATM   29  C   UNL     1      -5.266  16.511  70.748  1.00  0.00    -0.176 C  
BRANCH  25  30
HETATM   30  C   UNL     1      -7.159  15.666  68.588  1.00  0.00    -0.127 C  
HETATM   31  C   UNL     1      -7.596  16.487  67.827  1.00  0.00    -0.162 C  
BRANCH  31  32
HETATM   32  C   UNL     1      -8.015  17.530  66.957  1.00  0.00    -0.216 A  
HETATM   33  C   UNL     1      -9.248  17.665  66.359  1.00  0.00    -0.244 A  
HETATM   34  N   UNL     1      -9.311  18.798  65.584  1.00  0.00    -0.141 NA 
HETATM   35  C   UNL     1      -8.125  19.356  65.710  1.00  0.00    -0.001 A  
HETATM   36  C   UNL     1      -7.606  20.543  65.145  1.00  0.00     0.354 A  
HETATM   37  C   UNL     1      -6.351  20.908  65.427  1.00  0.00    -0.226 A  
HETATM   38  C   UNL     1      -5.574  20.021  66.330  1.00  0.00    -0.173 A  
HETATM   39  N   UNL     1      -5.993  18.926  66.876  1.00  0.00    -0.162 NA 
HETATM   40  N   UNL     1      -7.288  18.620  66.540  1.00  0.00    -0.229 NA 
ENDBRANCH  31  32
ENDBRANCH  25  30
ENDBRANCH  21  23
ENDBRANCH  12  19
ENDBRANCH   8   9
ENDBRANCH   5   8
TORSDOF 6
ENDMDL
MODEL      117
REMARK 921   NORMALIZED FREE ENERGY PREDICTED BY IDOCK:   44.42 KCAL/MOL
REMARK 922        TOTAL FREE ENERGY PREDICTED BY IDOCK:   58.68 KCAL/MOL
REMARK 923 INTER-LIGAND FREE ENERGY PREDICTED BY IDOCK:   13.53 KCAL/MOL
REMARK 924 INTRA-LIGAND FREE ENERGY PREDICTED BY IDOCK:   45.15 KCAL/MOL
REMARK 927      BINDING AFFINITY PREDICTED BY RF-SCORE:    0.00 PKD
ROOT
HETATM    1  C   UNL     1      -9.885  17.708  67.879  1.00  0.00    -0.300 C  
HETATM    2  N   UNL     1      -9.754  16.419  67.202  1.00  0.00    -0.235 NA 
HETATM    3  C   UNL     1     -10.894  15.534  67.520  1.00  0.00    -0.306 C  
HETATM    4  C   UNL     1     -12.209  15.874  66.781  1.00  0.00     1.501 C  
HETATM    5  N   UNL     1     -12.076  15.996  65.316  1.00  0.00     0.807 NA 
HETATM    6  C   UNL     1      -9.641  16.606  65.741  1.00  0.00    -0.116 C  
HETATM    7  C   UNL     1     -10.974  16.942  65.023  1.00  0.00    -0.046 C  
ENDROOT
BRANCH   5   8
HETATM    8  C   UNL     1     -11.805  14.720  64.643  1.00  0.00    -0.436 C  
BRANCH   8   9
HETATM    9  C   UNL     1     -11.773  13.521  65.562  1.00  0.00    -0.361 A  
HETATM   10  C   UNL     1     -11.930  12.260  64.965  1.00  0.00    -0.413 A  
HETATM   11  C   UNL     1     -12.029  11.104  65.732  1.00  0.00     1.370 A  
HETATM   12  C   UNL     1     -11.982  11.171  67.120  1.00  0.00     0.764 A  
HETATM   13  C   UNL     1     -11.744  12.413  67.722  1.00  0.00    -0.413 A  
HETATM   14  F   UNL     1     -10.247  14.903  68.403  1.00  0.00    -0.214 F  
HETATM   15  C   UNL     1     -11.642  13.605  66.961  1.00  0.00    -0.389 A  
HETATM   16  F   UNL     1     -11.463  16.052  67.014  1.00  0.00    -0.136 F  
HETATM   17  C   UNL     1     -11.431  14.898  67.727  1.00  0.00    -0.338 C  
HETATM   18  F   UNL     1     -12.391  15.060  68.688  1.00  0.00    -0.245 F  
BRANCH  12  19
HETATM   19  N   UNL     1     -12.210  10.050  67.953  1.00  0.00     1.790 N  
HETATM   20  O   UNL     1     -14.004  10.818  69.239  1.00  0.00     2.742 OA 
HETATM   21  C   UNL     1     -13.166   9.970  68.955  1.00  0.00     4.357 C  
HETATM   22  H   UNL     1     -11.621   9.231  67.804  1.00  0.00     0.000 HD 
BRANCH  21  23
HETATM   23  C   UNL     1     -13.135   8.749  69.798  1.00  0.00     2.820 A  
HETATM   24  C   UNL     1     -12.044   7.881  69.646  1.00  0.00     1.210 A  
HETATM   25  C   UNL     1     -11.935   6.727  70.426  1.00  0.00    -0.343 A  
HETATM   26  C   UNL     1     -14.117   8.470  70.750  1.00  0.00     0.363 A  
HETATM   27  C   UNL     1     -12.930   6.432  71.373  1.00  0.00     0.271 A  
HETATM   28  C   UNL     1     -14.012   7.318  71.530  1.00  0.00    -0.486 A  
HETATM   29  C   UNL     1     -12.892   5.213  72.255  1.00  0.00     1.538 C  
BRANCH  25  30
HETATM   30  C   UNL     1     -10.810   5.862  70.205  1.00  0.00    -0.402 C  
HETATM   31  C   UNL     1      -9.898   5.101  70.029  1.00  0.00    -0.295 C  
BRANCH  31  32
HETATM   32  C   UNL     1      -8.881   4.116  69.891  1.00  0.00    -0.082 A  
HETATM   33  C   UNL     1      -8.499   3.183  70.828  1.00  0.00    -0.064 A  
HETATM   34  N   UNL     1      -7.487   2.381  70.358  1.00  0.00    -0.039 NA 
HETATM   35  C   UNL     1      -7.253   2.819  69.138  1.00  0.00    -0.044 A  
HETATM   36  C   UNL     1      -6.323   2.379  68.170  1.00  0.00    -0.029 A  
HETATM   37  C   UNL     1      -6.274   2.993  66.983  1.00  0.00    -0.028 A  
HETATM   38  C   UNL     1      -7.217   4.118  66.762  1.00  0.00    -0.072 A  
HETATM   39  N   UNL     1      -8.089   4.564  67.608  1.00  0.00    -0.099 NA 
HETATM   40  N   UNL     1      -8.078   3.884  68.799  1.00  0.00    -0.070 NA 
ENDBRANCH  31  32
ENDBRANCH  25  30
ENDBRANCH  21  23
ENDBRANCH  12  19
ENDBRANCH   8   9
ENDBRANCH   5   8
TORSDOF 6
ENDMDL
MODEL      118
REMARK 921   NORMALIZED FREE ENERGY PREDICTED BY IDOCK:   47.34 KCAL/MOL
REMARK 922        TOTAL FREE ENERGY PREDICTED BY IDOCK:   62.64 KCAL/MOL
REMARK 923 INTER-LIGAND FREE ENERGY PREDICTED BY IDOCK:   62.13 KCAL/MOL
REMARK 924 INTRA-LIGAND FREE ENERGY PREDICTED BY IDOCK:    0.51 KCAL/MOL
REMARK 927      BINDING AFFINITY PREDICTED BY RF-SCORE:    0.00 PKD
ROOT
HETATM    1  C   UNL     1     -12.799  15.344  67.510  1.00  0.00     2.307 C  
HETATM    2  N   UNL     1     -11.397  15.215  67.117  1.00  0.00    -0.323 NA 
HETATM    3  C   UNL     1     -11.151  13.921  66.447  1.00  0.00    -0.309 C  
HETATM    4  C   UNL     1     -11.648  13.840  64.984  1.00  0.00    -0.341 C  
HETATM    5  N   UNL     1     -11.184  14.939  64.116  1.00  0.00     0.035 NA 
HETATM    6  C   UNL     1     -10.997  16.333  66.238  1.00  0.00     0.008 C  
HETATM    7  C   UNL     1     -11.505  16.225  64.776  1.00  0.00    -0.121 C  
ENDROOT
BRANCH   5   8
HETATM    8  C   UNL     1      -9.745  14.892  63.830  1.00  0.00     5.922 C  
BRANCH   8   9
HETATM    9  C   UNL     1      -9.091  13.560  64.113  1.00  0.00     3.595 A  
HETATM   10  C   UNL     1      -9.844  12.410  63.824  1.00  0.00    -0.126 A  
HETATM   11  C   UNL     1      -9.381  11.141  64.153  1.00  0.00    -0.186 A  
HETATM   12  C   UNL     1      -8.155  10.979  64.788  1.00  0.00     0.333 A  
HETATM   13  C   UNL     1      -7.360  12.112  65.005  1.00  0.00     3.786 A  
HETATM   14  F   UNL     1      -5.717  14.502  64.303  1.00  0.00    16.152 F  
HETATM   15  C   UNL     1      -7.812  13.416  64.681  1.00  0.00     9.356 A  
HETATM   16  F   UNL     1      -7.364  15.825  64.818  1.00  0.00     5.563 F  
HETATM   17  C   UNL     1      -6.883  14.570  65.007  1.00  0.00    14.740 C  
HETATM   18  F   UNL     1      -6.507  14.541  66.322  1.00  0.00     2.042 F  
BRANCH  12  19
HETATM   19  N   UNL     1      -7.693   9.730  65.264  1.00  0.00    -0.116 N  
HETATM   20  O   UNL     1      -6.532   8.949  63.394  1.00  0.00    -0.089 OA 
HETATM   21  C   UNL     1      -6.956   8.809  64.534  1.00  0.00    -0.084 C  
HETATM   22  H   UNL     1      -7.922   9.485  66.228  1.00  0.00     0.000 HD 
BRANCH  21  23
HETATM   23  C   UNL     1      -6.699   7.502  65.191  1.00  0.00    -0.044 A  
HETATM   24  C   UNL     1      -7.490   7.164  66.298  1.00  0.00    -0.087 A  
HETATM   25  C   UNL     1      -7.322   5.939  66.948  1.00  0.00    -0.079 A  
HETATM   26  C   UNL     1      -5.744   6.601  64.717  1.00  0.00    -0.031 A  
HETATM   27  C   UNL     1      -6.349   5.035  66.488  1.00  0.00    -0.036 A  
HETATM   28  C   UNL     1      -5.572   5.377  65.364  1.00  0.00    -0.013 A  
HETATM   29  C   UNL     1      -6.102   3.695  67.126  1.00  0.00    -0.025 C  
BRANCH  25  30
HETATM   30  C   UNL     1      -8.142   5.661  68.094  1.00  0.00    -0.097 C  
HETATM   31  C   UNL     1      -8.858   5.401  69.023  1.00  0.00    -0.108 C  
BRANCH  31  32
HETATM   32  C   UNL     1      -9.796   5.074  70.040  1.00  0.00    -0.228 A  
HETATM   33  C   UNL     1     -11.016   5.671  70.265  1.00  0.00    -0.217 A  
HETATM   34  N   UNL     1     -11.668   5.098  71.330  1.00  0.00     0.908 NA 
HETATM   35  C   UNL     1     -10.855   4.153  71.752  1.00  0.00     0.515 A  
HETATM   36  C   UNL     1     -10.993   3.233  72.815  1.00  0.00     0.032 A  
HETATM   37  C   UNL     1     -10.013   2.353  73.052  1.00  0.00    -0.187 A  
HETATM   38  C   UNL     1      -8.825   2.408  72.163  1.00  0.00    -0.070 A  
HETATM   39  N   UNL     1      -8.643   3.224  71.176  1.00  0.00    -0.067 NA 
HETATM   40  N   UNL     1      -9.689   4.093  70.998  1.00  0.00    -0.182 NA 
ENDBRANCH  31  32
ENDBRANCH  25  30
ENDBRANCH  21  23
ENDBRANCH  12  19
ENDBRANCH   8   9
ENDBRANCH   5   8
TORSDOF 6
ENDMDL
MODEL      119
REMARK 921   NORMALIZED FREE ENERGY PREDICTED BY IDOCK:   56.21 KCAL/MOL
REMARK 922        TOTAL FREE ENERGY PREDICTED BY IDOCK:   74.61 KCAL/MOL
REMARK 923 INTER-LIGAND FREE ENERGY PREDICTED BY IDOCK:   35.62 KCAL/MOL
REMARK 924 INTRA-LIGAND FREE ENERGY PREDICTED BY IDOCK:   38.99 KCAL/MOL
REMARK 927      BINDING AFFINITY PREDICTED BY RF-SCORE:    0.00 PKD
ROOT
HETATM    1  C   UNL     1     -12.158   3.538  68.525  1.00  0.00    17.945 C  
HETATM    2  N   UNL     1     -10.845   4.168  68.394  1.00  0.00     1.855 NA 
HETATM    3  C   UNL     1      -9.762   3.198  68.662  1.00  0.00     0.112 C  
HETATM    4  C   UNL     1      -9.482   2.200  67.515  1.00  0.00    -0.019 C  
HETATM    5  N   UNL     1      -9.266   2.826  66.195  1.00  0.00    -0.115 NA 
HETATM    6  C   UNL     1     -10.683   4.760  67.051  1.00  0.00     0.289 C  
HETATM    7  C   UNL     1     -10.399   3.739  65.919  1.00  0.00     0.399 C  
ENDROOT
BRANCH   5   8
HETATM    8  C   UNL     1      -8.009   3.578  66.103  1.00  0.00    -0.092 C  
BRANCH   8   9
HETATM    9  C   UNL     1      -8.182   5.066  65.898  1.00  0.00    -0.114 A  
HETATM   10  C   UNL     1      -7.014   5.845  65.895  1.00  0.00    -0.062 A  
HETATM   11  C   UNL     1      -7.071   7.232  65.829  1.00  0.00    -0.065 A  
HETATM   12  C   UNL     1      -8.296   7.888  65.770  1.00  0.00    -0.136 A  
HETATM   13  C   UNL     1      -9.463   7.116  65.688  1.00  0.00     0.398 A  
HETATM   14  F   UNL     1     -11.408   5.176  64.524  1.00  0.00     0.582 F  
HETATM   15  C   UNL     1      -9.430   5.701  65.757  1.00  0.00    -0.035 A  
HETATM   16  F   UNL     1     -10.742   3.632  65.903  1.00  0.00     0.276 F  
HETATM   17  C   UNL     1     -10.761   4.975  65.708  1.00  0.00    -0.079 C  
HETATM   18  F   UNL     1     -11.614   5.451  66.666  1.00  0.00     0.242 F  
BRANCH  12  19
HETATM   19  N   UNL     1      -8.421   9.295  65.834  1.00  0.00    -0.127 N  
HETATM   20  O   UNL     1      -8.929   9.792  63.609  1.00  0.00    -0.225 OA 
HETATM   21  C   UNL     1      -8.691  10.132  64.762  1.00  0.00    -0.185 C  
HETATM   22  H   UNL     1      -8.301   9.732  66.748  1.00  0.00     0.000 HD 
BRANCH  21  23
HETATM   23  C   UNL     1      -8.640  11.590  65.035  1.00  0.00     0.444 A  
HETATM   24  C   UNL     1      -9.249  12.054  66.209  1.00  0.00    -0.208 A  
HETATM   25  C   UNL     1      -9.216  13.410  66.544  1.00  0.00    -0.182 A  
HETATM   26  C   UNL     1      -7.974  12.486  64.196  1.00  0.00     5.136 A  
HETATM   27  C   UNL     1      -8.564  14.320  65.694  1.00  0.00     1.828 A  
HETATM   28  C   UNL     1      -7.939  13.841  64.527  1.00  0.00    10.523 A  
HETATM   29  C   UNL     1      -8.478  15.795  65.978  1.00  0.00     0.082 C  
BRANCH  25  30
HETATM   30  C   UNL     1      -9.882  13.829  67.745  1.00  0.00    -0.234 C  
HETATM   31  C   UNL     1     -10.429  14.226  68.738  1.00  0.00    -0.249 C  
BRANCH  31  32
HETATM   32  C   UNL     1     -11.007  14.800  69.903  1.00  0.00    -0.199 A  
HETATM   33  C   UNL     1     -10.921  16.112  70.311  1.00  0.00    -0.340 A  
HETATM   34  N   UNL     1     -11.606  16.322  71.483  1.00  0.00    -0.437 NA 
HETATM   35  C   UNL     1     -12.111  15.146  71.791  1.00  0.00    -0.370 A  
HETATM   36  C   UNL     1     -12.911  14.750  72.886  1.00  0.00    -0.559 A  
HETATM   37  C   UNL     1     -13.308  13.477  72.982  1.00  0.00     0.158 A  
HETATM   38  C   UNL     1     -12.870  12.549  71.909  1.00  0.00    -0.206 A  
HETATM   39  N   UNL     1     -12.141  12.851  70.883  1.00  0.00    -0.203 NA 
HETATM   40  N   UNL     1     -11.775  14.173  70.857  1.00  0.00    -0.206 NA 
ENDBRANCH  31  32
ENDBRANCH  25  30
ENDBRANCH  21  23
ENDBRANCH  12  19
ENDBRANCH   8   9
ENDBRANCH   5   8
TORSDOF 6
ENDMDL
MODEL      120
REMARK 921   NORMALIZED FREE ENERGY PREDICTED BY IDOCK:   61.08 KCAL/MOL
REMARK 922        TOTAL FREE ENERGY PREDICTED BY IDOCK:   81.19 KCAL/MOL
REMARK 923 INTER-LIGAND FREE ENERGY PREDICTED BY IDOCK:   76.13 KCAL/MOL
REMARK 924 INTRA-LIGAND FREE ENERGY PREDICTED BY IDOCK:    5.06 KCAL/MOL
REMARK 927      BINDING AFFINITY PREDICTED BY RF-SCORE:    0.00 PKD
ROOT
HETATM    1  C   UNL     1     -10.594   4.942  68.862  1.00  0.00     0.285 C  
HETATM    2  N   UNL     1      -9.217   5.431  68.818  1.00  0.00    -0.120 NA 
HETATM    3  C   UNL     1      -8.353   4.666  69.742  1.00  0.00    -0.074 C  
HETATM    4  C   UNL     1      -7.949   3.259  69.242  1.00  0.00    -0.049 C  
HETATM    5  N   UNL     1      -7.366   3.233  67.887  1.00  0.00    -0.054 NA 
HETATM    6  C   UNL     1      -8.684   5.365  67.442  1.00  0.00    -0.107 C  
HETATM    7  C   UNL     1      -8.284   3.943  66.967  1.00  0.00    -0.099 C  
ENDROOT
BRANCH   5   8
HETATM    8  C   UNL     1      -6.036   3.850  67.809  1.00  0.00    -0.027 C  
BRANCH   8   9
HETATM    9  C   UNL     1      -6.036   5.285  67.335  1.00  0.00    -0.030 A  
HETATM   10  C   UNL     1      -5.764   6.270  68.297  1.00  0.00    -0.012 A  
HETATM   11  C   UNL     1      -5.852   7.624  67.990  1.00  0.00    -0.039 A  
HETATM   12  C   UNL     1      -6.222   8.037  66.715  1.00  0.00    -0.054 A  
HETATM   13  C   UNL     1      -6.415   7.063  65.727  1.00  0.00    -0.051 A  
HETATM   14  F   UNL     1      -5.695   4.839  63.871  1.00  0.00    -0.015 F  
HETATM   15  C   UNL     1      -6.333   5.677  66.016  1.00  0.00    -0.039 A  
HETATM   16  F   UNL     1      -6.659   3.394  65.179  1.00  0.00    -0.035 F  
HETATM   17  C   UNL     1      -6.609   4.716  64.876  1.00  0.00    -0.044 C  
HETATM   18  F   UNL     1      -7.818   4.981  64.293  1.00  0.00    -0.075 F  
BRANCH  12  19
HETATM   19  N   UNL     1      -6.456   9.391  66.382  1.00  0.00    -0.066 N  
HETATM   20  O   UNL     1      -6.448   9.277  64.049  1.00  0.00    -0.087 OA 
HETATM   21  C   UNL     1      -6.519   9.908  65.097  1.00  0.00    -0.103 C  
HETATM   22  H   UNL     1      -6.592  10.045  67.154  1.00  0.00     0.000 HD 
BRANCH  21  23
HETATM   23  C   UNL     1      -6.636  11.383  64.985  1.00  0.00     1.382 A  
HETATM   24  C   UNL     1      -7.874  11.963  65.299  1.00  0.00     1.662 A  
HETATM   25  C   UNL     1      -8.048  13.348  65.243  1.00  0.00     4.637 A  
HETATM   26  C   UNL     1      -5.558  12.196  64.627  1.00  0.00     4.881 A  
HETATM   27  C   UNL     1      -6.973  14.170  64.866  1.00  0.00    15.505 A  
HETATM   28  C   UNL     1      -5.729  13.579  64.569  1.00  0.00    16.364 A  
HETATM   29  C   UNL     1      -7.072  15.669  64.780  1.00  0.00    11.967 C  
BRANCH  25  30
HETATM   30  C   UNL     1      -9.346  13.881  65.549  1.00  0.00     0.314 C  
HETATM   31  C   UNL     1     -10.412  14.371  65.809  1.00  0.00    -0.329 C  
BRANCH  31  32
HETATM   32  C   UNL     1     -11.610  15.045  66.173  1.00  0.00    -0.159 A  
HETATM   33  C   UNL     1     -12.578  15.531  65.323  1.00  0.00     0.934 A  
HETATM   34  N   UNL     1     -13.607  16.121  66.016  1.00  0.00     5.429 NA 
HETATM   35  C   UNL     1     -13.273  15.994  67.284  1.00  0.00     4.832 A  
HETATM   36  C   UNL     1     -13.946  16.408  68.454  1.00  0.00     7.545 A  
HETATM   37  C   UNL     1     -13.397  16.161  69.648  1.00  0.00     2.426 A  
HETATM   38  C   UNL     1     -12.090  15.456  69.660  1.00  0.00    -0.327 A  
HETATM   39  N   UNL     1     -11.428  15.052  68.624  1.00  0.00    -0.295 NA 
HETATM   40  N   UNL     1     -12.056  15.342  67.439  1.00  0.00     0.259 NA 
ENDBRANCH  31  32
ENDBRANCH  25  30
ENDBRANCH  21  23
ENDBRANCH  12  19
ENDBRANCH   8   9
ENDBRANCH   5   8
TORSDOF 6
ENDMDL
MODEL      121
REMARK 921   NORMALIZED FREE ENERGY PREDICTED BY IDOCK:   61.17 KCAL/MOL
REMARK 922        TOTAL FREE ENERGY PREDICTED BY IDOCK:   81.32 KCAL/MOL
REMARK 923 INTER-LIGAND FREE ENERGY PREDICTED BY IDOCK:   73.21 KCAL/MOL
REMARK 924 INTRA-LIGAND FREE ENERGY PREDICTED BY IDOCK:    8.11 KCAL/MOL
REMARK 927      BINDING AFFINITY PREDICTED BY RF-SCORE:    0.00 PKD
ROOT
HETATM    1  C   UNL     1     -13.213  17.242  68.525  1.00  0.00     6.722 C  
HETATM    2  N   UNL     1     -12.281  16.533  69.401  1.00  0.00     0.383 NA 
HETATM    3  C   UNL     1     -10.964  16.367  68.751  1.00  0.00    -0.344 C  
HETATM    4  C   UNL     1     -10.087  17.640  68.719  1.00  0.00    -0.377 C  
HETATM    5  N   UNL     1      -9.908  18.295  70.030  1.00  0.00     0.901 NA 
HETATM    6  C   UNL     1     -12.132  17.244  70.687  1.00  0.00     3.962 C  
HETATM    7  C   UNL     1     -11.244  18.515  70.630  1.00  0.00     4.105 C  
ENDROOT
BRANCH   5   8
HETATM    8  C   UNL     1      -9.084  17.520  70.965  1.00  0.00     6.492 C  
BRANCH   8   9
HETATM    9  C   UNL     1      -9.124  16.025  70.746  1.00  0.00     2.613 A  
HETATM   10  C   UNL     1      -9.629  15.577  69.515  1.00  0.00    -0.278 A  
HETATM   11  C   UNL     1      -9.814  14.223  69.259  1.00  0.00     0.100 A  
HETATM   12  C   UNL     1      -9.508  13.273  70.226  1.00  0.00     4.061 A  
HETATM   13  C   UNL     1      -8.926  13.703  71.426  1.00  0.00     9.796 A  
HETATM   14  F   UNL     1      -6.873  14.934  73.207  1.00  0.00     1.361 F  
HETATM   15  C   UNL     1      -8.730  15.078  71.711  1.00  0.00     5.037 A  
HETATM   16  F   UNL     1      -8.068  16.742  73.389  1.00  0.00    13.348 F  
HETATM   17  C   UNL     1      -8.137  15.426  73.062  1.00  0.00    10.246 C  
HETATM   18  F   UNL     1      -8.858  14.857  74.076  1.00  0.00     6.070 F  
BRANCH  12  19
HETATM   19  N   UNL     1      -9.798  11.897  70.073  1.00  0.00     1.317 N  
HETATM   20  O   UNL     1     -12.134  11.934  70.118  1.00  0.00    -0.317 OA 
HETATM   21  C   UNL     1     -11.066  11.336  70.063  1.00  0.00    -0.037 C  
HETATM   22  H   UNL     1      -9.006  11.263  69.960  1.00  0.00     0.000 HD 
BRANCH  21  23
HETATM   23  C   UNL     1     -11.130   9.853  70.030  1.00  0.00    -0.335 A  
HETATM   24  C   UNL     1     -10.517   9.200  68.950  1.00  0.00    -0.239 A  
HETATM   25  C   UNL     1     -10.514   7.805  68.868  1.00  0.00    -0.208 A  
HETATM   26  C   UNL     1     -11.729   9.105  71.045  1.00  0.00    -0.363 A  
HETATM   27  C   UNL     1     -11.131   7.047  69.878  1.00  0.00    -0.301 A  
HETATM   28  C   UNL     1     -11.728   7.712  70.966  1.00  0.00    -0.306 A  
HETATM   29  C   UNL     1     -11.174   5.543  69.870  1.00  0.00     0.232 C  
BRANCH  25  30
HETATM   30  C   UNL     1      -9.895   7.194  67.725  1.00  0.00    -0.175 C  
HETATM   31  C   UNL     1      -9.420   6.689  66.744  1.00  0.00    -0.194 C  
BRANCH  31  32
HETATM   32  C   UNL     1      -8.976   6.064  65.547  1.00  0.00    -0.024 A  
HETATM   33  C   UNL     1      -9.662   5.142  64.789  1.00  0.00     0.392 A  
HETATM   34  N   UNL     1      -8.935   4.751  63.691  1.00  0.00    -0.115 NA 
HETATM   35  C   UNL     1      -7.811   5.431  63.773  1.00  0.00    -0.097 A  
HETATM   36  C   UNL     1      -6.683   5.444  62.923  1.00  0.00    -0.026 A  
HETATM   37  C   UNL     1      -5.646   6.233  63.222  1.00  0.00    -0.018 A  
HETATM   38  C   UNL     1      -5.754   7.056  64.454  1.00  0.00    -0.033 A  
HETATM   39  N   UNL     1      -6.758   7.088  65.269  1.00  0.00    -0.050 NA 
HETATM   40  N   UNL     1      -7.780   6.253  64.894  1.00  0.00    -0.092 NA 
ENDBRANCH  31  32
ENDBRANCH  25  30
ENDBRANCH  21  23
ENDBRANCH  12  19
ENDBRANCH   8   9
ENDBRANCH   5   8
TORSDOF 6
ENDMDL
MODEL      122
REMARK 921   NORMALIZED FREE ENERGY PREDICTED BY IDOCK:   61.22 KCAL/MOL
REMARK 922        TOTAL FREE ENERGY PREDICTED BY IDOCK:   81.38 KCAL/MOL
REMARK 923 INTER-LIGAND FREE ENERGY PREDICTED BY IDOCK:   59.50 KCAL/MOL
REMARK 924 INTRA-LIGAND FREE ENERGY PREDICTED BY IDOCK:   21.88 KCAL/MOL
REMARK 927      BINDING AFFINITY PREDICTED BY RF-SCORE:    0.00 PKD
ROOT
HETATM    1  C   UNL     1      -6.103   3.907  67.102  1.00  0.00    -0.025 C  
HETATM    2  N   UNL     1      -6.050   4.780  68.274  1.00  0.00    -0.030 NA 
HETATM    3  C   UNL     1      -7.176   5.737  68.273  1.00  0.00    -0.076 C  
HETATM    4  C   UNL     1      -8.541   5.139  68.686  1.00  0.00    -0.087 C  
HETATM    5  N   UNL     1      -8.525   4.398  69.963  1.00  0.00    -0.065 NA 
HETATM    6  C   UNL     1      -6.053   3.983  69.517  1.00  0.00    -0.027 C  
HETATM    7  C   UNL     1      -7.435   3.398  69.912  1.00  0.00    -0.044 C  
ENDROOT
BRANCH   5   8
HETATM    8  C   UNL     1      -8.333   5.258  71.137  1.00  0.00    -0.122 C  
BRANCH   8   9
HETATM    9  C   UNL     1      -8.619   6.723  70.896  1.00  0.00    -0.137 A  
HETATM   10  C   UNL     1      -8.384   7.599  71.967  1.00  0.00    -0.129 A  
HETATM   11  C   UNL     1      -8.722   8.946  71.887  1.00  0.00    -0.086 A  
HETATM   12  C   UNL     1      -9.313   9.459  70.738  1.00  0.00    -0.226 A  
HETATM   13  C   UNL     1      -9.477   8.610  69.635  1.00  0.00    -0.162 A  
HETATM   14  F   UNL     1      -8.663   6.822  67.389  1.00  0.00    -0.118 F  
HETATM   15  C   UNL     1      -9.142   7.234  69.694  1.00  0.00    -0.140 A  
HETATM   16  F   UNL     1      -9.211   5.065  68.548  1.00  0.00    -0.113 F  
HETATM   17  C   UNL     1      -9.409   6.404  68.453  1.00  0.00    -0.121 C  
HETATM   18  F   UNL     1     -10.710   6.532  68.047  1.00  0.00    -0.195 F  
BRANCH  12  19
HETATM   19  N   UNL     1      -9.798  10.784  70.648  1.00  0.00     0.929 N  
HETATM   20  O   UNL     1      -8.403  11.867  72.177  1.00  0.00    14.258 OA 
HETATM   21  C   UNL     1      -9.337  11.865  71.384  1.00  0.00    12.702 C  
HETATM   22  H   UNL     1     -10.552  10.960  69.983  1.00  0.00     0.000 HD 
BRANCH  21  23
HETATM   23  C   UNL     1     -10.087  13.137  71.228  1.00  0.00     8.201 A  
HETATM   24  C   UNL     1     -10.368  13.569  69.924  1.00  0.00     1.088 A  
HETATM   25  C   UNL     1     -11.094  14.743  69.702  1.00  0.00    -0.299 A  
HETATM   26  C   UNL     1     -10.551  13.873  72.320  1.00  0.00     5.552 A  
HETATM   27  C   UNL     1     -11.547  15.498  70.797  1.00  0.00    -0.399 A  
HETATM   28  C   UNL     1     -11.275  15.045  72.102  1.00  0.00    -0.054 A  
HETATM   29  C   UNL     1     -12.335  16.771  70.650  1.00  0.00     2.324 C  
BRANCH  25  30
HETATM   30  C   UNL     1     -11.326  15.150  68.344  1.00  0.00    -0.326 C  
HETATM   31  C   UNL     1     -11.472  15.489  67.201  1.00  0.00    -0.067 C  
BRANCH  31  32
HETATM   32  C   UNL     1     -11.525  15.930  65.851  1.00  0.00     0.338 A  
HETATM   33  C   UNL     1     -10.889  17.025  65.311  1.00  0.00    -0.071 A  
HETATM   34  N   UNL     1     -11.156  17.152  63.969  1.00  0.00     0.138 NA 
HETATM   35  C   UNL     1     -11.948  16.139  63.687  1.00  0.00     1.545 A  
HETATM   36  C   UNL     1     -12.542  15.753  62.466  1.00  0.00     7.196 A  
HETATM   37  C   UNL     1     -13.321  14.666  62.430  1.00  0.00     5.843 A  
HETATM   38  C   UNL     1     -13.511  13.928  63.705  1.00  0.00     3.178 A  
HETATM   39  N   UNL     1     -12.994  14.231  64.851  1.00  0.00    -0.634 NA 
HETATM   40  N   UNL     1     -12.210  15.356  64.805  1.00  0.00    -0.044 NA 
ENDBRANCH  31  32
ENDBRANCH  25  30
ENDBRANCH  21  23
ENDBRANCH  12  19
ENDBRANCH   8   9
ENDBRANCH   5   8
TORSDOF 6
ENDMDL
MODEL      123
REMARK 921   NORMALIZED FREE ENERGY PREDICTED BY IDOCK:   76.78 KCAL/MOL
REMARK 922        TOTAL FREE ENERGY PREDICTED BY IDOCK:  102.41 KCAL/MOL
REMARK 923 INTER-LIGAND FREE ENERGY PREDICTED BY IDOCK:   93.99 KCAL/MOL
REMARK 924 INTRA-LIGAND FREE ENERGY PREDICTED BY IDOCK:    8.42 KCAL/MOL
REMARK 927      BINDING AFFINITY PREDICTED BY RF-SCORE:    0.00 PKD
ROOT
HETATM    1  C   UNL     1     -12.421  19.499  67.465  1.00  0.00     4.159 C  
HETATM    2  N   UNL     1     -11.233  18.663  67.300  1.00  0.00     0.061 NA 
HETATM    3  C   UNL     1     -11.477  17.582  66.321  1.00  0.00     1.481 C  
HETATM    4  C   UNL     1     -11.462  18.029  64.840  1.00  0.00     2.353 C  
HETATM    5  N   UNL     1     -10.264  18.793  64.441  1.00  0.00     3.461 NA 
HETATM    6  C   UNL     1     -10.074  19.480  66.885  1.00  0.00    -0.401 C  
HETATM    7  C   UNL     1     -10.082  19.911  65.395  1.00  0.00     0.158 C  
ENDROOT
BRANCH   5   8
HETATM    8  C   UNL     1      -9.038  17.986  64.408  1.00  0.00     7.823 C  
BRANCH   8   9
HETATM    9  C   UNL     1      -9.117  16.692  65.185  1.00  0.00     1.777 A  
HETATM   10  C   UNL     1     -10.106  16.609  66.179  1.00  0.00    -0.361 A  
HETATM   11  C   UNL     1     -10.189  15.509  67.025  1.00  0.00    -0.271 A  
HETATM   12  C   UNL     1      -9.283  14.460  66.913  1.00  0.00    -0.254 A  
HETATM   13  C   UNL     1      -8.346  14.496  65.872  1.00  0.00     1.655 A  
HETATM   14  F   UNL     1      -7.350  14.531  63.059  1.00  0.00    14.860 F  
HETATM   15  C   UNL     1      -8.240  15.608  64.998  1.00  0.00     5.220 A  
HETATM   16  F   UNL     1      -6.968  16.668  63.188  1.00  0.00    12.074 F  
HETATM   17  C   UNL     1      -7.155  15.554  63.940  1.00  0.00    21.145 C  
HETATM   18  F   UNL     1      -5.932  15.310  64.503  1.00  0.00    12.012 F  
BRANCH  12  19
HETATM   19  N   UNL     1      -9.235  13.382  67.827  1.00  0.00    -0.202 N  
HETATM   20  O   UNL     1     -11.222  12.272  67.300  1.00  0.00    -0.264 OA 
HETATM   21  C   UNL     1     -10.207  12.403  67.973  1.00  0.00    -0.219 C  
HETATM   22  H   UNL     1      -8.415  13.319  68.431  1.00  0.00     0.000 HD 
BRANCH  21  23
HETATM   23  C   UNL     1     -10.015  11.447  69.092  1.00  0.00    -0.005 A  
HETATM   24  C   UNL     1      -9.826  10.095  68.767  1.00  0.00    -0.180 A  
HETATM   25  C   UNL     1      -9.612   9.144  69.767  1.00  0.00    -0.191 A  
HETATM   26  C   UNL     1      -9.971  11.853  70.427  1.00  0.00     3.578 A  
HETATM   27  C   UNL     1      -9.585   9.544  71.114  1.00  0.00    -0.082 A  
HETATM   28  C   UNL     1      -9.758  10.906  71.428  1.00  0.00     5.991 A  
HETATM   29  C   UNL     1      -9.360   8.588  72.254  1.00  0.00    -0.363 C  
BRANCH  25  30
HETATM   30  C   UNL     1      -9.454   7.771  69.375  1.00  0.00    -0.156 C  
HETATM   31  C   UNL     1      -9.273   6.628  69.055  1.00  0.00    -0.131 C  
BRANCH  31  32
HETATM   32  C   UNL     1      -8.941   5.306  68.650  1.00  0.00    -0.107 A  
HETATM   33  C   UNL     1      -8.722   4.863  67.365  1.00  0.00    -0.103 A  
HETATM   34  N   UNL     1      -8.414   3.524  67.339  1.00  0.00    -0.094 NA 
HETATM   35  C   UNL     1      -8.441   3.150  68.601  1.00  0.00    -0.075 A  
HETATM   36  C   UNL     1      -8.202   1.887  69.187  1.00  0.00    -0.067 A  
HETATM   37  C   UNL     1      -8.290   1.754  70.515  1.00  0.00    -0.065 A  
HETATM   38  C   UNL     1      -8.641   2.967  71.296  1.00  0.00    -0.064 A  
HETATM   39  N   UNL     1      -8.869   4.147  70.817  1.00  0.00    -0.083 NA 
HETATM   40  N   UNL     1      -8.760   4.202  69.451  1.00  0.00    -0.080 NA 
ENDBRANCH  31  32
ENDBRANCH  25  30
ENDBRANCH  21  23
ENDBRANCH  12  19
ENDBRANCH   8   9
ENDBRANCH   5   8
TORSDOF 6
ENDMDL
MODEL      124
REMARK 921   NORMALIZED FREE ENERGY PREDICTED BY IDOCK:  100.80 KCAL/MOL
REMARK 922        TOTAL FREE ENERGY PREDICTED BY IDOCK:  134.85 KCAL/MOL
REMARK 923 INTER-LIGAND FREE ENERGY PREDICTED BY IDOCK:  123.52 KCAL/MOL
REMARK 924 INTRA-LIGAND FREE ENERGY PREDICTED BY IDOCK:   11.33 KCAL/MOL
REMARK 927      BINDING AFFINITY PREDICTED BY RF-SCORE:    0.00 PKD
ROOT
HETATM    1  C   UNL     1     -12.271   8.701  63.209  1.00  0.00    21.036 C  
HETATM    2  N   UNL     1     -11.459   9.009  64.386  1.00  0.00     9.800 NA 
HETATM    3  C   UNL     1     -11.885   8.202  65.549  1.00  0.00    10.380 C  
HETATM    4  C   UNL     1     -11.423   6.727  65.522  1.00  0.00     5.449 C  
HETATM    5  N   UNL     1      -9.976   6.541  65.297  1.00  0.00     1.371 NA 
HETATM    6  C   UNL     1     -10.027   8.789  64.104  1.00  0.00     3.023 C  
HETATM    7  C   UNL     1      -9.588   7.301  64.087  1.00  0.00     3.307 C  
ENDROOT
BRANCH   5   8
HETATM    8  C   UNL     1      -9.146   6.979  66.426  1.00  0.00    -0.160 C  
BRANCH   8   9
HETATM    9  C   UNL     1      -9.168   8.468  66.680  1.00  0.00    -0.223 A  
HETATM   10  C   UNL     1      -9.861   8.907  67.820  1.00  0.00    -0.208 A  
HETATM   11  C   UNL     1     -10.037  10.261  68.082  1.00  0.00    -0.175 A  
HETATM   12  C   UNL     1      -9.534  11.221  67.211  1.00  0.00    -0.173 A  
HETATM   13  C   UNL     1      -8.771  10.795  66.116  1.00  0.00    -0.186 A  
HETATM   14  F   UNL     1      -6.488   9.523  64.675  1.00  0.00    -0.076 F  
HETATM   15  C   UNL     1      -8.580   9.421  65.827  1.00  0.00    -0.161 A  
HETATM   16  F   UNL     1      -7.700   7.772  64.237  1.00  0.00    -0.094 F  
HETATM   17  C   UNL     1      -7.776   9.081  64.587  1.00  0.00    -0.115 C  
HETATM   18  F   UNL     1      -8.290   9.703  63.482  1.00  0.00    -0.132 F  
BRANCH  12  19
HETATM   19  N   UNL     1      -9.796  12.604  67.354  1.00  0.00    -0.203 N  
HETATM   20  O   UNL     1     -12.099  12.576  67.744  1.00  0.00    -0.409 OA 
HETATM   21  C   UNL     1     -11.042  13.171  67.574  1.00  0.00    -0.271 C  
HETATM   22  H   UNL     1      -8.999  13.238  67.290  1.00  0.00     0.000 HD 
BRANCH  21  23
HETATM   23  C   UNL     1     -11.103  14.654  67.553  1.00  0.00    -0.319 A  
HETATM   24  C   UNL     1     -10.643  15.341  68.686  1.00  0.00    -0.236 A  
HETATM   25  C   UNL     1     -10.646  16.737  68.725  1.00  0.00    -0.348 A  
HETATM   26  C   UNL     1     -11.553  15.370  66.441  1.00  0.00     0.105 A  
HETATM   27  C   UNL     1     -11.114  17.463  67.616  1.00  0.00     0.022 A  
HETATM   28  C   UNL     1     -11.557  16.765  66.477  1.00  0.00     1.241 A  
HETATM   29  C   UNL     1     -11.151  18.967  67.572  1.00  0.00    -0.136 C  
BRANCH  25  30
HETATM   30  C   UNL     1     -10.190  17.383  69.924  1.00  0.00     0.420 C  
HETATM   31  C   UNL     1      -9.762  17.909  70.915  1.00  0.00     4.133 C  
BRANCH  31  32
HETATM   32  C   UNL     1      -9.158  18.455  72.080  1.00  0.00    11.651 A  
HETATM   33  C   UNL     1      -9.783  19.152  73.090  1.00  0.00     5.008 A  
HETATM   34  N   UNL     1      -8.895  19.528  74.068  1.00  0.00     4.424 NA 
HETATM   35  C   UNL     1      -7.733  19.061  73.663  1.00  0.00     7.158 A  
HETATM   36  C   UNL     1      -6.456  19.138  74.262  1.00  0.00    12.748 A  
HETATM   37  C   UNL     1      -5.409  18.575  73.647  1.00  0.00     9.669 A  
HETATM   38  C   UNL     1      -5.668  17.897  72.352  1.00  0.00     1.896 A  
HETATM   39  N   UNL     1      -6.812  17.793  71.757  1.00  0.00     4.699 NA 
HETATM   40  N   UNL     1      -7.833  18.394  72.448  1.00  0.00     9.600 NA 
ENDBRANCH  31  32
ENDBRANCH  25  30
ENDBRANCH  21  23
ENDBRANCH  12  19
ENDBRANCH   8   9
ENDBRANCH   5   8
TORSDOF 6
ENDMDL
