MODEL        1
REMARK 921   NORMALIZED FREE ENERGY PREDICTED BY IDOCK:   -5.78 KCAL/MOL
REMARK 922        TOTAL FREE ENERGY PREDICTED BY IDOCK:   -8.15 KCAL/MOL
REMARK 923 INTER-LIGAND FREE ENERGY PREDICTED BY IDOCK:   -7.14 KCAL/MOL
REMARK 924 INTRA-LIGAND FREE ENERGY PREDICTED BY IDOCK:   -1.01 KCAL/MOL
REMARK 927      BINDING AFFINITY PREDICTED BY RF-SCORE:    0.00 PKD
ROOT
HETATM    1  K   UNL     1      -9.784  13.209  67.020  1.00  0.00    -0.202 K  
HETATM    2  C   UNL     2      -9.518  16.641  65.865  1.00  0.00    -0.183 C  
HETATM    3  H   UNL     2      -8.759  14.847  66.197  1.00  0.00     0.000 HD 
HETATM    4  O   UNL     2      -8.801  15.669  66.670  1.00  0.00    -0.240 OA 
ENDROOT
BRANCH   2   5
HETATM    5  C   UNL     2      -9.585  17.967  66.628  1.00  0.00    -0.309 C  
HETATM    6  O   UNL     2      -9.944  19.007  65.712  1.00  0.00    -0.473 OA 
HETATM    7  H   UNL     2      -9.986  19.829  66.185  1.00  0.00     0.000 HD 
ENDBRANCH   2   5
BRANCH   2   8
HETATM    8  C   UNL     2     -10.898  16.122  65.386  1.00  0.00    -0.307 C  
HETATM    9  O   UNL     2     -11.116  16.738  64.097  1.00  0.00    -1.346 OA 
HETATM   10  H   UNL     2     -11.961  16.420  63.803  1.00  0.00     0.000 HD 
BRANCH   8  11
HETATM   11  C   UNL     2     -11.041  14.572  65.328  1.00  0.00    -0.353 C  
HETATM   12  O   UNL     2      -9.888  13.961  64.716  1.00  0.00    -0.603 OA 
HETATM   13  H   UNL     2      -9.975  13.016  64.681  1.00  0.00     0.000 HD 
BRANCH  11  14
HETATM   14  C   UNL     2     -12.321  14.070  64.639  1.00  0.00    -0.397 C  
HETATM   15  C   UNL     2     -12.442  12.521  64.705  1.00  0.00    -0.463 C  
HETATM   16  O   UNL     2     -12.390  14.529  63.276  1.00  0.00    -1.033 OA 
HETATM   17  H   UNL     2     -13.181  14.219  62.851  1.00  0.00     0.000 HD 
HETATM   18  O   UNL     2     -12.006  12.007  65.781  1.00  0.00    -0.514 OA 
HETATM   19  O   UNL     2     -12.870  11.987  63.643  1.00  0.00    -0.713 OA 
ENDBRANCH  11  14
ENDBRANCH   8  11
ENDBRANCH   2   8
TORSDOF 4
ENDMDL
MODEL        2
REMARK 921   NORMALIZED FREE ENERGY PREDICTED BY IDOCK:   -5.55 KCAL/MOL
REMARK 922        TOTAL FREE ENERGY PREDICTED BY IDOCK:   -7.85 KCAL/MOL
REMARK 923 INTER-LIGAND FREE ENERGY PREDICTED BY IDOCK:   -6.76 KCAL/MOL
REMARK 924 INTRA-LIGAND FREE ENERGY PREDICTED BY IDOCK:   -1.09 KCAL/MOL
REMARK 927      BINDING AFFINITY PREDICTED BY RF-SCORE:    0.00 PKD
ROOT
HETATM    1  K   UNL     1     -14.380  12.048  64.529  1.00  0.00    -0.454 K  
HETATM    2  C   UNL     2     -10.918  12.339  63.473  1.00  0.00    -0.459 C  
HETATM    3  H   UNL     2     -12.860  12.528  63.162  1.00  0.00     0.000 HD 
HETATM    4  O   UNL     2     -12.203  11.865  62.991  1.00  0.00    -0.334 OA 
ENDROOT
BRANCH   2   5
HETATM    5  C   UNL     2      -9.858  11.270  63.198  1.00  0.00    -0.375 C  
HETATM    6  O   UNL     2      -8.600  11.916  62.974  1.00  0.00    -0.409 OA 
HETATM    7  H   UNL     2      -7.942  11.253  62.803  1.00  0.00     0.000 HD 
ENDBRANCH   2   5
BRANCH   2   8
HETATM    8  C   UNL     2     -10.968  12.808  64.950  1.00  0.00    -0.294 C  
HETATM    9  O   UNL     2      -9.590  12.870  65.382  1.00  0.00    -0.470 OA 
HETATM   10  H   UNL     2      -9.620  13.158  66.286  1.00  0.00     0.000 HD 
BRANCH   8  11
HETATM   11  C   UNL     2     -11.721  14.150  65.195  1.00  0.00    -0.361 C  
HETATM   12  O   UNL     2     -13.086  14.076  64.739  1.00  0.00    -0.632 OA 
HETATM   13  H   UNL     2     -13.545  14.895  64.888  1.00  0.00     0.000 HD 
BRANCH  11  14
HETATM   14  C   UNL     2     -11.038  15.389  64.591  1.00  0.00    -0.347 C  
HETATM   15  C   UNL     2     -10.352  16.258  65.683  1.00  0.00    -0.363 C  
HETATM   16  O   UNL     2     -11.972  16.175  63.828  1.00  0.00    -1.394 OA 
HETATM   17  H   UNL     2     -11.550  16.940  63.455  1.00  0.00     0.000 HD 
HETATM   18  O   UNL     2      -9.832  15.592  66.631  1.00  0.00    -0.238 OA 
HETATM   19  O   UNL     2     -10.488  17.503  65.520  1.00  0.00    -0.628 OA 
ENDBRANCH  11  14
ENDBRANCH   8  11
ENDBRANCH   2   8
TORSDOF 4
ENDMDL
MODEL        3
REMARK 921   NORMALIZED FREE ENERGY PREDICTED BY IDOCK:   -5.50 KCAL/MOL
REMARK 922        TOTAL FREE ENERGY PREDICTED BY IDOCK:   -7.79 KCAL/MOL
REMARK 923 INTER-LIGAND FREE ENERGY PREDICTED BY IDOCK:   -6.73 KCAL/MOL
REMARK 924 INTRA-LIGAND FREE ENERGY PREDICTED BY IDOCK:   -1.06 KCAL/MOL
REMARK 927      BINDING AFFINITY PREDICTED BY RF-SCORE:    0.00 PKD
ROOT
HETATM    1  K   UNL     1     -14.234  14.537  65.242  1.00  0.00    -0.688 K  
HETATM    2  C   UNL     2     -11.541  12.120  64.935  1.00  0.00    -0.316 C  
HETATM    3  H   UNL     2     -13.445  12.638  64.815  1.00  0.00     0.000 HD 
HETATM    4  O   UNL     2     -12.885  12.242  65.471  1.00  0.00    -0.288 OA 
ENDROOT
BRANCH   2   5
HETATM    5  C   UNL     2     -10.639  11.481  65.993  1.00  0.00    -0.261 C  
HETATM    6  O   UNL     2     -11.456  11.006  67.069  1.00  0.00    -0.415 OA 
HETATM    7  H   UNL     2     -10.896  10.609  67.725  1.00  0.00     0.000 HD 
ENDBRANCH   2   5
BRANCH   2   8
HETATM    8  C   UNL     2     -10.997  13.459  64.372  1.00  0.00    -0.395 C  
HETATM    9  O   UNL     2     -11.923  13.843  63.330  1.00  0.00    -0.817 OA 
HETATM   10  H   UNL     2     -11.590  14.662  62.985  1.00  0.00     0.000 HD 
BRANCH   8  11
HETATM   11  C   UNL     2     -10.795  14.589  65.424  1.00  0.00    -0.354 C  
HETATM   12  O   UNL     2     -11.942  14.713  66.288  1.00  0.00    -0.348 OA 
HETATM   13  H   UNL     2     -11.819  15.403  66.930  1.00  0.00     0.000 HD 
BRANCH  11  14
HETATM   14  C   UNL     2     -10.441  15.963  64.830  1.00  0.00    -0.144 C  
HETATM   15  C   UNL     2     -10.175  17.019  65.940  1.00  0.00    -0.296 C  
HETATM   16  O   UNL     2     -11.468  16.418  63.930  1.00  0.00    -1.569 OA 
HETATM   17  H   UNL     2     -11.248  17.267  63.563  1.00  0.00     0.000 HD 
HETATM   18  O   UNL     2      -9.599  16.559  66.974  1.00  0.00    -0.233 OA 
HETATM   19  O   UNL     2     -10.652  18.163  65.696  1.00  0.00    -0.611 OA 
ENDBRANCH  11  14
ENDBRANCH   8  11
ENDBRANCH   2   8
TORSDOF 4
ENDMDL
MODEL        4
REMARK 921   NORMALIZED FREE ENERGY PREDICTED BY IDOCK:   -5.42 KCAL/MOL
REMARK 922        TOTAL FREE ENERGY PREDICTED BY IDOCK:   -7.70 KCAL/MOL
REMARK 923 INTER-LIGAND FREE ENERGY PREDICTED BY IDOCK:   -6.80 KCAL/MOL
REMARK 924 INTRA-LIGAND FREE ENERGY PREDICTED BY IDOCK:   -0.90 KCAL/MOL
REMARK 927      BINDING AFFINITY PREDICTED BY RF-SCORE:    0.00 PKD
ROOT
HETATM    1  K   UNL     1     -12.747  10.790  62.405  1.00  0.00    -0.951 K  
HETATM    2  C   UNL     2     -10.416  12.485  64.614  1.00  0.00    -0.319 C  
HETATM    3  H   UNL     2     -10.983  11.847  62.832  1.00  0.00     0.000 HD 
HETATM    4  O   UNL     2     -10.436  11.516  63.533  1.00  0.00    -0.360 OA 
ENDROOT
BRANCH   2   5
HETATM    5  C   UNL     2      -9.533  11.951  65.745  1.00  0.00    -0.196 C  
HETATM    6  O   UNL     2      -8.936  13.060  66.426  1.00  0.00    -0.422 OA 
HETATM    7  H   UNL     2      -8.389  12.728  67.127  1.00  0.00     0.000 HD 
ENDBRANCH   2   5
BRANCH   2   8
HETATM    8  C   UNL     2     -11.838  12.902  65.071  1.00  0.00    -0.372 C  
HETATM    9  O   UNL     2     -11.932  12.498  66.456  1.00  0.00    -0.522 OA 
HETATM   10  H   UNL     2     -12.802  12.754  66.736  1.00  0.00     0.000 HD 
BRANCH   8  11
HETATM   11  C   UNL     2     -12.183  14.408  64.874  1.00  0.00    -0.433 C  
HETATM   12  O   UNL     2     -12.891  14.627  63.639  1.00  0.00    -0.730 OA 
HETATM   13  H   UNL     2     -13.102  15.546  63.518  1.00  0.00     0.000 HD 
BRANCH  11  14
HETATM   14  C   UNL     2     -10.976  15.359  64.956  1.00  0.00    -0.436 C  
HETATM   15  C   UNL     2     -10.792  15.935  66.388  1.00  0.00    -0.193 C  
HETATM   16  O   UNL     2     -11.088  16.422  63.991  1.00  0.00    -1.236 OA 
HETATM   17  H   UNL     2     -10.342  17.009  64.041  1.00  0.00     0.000 HD 
HETATM   18  O   UNL     2     -11.078  15.121  67.320  1.00  0.00    -0.321 OA 
HETATM   19  O   UNL     2     -10.475  17.157  66.422  1.00  0.00    -0.313 OA 
ENDBRANCH  11  14
ENDBRANCH   8  11
ENDBRANCH   2   8
TORSDOF 4
ENDMDL
MODEL        5
REMARK 921   NORMALIZED FREE ENERGY PREDICTED BY IDOCK:   -5.41 KCAL/MOL
REMARK 922        TOTAL FREE ENERGY PREDICTED BY IDOCK:   -7.68 KCAL/MOL
REMARK 923 INTER-LIGAND FREE ENERGY PREDICTED BY IDOCK:   -7.04 KCAL/MOL
REMARK 924 INTRA-LIGAND FREE ENERGY PREDICTED BY IDOCK:   -0.64 KCAL/MOL
REMARK 927      BINDING AFFINITY PREDICTED BY RF-SCORE:    0.00 PKD
ROOT
HETATM    1  K   UNL     1     -12.604  11.146  62.525  1.00  0.00    -0.884 K  
HETATM    2  C   UNL     2     -10.302  11.459  65.316  1.00  0.00    -0.282 C  
HETATM    3  H   UNL     2     -10.729  11.535  63.388  1.00  0.00     0.000 HD 
HETATM    4  O   UNL     2     -10.382  10.884  63.985  1.00  0.00    -0.347 OA 
ENDROOT
BRANCH   2   5
HETATM    5  C   UNL     2      -9.741  10.411  66.279  1.00  0.00    -0.205 C  
HETATM    6  O   UNL     2     -10.202   9.118  65.872  1.00  0.00    -0.361 OA 
HETATM    7  H   UNL     2      -9.855   8.467  66.470  1.00  0.00     0.000 HD 
ENDBRANCH   2   5
BRANCH   2   8
HETATM    8  C   UNL     2     -11.643  12.085  65.780  1.00  0.00    -0.290 C  
HETATM    9  O   UNL     2     -11.935  11.469  67.055  1.00  0.00    -0.556 OA 
HETATM   10  H   UNL     2     -12.756  11.852  67.339  1.00  0.00     0.000 HD 
BRANCH   8  11
HETATM   11  C   UNL     2     -11.657  13.640  65.861  1.00  0.00    -0.328 C  
HETATM   12  O   UNL     2     -12.908  14.128  66.385  1.00  0.00    -0.490 OA 
HETATM   13  H   UNL     2     -12.916  15.077  66.434  1.00  0.00     0.000 HD 
BRANCH  11  14
HETATM   14  C   UNL     2     -11.334  14.355  64.538  1.00  0.00    -0.321 C  
HETATM   15  C   UNL     2     -11.143  15.885  64.741  1.00  0.00    -0.384 C  
HETATM   16  O   UNL     2     -12.347  14.096  63.548  1.00  0.00    -1.065 OA 
HETATM   17  H   UNL     2     -12.147  14.537  62.731  1.00  0.00     0.000 HD 
HETATM   18  O   UNL     2     -10.583  16.202  65.836  1.00  0.00    -0.327 OA 
HETATM   19  O   UNL     2     -11.653  16.599  63.832  1.00  0.00    -1.204 OA 
ENDBRANCH  11  14
ENDBRANCH   8  11
ENDBRANCH   2   8
TORSDOF 4
ENDMDL
MODEL        6
REMARK 921   NORMALIZED FREE ENERGY PREDICTED BY IDOCK:   -5.40 KCAL/MOL
REMARK 922        TOTAL FREE ENERGY PREDICTED BY IDOCK:   -7.67 KCAL/MOL
REMARK 923 INTER-LIGAND FREE ENERGY PREDICTED BY IDOCK:   -7.00 KCAL/MOL
REMARK 924 INTRA-LIGAND FREE ENERGY PREDICTED BY IDOCK:   -0.67 KCAL/MOL
REMARK 927      BINDING AFFINITY PREDICTED BY RF-SCORE:    0.00 PKD
ROOT
HETATM    1  K   UNL     1     -12.537  11.358  62.554  1.00  0.00    -0.784 K  
HETATM    2  C   UNL     2     -12.272  14.278  64.696  1.00  0.00    -0.454 C  
HETATM    3  H   UNL     2     -13.178  13.213  63.298  1.00  0.00     0.000 HD 
HETATM    4  O   UNL     2     -12.543  13.919  63.315  1.00  0.00    -0.824 OA 
ENDROOT
BRANCH   2   5
HETATM    5  C   UNL     2     -11.248  15.415  64.724  1.00  0.00    -0.395 C  
HETATM    6  O   UNL     2     -11.658  16.426  63.797  1.00  0.00    -1.605 OA 
HETATM    7  H   UNL     2     -11.023  17.131  63.814  1.00  0.00     0.000 HD 
ENDBRANCH   2   5
BRANCH   2   8
HETATM    8  C   UNL     2     -11.878  13.056  65.567  1.00  0.00    -0.395 C  
HETATM    9  O   UNL     2     -11.561  12.002  64.631  1.00  0.00    -0.331 OA 
HETATM   10  H   UNL     2     -11.320  11.254  65.164  1.00  0.00     0.000 HD 
BRANCH   8  11
HETATM   11  C   UNL     2     -10.724  13.309  66.581  1.00  0.00    -0.280 C  
HETATM   12  O   UNL     2      -9.491  12.714  66.133  1.00  0.00    -0.313 OA 
HETATM   13  H   UNL     2      -8.787  12.868  66.752  1.00  0.00     0.000 HD 
BRANCH  11  14
HETATM   14  C   UNL     2     -11.024  12.859  68.021  1.00  0.00    -0.247 C  
HETATM   15  C   UNL     2     -11.566  11.402  68.069  1.00  0.00    -0.286 C  
HETATM   16  O   UNL     2     -11.940  13.764  68.666  1.00  0.00    -0.351 OA 
HETATM   17  H   UNL     2     -12.125  13.486  69.556  1.00  0.00     0.000 HD 
HETATM   18  O   UNL     2     -11.048  10.624  67.209  1.00  0.00    -0.302 OA 
HETATM   19  O   UNL     2     -12.508  11.223  68.891  1.00  0.00    -0.433 OA 
ENDBRANCH  11  14
ENDBRANCH   8  11
ENDBRANCH   2   8
TORSDOF 4
ENDMDL
MODEL        7
REMARK 921   NORMALIZED FREE ENERGY PREDICTED BY IDOCK:   -5.38 KCAL/MOL
REMARK 922        TOTAL FREE ENERGY PREDICTED BY IDOCK:   -7.65 KCAL/MOL
REMARK 923 INTER-LIGAND FREE ENERGY PREDICTED BY IDOCK:   -6.52 KCAL/MOL
REMARK 924 INTRA-LIGAND FREE ENERGY PREDICTED BY IDOCK:   -1.14 KCAL/MOL
REMARK 927      BINDING AFFINITY PREDICTED BY RF-SCORE:    0.00 PKD
ROOT
HETATM    1  K   UNL     1     -13.967  11.866  64.027  1.00  0.00    -0.741 K  
HETATM    2  C   UNL     2     -11.789  14.402  65.443  1.00  0.00    -0.366 C  
HETATM    3  H   UNL     2     -13.574  13.620  65.111  1.00  0.00     0.000 HD 
HETATM    4  O   UNL     2     -13.027  14.276  64.695  1.00  0.00    -0.621 OA 
ENDROOT
BRANCH   2   5
HETATM    5  C   UNL     2     -10.908  15.459  64.773  1.00  0.00    -0.364 C  
HETATM    6  O   UNL     2     -11.703  16.194  63.836  1.00  0.00    -1.348 OA 
HETATM    7  H   UNL     2     -11.156  16.849  63.420  1.00  0.00     0.000 HD 
ENDBRANCH   2   5
BRANCH   2   8
HETATM    8  C   UNL     2     -11.080  13.041  65.663  1.00  0.00    -0.276 C  
HETATM    9  O   UNL     2     -12.057  12.198  66.314  1.00  0.00    -0.626 OA 
HETATM   10  H   UNL     2     -11.622  11.364  66.449  1.00  0.00     0.000 HD 
BRANCH   8  11
HETATM   11  C   UNL     2     -10.497  12.381  64.378  1.00  0.00    -0.344 C  
HETATM   12  O   UNL     2     -11.540  12.026  63.450  1.00  0.00    -0.577 OA 
HETATM   13  H   UNL     2     -11.185  11.623  62.667  1.00  0.00     0.000 HD 
BRANCH  11  14
HETATM   14  C   UNL     2      -9.595  11.161  64.636  1.00  0.00    -0.250 C  
HETATM   15  C   UNL     2      -9.145  10.487  63.309  1.00  0.00    -0.254 C  
HETATM   16  O   UNL     2     -10.245  10.208  65.497  1.00  0.00    -0.286 OA 
HETATM   17  H   UNL     2      -9.688   9.456  65.656  1.00  0.00     0.000 HD 
HETATM   18  O   UNL     2      -8.932  11.298  62.355  1.00  0.00    -0.321 OA 
HETATM   19  O   UNL     2      -9.145   9.224  63.341  1.00  0.00    -0.142 OA 
ENDBRANCH  11  14
ENDBRANCH   8  11
ENDBRANCH   2   8
TORSDOF 4
ENDMDL
MODEL        8
REMARK 921   NORMALIZED FREE ENERGY PREDICTED BY IDOCK:   -5.34 KCAL/MOL
REMARK 922        TOTAL FREE ENERGY PREDICTED BY IDOCK:   -7.60 KCAL/MOL
REMARK 923 INTER-LIGAND FREE ENERGY PREDICTED BY IDOCK:   -6.80 KCAL/MOL
REMARK 924 INTRA-LIGAND FREE ENERGY PREDICTED BY IDOCK:   -0.80 KCAL/MOL
REMARK 927      BINDING AFFINITY PREDICTED BY RF-SCORE:    0.00 PKD
ROOT
HETATM    1  K   UNL     1     -10.971  18.831  64.882  1.00  0.00    -0.501 K  
HETATM    2  C   UNL     2     -10.931  15.212  64.587  1.00  0.00    -0.303 C  
HETATM    3  H   UNL     2     -10.629  17.026  63.864  1.00  0.00     0.000 HD 
HETATM    4  O   UNL     2     -11.337  16.394  63.849  1.00  0.00    -0.967 OA 
ENDROOT
BRANCH   2   5
HETATM    5  C   UNL     2     -12.073  14.193  64.562  1.00  0.00    -0.468 C  
HETATM    6  O   UNL     2     -12.433  13.938  63.200  1.00  0.00    -1.121 OA 
HETATM    7  H   UNL     2     -13.142  13.306  63.184  1.00  0.00     0.000 HD 
ENDBRANCH   2   5
BRANCH   2   8
HETATM    8  C   UNL     2     -10.415  15.542  66.011  1.00  0.00    -0.323 C  
HETATM    9  O   UNL     2      -9.179  14.806  66.154  1.00  0.00    -0.416 OA 
HETATM   10  H   UNL     2      -8.863  15.008  67.026  1.00  0.00     0.000 HD 
BRANCH   8  11
HETATM   11  C   UNL     2     -10.235  17.059  66.317  1.00  0.00    -0.329 C  
HETATM   12  O   UNL     2      -9.021  17.571  65.733  1.00  0.00    -0.512 OA 
HETATM   13  H   UNL     2      -8.911  18.496  65.920  1.00  0.00     0.000 HD 
BRANCH  11  14
HETATM   14  C   UNL     2     -10.287  17.423  67.810  1.00  0.00    -0.358 C  
HETATM   15  C   UNL     2     -10.261  18.963  68.029  1.00  0.00    -0.388 C  
HETATM   16  O   UNL     2      -9.219  16.788  68.536  1.00  0.00    -0.227 OA 
HETATM   17  H   UNL     2      -9.252  17.013  69.459  1.00  0.00     0.000 HD 
HETATM   18  O   UNL     2     -10.888  19.627  67.147  1.00  0.00    -0.484 OA 
HETATM   19  O   UNL     2      -9.545  19.339  68.999  1.00  0.00    -0.399 OA 
ENDBRANCH  11  14
ENDBRANCH   8  11
ENDBRANCH   2   8
TORSDOF 4
ENDMDL
MODEL        9
REMARK 921   NORMALIZED FREE ENERGY PREDICTED BY IDOCK:   -5.25 KCAL/MOL
REMARK 922        TOTAL FREE ENERGY PREDICTED BY IDOCK:   -7.49 KCAL/MOL
REMARK 923 INTER-LIGAND FREE ENERGY PREDICTED BY IDOCK:   -6.72 KCAL/MOL
REMARK 924 INTRA-LIGAND FREE ENERGY PREDICTED BY IDOCK:   -0.77 KCAL/MOL
REMARK 927      BINDING AFFINITY PREDICTED BY RF-SCORE:    0.00 PKD
ROOT
HETATM    1  K   UNL     1     -13.029  11.329  62.338  1.00  0.00    -0.889 K  
HETATM    2  C   UNL     2     -12.437  14.299  64.340  1.00  0.00    -0.300 C  
HETATM    3  H   UNL     2     -13.352  13.331  62.880  1.00  0.00     0.000 HD 
HETATM    4  O   UNL     2     -12.589  13.890  62.955  1.00  0.00    -0.694 OA 
ENDROOT
BRANCH   2   5
HETATM    5  C   UNL     2     -11.207  15.201  64.462  1.00  0.00    -0.272 C  
HETATM    6  O   UNL     2     -11.506  16.470  63.871  1.00  0.00    -1.608 OA 
HETATM    7  H   UNL     2     -10.742  17.030  63.946  1.00  0.00     0.000 HD 
ENDBRANCH   2   5
BRANCH   2   8
HETATM    8  C   UNL     2     -12.436  13.100  65.323  1.00  0.00    -0.495 C  
HETATM    9  O   UNL     2     -13.241  12.081  64.688  1.00  0.00    -0.508 OA 
HETATM   10  H   UNL     2     -13.241  11.346  65.290  1.00  0.00     0.000 HD 
BRANCH   8  11
HETATM   11  C   UNL     2     -11.027  12.570  65.723  1.00  0.00    -0.292 C  
HETATM   12  O   UNL     2     -10.661  11.413  64.947  1.00  0.00    -0.289 OA 
HETATM   13  H   UNL     2      -9.801  11.090  65.191  1.00  0.00     0.000 HD 
BRANCH  11  14
HETATM   14  C   UNL     2     -10.857  12.266  67.221  1.00  0.00    -0.245 C  
HETATM   15  C   UNL     2      -9.501  11.564  67.516  1.00  0.00    -0.169 C  
HETATM   16  O   UNL     2     -11.956  11.480  67.718  1.00  0.00    -0.623 OA 
HETATM   17  H   UNL     2     -11.851  11.293  68.643  1.00  0.00     0.000 HD 
HETATM   18  O   UNL     2      -8.537  11.962  66.792  1.00  0.00    -0.181 OA 
HETATM   19  O   UNL     2      -9.570  10.634  68.368  1.00  0.00    -0.156 OA 
ENDBRANCH  11  14
ENDBRANCH   8  11
ENDBRANCH   2   8
TORSDOF 4
ENDMDL
MODEL       10
REMARK 921   NORMALIZED FREE ENERGY PREDICTED BY IDOCK:   -5.25 KCAL/MOL
REMARK 922        TOTAL FREE ENERGY PREDICTED BY IDOCK:   -7.48 KCAL/MOL
REMARK 923 INTER-LIGAND FREE ENERGY PREDICTED BY IDOCK:   -6.87 KCAL/MOL
REMARK 924 INTRA-LIGAND FREE ENERGY PREDICTED BY IDOCK:   -0.61 KCAL/MOL
REMARK 927      BINDING AFFINITY PREDICTED BY RF-SCORE:    0.00 PKD
ROOT
HETATM    1  K   UNL     1     -13.465  12.641  62.832  1.00  0.00    -0.517 K  
HETATM    2  C   UNL     2     -11.524  14.738  65.074  1.00  0.00    -0.389 C  
HETATM    3  H   UNL     2     -13.224  13.926  64.476  1.00  0.00     0.000 HD 
HETATM    4  O   UNL     2     -12.768  14.745  64.325  1.00  0.00    -0.691 OA 
ENDROOT
BRANCH   2   5
HETATM    5  C   UNL     2     -10.789  16.058  64.831  1.00  0.00    -0.372 C  
HETATM    6  O   UNL     2     -11.515  16.817  63.857  1.00  0.00    -1.484 OA 
HETATM    7  H   UNL     2     -11.059  17.636  63.707  1.00  0.00     0.000 HD 
ENDBRANCH   2   5
BRANCH   2   8
HETATM    8  C   UNL     2     -10.663  13.479  64.793  1.00  0.00    -0.401 C  
HETATM    9  O   UNL     2      -9.445  13.669  65.548  1.00  0.00    -0.504 OA 
HETATM   10  H   UNL     2      -8.917  12.899  65.376  1.00  0.00     0.000 HD 
BRANCH   8  11
HETATM   11  C   UNL     2     -11.349  12.119  65.119  1.00  0.00    -0.327 C  
HETATM   12  O   UNL     2     -12.783  12.252  65.163  1.00  0.00    -0.571 OA 
HETATM   13  H   UNL     2     -13.202  11.423  65.362  1.00  0.00     0.000 HD 
BRANCH  11  14
HETATM   14  C   UNL     2     -10.850  11.440  66.406  1.00  0.00    -0.271 C  
HETATM   15  C   UNL     2     -10.263  10.028  66.122  1.00  0.00    -0.213 C  
HETATM   16  O   UNL     2     -11.897  11.367  67.392  1.00  0.00    -0.609 OA 
HETATM   17  H   UNL     2     -11.588  10.948  68.186  1.00  0.00     0.000 HD 
HETATM   18  O   UNL     2      -9.639   9.933  65.019  1.00  0.00    -0.271 OA 
HETATM   19  O   UNL     2     -10.568   9.154  66.981  1.00  0.00    -0.253 OA 
ENDBRANCH  11  14
ENDBRANCH   8  11
ENDBRANCH   2   8
TORSDOF 4
ENDMDL
MODEL       11
REMARK 921   NORMALIZED FREE ENERGY PREDICTED BY IDOCK:   -5.16 KCAL/MOL
REMARK 922        TOTAL FREE ENERGY PREDICTED BY IDOCK:   -7.38 KCAL/MOL
REMARK 923 INTER-LIGAND FREE ENERGY PREDICTED BY IDOCK:   -6.77 KCAL/MOL
REMARK 924 INTRA-LIGAND FREE ENERGY PREDICTED BY IDOCK:   -0.61 KCAL/MOL
REMARK 927      BINDING AFFINITY PREDICTED BY RF-SCORE:    0.00 PKD
ROOT
HETATM    1  K   UNL     1     -12.875  14.246  68.089  1.00  0.00    -0.564 K  
HETATM    2  C   UNL     2     -12.162  14.234  64.529  1.00  0.00    -0.455 C  
HETATM    3  H   UNL     2     -13.351  14.576  66.071  1.00  0.00     0.000 HD 
HETATM    4  O   UNL     2     -13.205  13.858  65.466  1.00  0.00    -0.698 OA 
ENDROOT
BRANCH   2   5
HETATM    5  C   UNL     2     -11.928  13.078  63.554  1.00  0.00    -0.545 C  
HETATM    6  O   UNL     2     -12.972  12.113  63.725  1.00  0.00    -0.753 OA 
HETATM    7  H   UNL     2     -12.826  11.395  63.121  1.00  0.00     0.000 HD 
ENDBRANCH   2   5
BRANCH   2   8
HETATM    8  C   UNL     2     -10.874  14.733  65.233  1.00  0.00    -0.383 C  
HETATM    9  O   UNL     2      -9.788  14.379  64.347  1.00  0.00    -0.532 OA 
HETATM   10  H   UNL     2      -9.000  14.684  64.779  1.00  0.00     0.000 HD 
BRANCH   8  11
HETATM   11  C   UNL     2     -10.862  16.246  65.602  1.00  0.00    -0.208 C  
HETATM   12  O   UNL     2     -10.968  17.074  64.427  1.00  0.00    -1.017 OA 
HETATM   13  H   UNL     2     -10.961  17.997  64.652  1.00  0.00     0.000 HD 
BRANCH  11  14
HETATM   14  C   UNL     2      -9.655  16.693  66.444  1.00  0.00    -0.285 C  
HETATM   15  C   UNL     2      -9.794  18.168  66.915  1.00  0.00    -0.330 C  
HETATM   16  O   UNL     2      -8.423  16.502  65.725  1.00  0.00    -0.394 OA 
HETATM   17  H   UNL     2      -7.677  16.777  66.246  1.00  0.00     0.000 HD 
HETATM   18  O   UNL     2     -10.983  18.518  67.195  1.00  0.00    -0.333 OA 
HETATM   19  O   UNL     2      -8.723  18.835  66.863  1.00  0.00    -0.276 OA 
ENDBRANCH  11  14
ENDBRANCH   8  11
ENDBRANCH   2   8
TORSDOF 4
ENDMDL
MODEL       12
REMARK 921   NORMALIZED FREE ENERGY PREDICTED BY IDOCK:   -5.16 KCAL/MOL
REMARK 922        TOTAL FREE ENERGY PREDICTED BY IDOCK:   -7.37 KCAL/MOL
REMARK 923 INTER-LIGAND FREE ENERGY PREDICTED BY IDOCK:   -6.48 KCAL/MOL
REMARK 924 INTRA-LIGAND FREE ENERGY PREDICTED BY IDOCK:   -0.89 KCAL/MOL
REMARK 927      BINDING AFFINITY PREDICTED BY RF-SCORE:    0.00 PKD
ROOT
HETATM    1  K   UNL     1     -11.387  11.073  62.692  1.00  0.00    -0.719 K  
HETATM    2  C   UNL     2     -10.059  10.475  66.018  1.00  0.00    -0.256 C  
HETATM    3  H   UNL     2      -9.844  10.700  64.066  1.00  0.00     0.000 HD 
HETATM    4  O   UNL     2      -9.958   9.969  64.661  1.00  0.00    -0.309 OA 
ENDROOT
BRANCH   2   5
HETATM    5  C   UNL     2     -10.243   9.297  66.977  1.00  0.00    -0.262 C  
HETATM    6  O   UNL     2     -10.244   8.082  66.220  1.00  0.00    -0.481 OA 
HETATM    7  H   UNL     2     -10.359   7.351  66.814  1.00  0.00     0.000 HD 
ENDBRANCH   2   5
BRANCH   2   8
HETATM    8  C   UNL     2     -11.136  11.581  66.167  1.00  0.00    -0.244 C  
HETATM    9  O   UNL     2     -11.787  11.317  67.431  1.00  0.00    -0.590 OA 
HETATM   10  H   UNL     2     -12.446  11.994  67.522  1.00  0.00     0.000 HD 
BRANCH   8  11
HETATM   11  C   UNL     2     -10.605  13.042  66.073  1.00  0.00    -0.279 C  
HETATM   12  O   UNL     2     -11.202  13.884  67.079  1.00  0.00    -0.298 OA 
HETATM   13  H   UNL     2     -10.878  14.775  67.021  1.00  0.00     0.000 HD 
BRANCH  11  14
HETATM   14  C   UNL     2     -10.763  13.695  64.689  1.00  0.00    -0.421 C  
HETATM   15  C   UNL     2     -12.250  13.735  64.238  1.00  0.00    -0.400 C  
HETATM   16  O   UNL     2      -9.950  13.027  63.706  1.00  0.00    -0.744 OA 
HETATM   17  H   UNL     2     -10.048  13.430  62.852  1.00  0.00     0.000 HD 
HETATM   18  O   UNL     2     -13.078  13.936  65.180  1.00  0.00    -0.773 OA 
HETATM   19  O   UNL     2     -12.431  13.472  63.016  1.00  0.00    -0.709 OA 
ENDBRANCH  11  14
ENDBRANCH   8  11
ENDBRANCH   2   8
TORSDOF 4
ENDMDL
MODEL       13
REMARK 921   NORMALIZED FREE ENERGY PREDICTED BY IDOCK:   -5.16 KCAL/MOL
REMARK 922        TOTAL FREE ENERGY PREDICTED BY IDOCK:   -7.37 KCAL/MOL
REMARK 923 INTER-LIGAND FREE ENERGY PREDICTED BY IDOCK:   -6.77 KCAL/MOL
REMARK 924 INTRA-LIGAND FREE ENERGY PREDICTED BY IDOCK:   -0.60 KCAL/MOL
REMARK 927      BINDING AFFINITY PREDICTED BY RF-SCORE:    0.00 PKD
ROOT
HETATM    1  K   UNL     1     -13.007  14.114  68.138  1.00  0.00    -0.535 K  
HETATM    2  C   UNL     2     -12.220  14.128  64.593  1.00  0.00    -0.445 C  
HETATM    3  H   UNL     2     -13.261  14.752  66.153  1.00  0.00     0.000 HD 
HETATM    4  O   UNL     2     -13.361  14.080  65.490  1.00  0.00    -0.673 OA 
ENDROOT
BRANCH   2   5
HETATM    5  C   UNL     2     -12.382  13.046  63.523  1.00  0.00    -0.417 C  
HETATM    6  O   UNL     2     -13.206  11.999  64.048  1.00  0.00    -0.681 OA 
HETATM    7  H   UNL     2     -13.306  11.328  63.384  1.00  0.00     0.000 HD 
ENDBRANCH   2   5
BRANCH   2   8
HETATM    8  C   UNL     2     -10.865  14.072  65.344  1.00  0.00    -0.328 C  
HETATM    9  O   UNL     2      -9.873  13.791  64.330  1.00  0.00    -0.692 OA 
HETATM   10  H   UNL     2      -9.044  13.757  64.789  1.00  0.00     0.000 HD 
BRANCH   8  11
HETATM   11  C   UNL     2     -10.513  15.342  66.174  1.00  0.00    -0.316 C  
HETATM   12  O   UNL     2     -11.549  15.651  67.126  1.00  0.00    -0.090 OA 
HETATM   13  H   UNL     2     -11.334  16.426  67.632  1.00  0.00     0.000 HD 
BRANCH  11  14
HETATM   14  C   UNL     2     -10.192  16.590  65.333  1.00  0.00    -0.148 C  
HETATM   15  C   UNL     2     -10.162  17.879  66.203  1.00  0.00    -0.343 C  
HETATM   16  O   UNL     2     -11.121  16.733  64.243  1.00  0.00    -1.301 OA 
HETATM   17  H   UNL     2     -10.923  17.503  63.724  1.00  0.00     0.000 HD 
HETATM   18  O   UNL     2      -9.694  17.711  67.372  1.00  0.00    -0.271 OA 
HETATM   19  O   UNL     2     -10.691  18.888  65.657  1.00  0.00    -0.532 OA 
ENDBRANCH  11  14
ENDBRANCH   8  11
ENDBRANCH   2   8
TORSDOF 4
ENDMDL
MODEL       14
REMARK 921   NORMALIZED FREE ENERGY PREDICTED BY IDOCK:   -5.15 KCAL/MOL
REMARK 922        TOTAL FREE ENERGY PREDICTED BY IDOCK:   -7.37 KCAL/MOL
REMARK 923 INTER-LIGAND FREE ENERGY PREDICTED BY IDOCK:   -6.74 KCAL/MOL
REMARK 924 INTRA-LIGAND FREE ENERGY PREDICTED BY IDOCK:   -0.63 KCAL/MOL
REMARK 927      BINDING AFFINITY PREDICTED BY RF-SCORE:    0.00 PKD
ROOT
HETATM    1  K   UNL     1     -10.103  11.214  69.247  1.00  0.00    -0.181 K  
HETATM    2  C   UNL     2     -10.867  11.031  65.702  1.00  0.00    -0.090 C  
HETATM    3  H   UNL     2     -11.131  10.463  67.577  1.00  0.00     0.000 HD 
HETATM    4  O   UNL     2     -10.609  10.168  66.841  1.00  0.00    -0.238 OA 
ENDROOT
BRANCH   2   5
HETATM    5  C   UNL     2     -10.026  10.555  64.516  1.00  0.00    -0.345 C  
HETATM    6  O   UNL     2     -10.662  10.973  63.303  1.00  0.00    -0.694 OA 
HETATM    7  H   UNL     2     -10.141  10.678  62.567  1.00  0.00     0.000 HD 
ENDBRANCH   2   5
BRANCH   2   8
HETATM    8  C   UNL     2     -10.689  12.534  66.036  1.00  0.00    -0.262 C  
HETATM    9  O   UNL     2      -9.394  12.896  65.505  1.00  0.00    -0.456 OA 
HETATM   10  H   UNL     2      -9.285  13.817  65.709  1.00  0.00     0.000 HD 
BRANCH   8  11
HETATM   11  C   UNL     2     -11.820  13.469  65.515  1.00  0.00    -0.363 C  
HETATM   12  O   UNL     2     -13.005  12.722  65.178  1.00  0.00    -0.768 OA 
HETATM   13  H   UNL     2     -13.695  13.292  64.860  1.00  0.00     0.000 HD 
BRANCH  11  14
HETATM   14  C   UNL     2     -11.418  14.366  64.332  1.00  0.00    -0.288 C  
HETATM   15  C   UNL     2     -11.150  15.830  64.783  1.00  0.00    -0.400 C  
HETATM   16  O   UNL     2     -12.412  14.328  63.291  1.00  0.00    -1.133 OA 
HETATM   17  H   UNL     2     -12.163  14.881  62.560  1.00  0.00     0.000 HD 
HETATM   18  O   UNL     2     -10.609  15.934  65.927  1.00  0.00    -0.323 OA 
HETATM   19  O   UNL     2     -11.592  16.708  63.990  1.00  0.00    -1.197 OA 
ENDBRANCH  11  14
ENDBRANCH   8  11
ENDBRANCH   2   8
TORSDOF 4
ENDMDL
MODEL       15
REMARK 921   NORMALIZED FREE ENERGY PREDICTED BY IDOCK:   -5.13 KCAL/MOL
REMARK 922        TOTAL FREE ENERGY PREDICTED BY IDOCK:   -7.34 KCAL/MOL
REMARK 923 INTER-LIGAND FREE ENERGY PREDICTED BY IDOCK:   -6.45 KCAL/MOL
REMARK 924 INTRA-LIGAND FREE ENERGY PREDICTED BY IDOCK:   -0.89 KCAL/MOL
REMARK 927      BINDING AFFINITY PREDICTED BY RF-SCORE:    0.00 PKD
ROOT
HETATM    1  K   UNL     1     -12.188  14.923  62.925  1.00  0.00    -0.835 K  
HETATM    2  C   UNL     2     -10.241  15.716  65.886  1.00  0.00    -0.351 C  
HETATM    3  H   UNL     2     -11.815  15.956  64.715  1.00  0.00     0.000 HD 
HETATM    4  O   UNL     2     -10.965  16.369  64.810  1.00  0.00    -0.664 OA 
ENDROOT
BRANCH   2   5
HETATM    5  C   UNL     2      -8.871  16.381  66.040  1.00  0.00    -0.261 C  
HETATM    6  O   UNL     2      -8.998  17.773  65.732  1.00  0.00    -0.509 OA 
HETATM    7  H   UNL     2      -8.149  18.186  65.828  1.00  0.00     0.000 HD 
ENDBRANCH   2   5
BRANCH   2   8
HETATM    8  C   UNL     2     -10.176  14.176  65.716  1.00  0.00    -0.332 C  
HETATM    9  O   UNL     2      -8.861  13.792  66.179  1.00  0.00    -0.438 OA 
HETATM   10  H   UNL     2      -8.821  12.849  66.075  1.00  0.00     0.000 HD 
BRANCH   8  11
HETATM   11  C   UNL     2     -11.307  13.380  66.434  1.00  0.00    -0.313 C  
HETATM   12  O   UNL     2     -10.787  12.212  67.097  1.00  0.00    -0.228 OA 
HETATM   13  H   UNL     2     -11.478  11.726  67.534  1.00  0.00     0.000 HD 
BRANCH  11  14
HETATM   14  C   UNL     2     -12.486  12.983  65.528  1.00  0.00    -0.438 C  
HETATM   15  C   UNL     2     -12.006  12.237  64.251  1.00  0.00    -0.407 C  
HETATM   16  O   UNL     2     -13.280  14.132  65.179  1.00  0.00    -0.743 OA 
HETATM   17  H   UNL     2     -14.008  13.886  64.620  1.00  0.00     0.000 HD 
HETATM   18  O   UNL     2     -11.005  11.476  64.434  1.00  0.00    -0.332 OA 
HETATM   19  O   UNL     2     -12.619  12.564  63.196  1.00  0.00    -0.598 OA 
ENDBRANCH  11  14
ENDBRANCH   8  11
ENDBRANCH   2   8
TORSDOF 4
ENDMDL
MODEL       16
REMARK 921   NORMALIZED FREE ENERGY PREDICTED BY IDOCK:   -5.11 KCAL/MOL
REMARK 922        TOTAL FREE ENERGY PREDICTED BY IDOCK:   -7.31 KCAL/MOL
REMARK 923 INTER-LIGAND FREE ENERGY PREDICTED BY IDOCK:   -6.67 KCAL/MOL
REMARK 924 INTRA-LIGAND FREE ENERGY PREDICTED BY IDOCK:   -0.65 KCAL/MOL
REMARK 927      BINDING AFFINITY PREDICTED BY RF-SCORE:    0.00 PKD
ROOT
HETATM    1  K   UNL     1     -14.333  14.295  65.340  1.00  0.00    -0.655 K  
HETATM    2  C   UNL     2     -11.245  13.210  63.768  1.00  0.00    -0.273 C  
HETATM    3  H   UNL     2     -13.012  14.093  63.720  1.00  0.00     0.000 HD 
HETATM    4  O   UNL     2     -12.678  13.223  63.537  1.00  0.00    -0.708 OA 
ENDROOT
BRANCH   2   5
HETATM    5  C   UNL     2     -10.705  11.809  63.472  1.00  0.00    -0.436 C  
HETATM    6  O   UNL     2      -9.364  11.925  62.985  1.00  0.00    -0.630 OA 
HETATM    7  H   UNL     2      -9.030  11.055  62.802  1.00  0.00     0.000 HD 
ENDBRANCH   2   5
BRANCH   2   8
HETATM    8  C   UNL     2     -10.858  13.749  65.170  1.00  0.00    -0.345 C  
HETATM    9  O   UNL     2      -9.462  13.417  65.339  1.00  0.00    -0.489 OA 
HETATM   10  H   UNL     2      -9.225  13.747  66.197  1.00  0.00     0.000 HD 
BRANCH   8  11
HETATM   11  C   UNL     2     -11.134  15.265  65.397  1.00  0.00    -0.347 C  
HETATM   12  O   UNL     2     -11.244  15.972  64.146  1.00  0.00    -1.016 OA 
HETATM   13  H   UNL     2     -11.412  16.897  64.285  1.00  0.00     0.000 HD 
BRANCH  11  14
HETATM   14  C   UNL     2     -10.114  15.974  66.305  1.00  0.00    -0.313 C  
HETATM   15  C   UNL     2     -10.784  16.548  67.586  1.00  0.00    -0.311 C  
HETATM   16  O   UNL     2      -9.414  17.008  65.590  1.00  0.00    -0.526 OA 
HETATM   17  H   UNL     2      -8.784  17.445  66.151  1.00  0.00     0.000 HD 
HETATM   18  O   UNL     2     -11.724  15.831  68.051  1.00  0.00    -0.279 OA 
HETATM   19  O   UNL     2     -10.363  17.689  67.927  1.00  0.00    -0.337 OA 
ENDBRANCH  11  14
ENDBRANCH   8  11
ENDBRANCH   2   8
TORSDOF 4
ENDMDL
MODEL       17
REMARK 921   NORMALIZED FREE ENERGY PREDICTED BY IDOCK:   -5.10 KCAL/MOL
REMARK 922        TOTAL FREE ENERGY PREDICTED BY IDOCK:   -7.30 KCAL/MOL
REMARK 923 INTER-LIGAND FREE ENERGY PREDICTED BY IDOCK:   -6.79 KCAL/MOL
REMARK 924 INTRA-LIGAND FREE ENERGY PREDICTED BY IDOCK:   -0.52 KCAL/MOL
REMARK 927      BINDING AFFINITY PREDICTED BY RF-SCORE:    0.00 PKD
ROOT
HETATM    1  K   UNL     1     -12.773  13.370  62.759  1.00  0.00    -0.520 K  
HETATM    2  C   UNL     2     -11.080  12.430  65.831  1.00  0.00    -0.313 C  
HETATM    3  H   UNL     2     -11.934  11.992  64.103  1.00  0.00     0.000 HD 
HETATM    4  O   UNL     2     -12.213  12.042  65.009  1.00  0.00    -0.366 OA 
ENDROOT
BRANCH   2   5
HETATM    5  C   UNL     2     -11.530  12.511  67.291  1.00  0.00    -0.353 C  
HETATM    6  O   UNL     2     -12.116  11.258  67.663  1.00  0.00    -0.600 OA 
HETATM    7  H   UNL     2     -12.395  11.308  68.569  1.00  0.00     0.000 HD 
ENDBRANCH   2   5
BRANCH   2   8
HETATM    8  C   UNL     2     -10.379  13.714  65.318  1.00  0.00    -0.348 C  
HETATM    9  O   UNL     2      -9.838  13.367  64.023  1.00  0.00    -0.724 OA 
HETATM   10  H   UNL     2      -9.408  14.153  63.709  1.00  0.00     0.000 HD 
BRANCH   8  11
HETATM   11  C   UNL     2     -11.280  14.984  65.257  1.00  0.00    -0.367 C  
HETATM   12  O   UNL     2     -12.092  14.995  64.067  1.00  0.00    -0.855 OA 
HETATM   13  H   UNL     2     -12.641  15.769  64.030  1.00  0.00     0.000 HD 
BRANCH  11  14
HETATM   14  C   UNL     2     -10.521  16.316  65.380  1.00  0.00    -0.343 C  
HETATM   15  C   UNL     2     -10.409  16.781  66.859  1.00  0.00    -0.294 C  
HETATM   16  O   UNL     2     -11.133  17.337  64.570  1.00  0.00    -1.082 OA 
HETATM   17  H   UNL     2     -10.663  18.160  64.646  1.00  0.00     0.000 HD 
HETATM   18  O   UNL     2     -10.259  15.836  67.695  1.00  0.00    -0.256 OA 
HETATM   19  O   UNL     2     -10.575  18.021  67.030  1.00  0.00    -0.366 OA 
ENDBRANCH  11  14
ENDBRANCH   8  11
ENDBRANCH   2   8
TORSDOF 4
ENDMDL
MODEL       18
REMARK 921   NORMALIZED FREE ENERGY PREDICTED BY IDOCK:   -5.09 KCAL/MOL
REMARK 922        TOTAL FREE ENERGY PREDICTED BY IDOCK:   -7.29 KCAL/MOL
REMARK 923 INTER-LIGAND FREE ENERGY PREDICTED BY IDOCK:   -6.63 KCAL/MOL
REMARK 924 INTRA-LIGAND FREE ENERGY PREDICTED BY IDOCK:   -0.66 KCAL/MOL
REMARK 927      BINDING AFFINITY PREDICTED BY RF-SCORE:    0.00 PKD
ROOT
HETATM    1  K   UNL     1     -10.022  12.584  69.109  1.00  0.00    -0.300 K  
HETATM    2  C   UNL     2     -11.493  12.252  65.805  1.00  0.00    -0.367 C  
HETATM    3  H   UNL     2     -11.555  12.063  67.772  1.00  0.00     0.000 HD 
HETATM    4  O   UNL     2     -11.323  11.506  67.039  1.00  0.00    -0.338 OA 
ENDROOT
BRANCH   2   5
HETATM    5  C   UNL     2     -11.119  11.353  64.624  1.00  0.00    -0.207 C  
HETATM    6  O   UNL     2     -11.445  12.033  63.407  1.00  0.00    -0.572 OA 
HETATM    7  H   UNL     2     -11.214  11.475  62.675  1.00  0.00     0.000 HD 
ENDBRANCH   2   5
BRANCH   2   8
HETATM    8  C   UNL     2     -10.747  13.612  65.820  1.00  0.00    -0.280 C  
HETATM    9  O   UNL     2      -9.666  13.469  64.872  1.00  0.00    -0.576 OA 
HETATM   10  H   UNL     2      -9.209  14.301  64.881  1.00  0.00     0.000 HD 
BRANCH   8  11
HETATM   11  C   UNL     2     -11.633  14.857  65.518  1.00  0.00    -0.263 C  
HETATM   12  O   UNL     2     -12.769  14.509  64.703  1.00  0.00    -0.630 OA 
HETATM   13  H   UNL     2     -13.309  15.269  64.519  1.00  0.00     0.000 HD 
BRANCH  11  14
HETATM   14  C   UNL     2     -10.882  16.040  64.882  1.00  0.00    -0.372 C  
HETATM   15  C   UNL     2     -10.656  17.193  65.900  1.00  0.00    -0.215 C  
HETATM   16  O   UNL     2     -11.568  16.521  63.712  1.00  0.00    -1.617 OA 
HETATM   17  H   UNL     2     -11.104  17.251  63.319  1.00  0.00     0.000 HD 
HETATM   18  O   UNL     2     -10.429  16.806  67.088  1.00  0.00    -0.317 OA 
HETATM   19  O   UNL     2     -10.822  18.351  65.422  1.00  0.00    -0.577 OA 
ENDBRANCH  11  14
ENDBRANCH   8  11
ENDBRANCH   2   8
TORSDOF 4
ENDMDL
MODEL       19
REMARK 921   NORMALIZED FREE ENERGY PREDICTED BY IDOCK:   -5.06 KCAL/MOL
REMARK 922        TOTAL FREE ENERGY PREDICTED BY IDOCK:   -7.25 KCAL/MOL
REMARK 923 INTER-LIGAND FREE ENERGY PREDICTED BY IDOCK:   -6.73 KCAL/MOL
REMARK 924 INTRA-LIGAND FREE ENERGY PREDICTED BY IDOCK:   -0.51 KCAL/MOL
REMARK 927      BINDING AFFINITY PREDICTED BY RF-SCORE:    0.00 PKD
ROOT
HETATM    1  K   UNL     1     -12.608  11.208  62.553  1.00  0.00    -0.884 K  
HETATM    2  C   UNL     2     -12.320  14.225  64.552  1.00  0.00    -0.410 C  
HETATM    3  H   UNL     2     -13.190  13.134  63.152  1.00  0.00     0.000 HD 
HETATM    4  O   UNL     2     -12.518  13.804  63.176  1.00  0.00    -0.786 OA 
ENDROOT
BRANCH   2   5
HETATM    5  C   UNL     2     -11.237  15.305  64.592  1.00  0.00    -0.356 C  
HETATM    6  O   UNL     2     -11.587  16.344  63.670  1.00  0.00    -1.514 OA 
HETATM    7  H   UNL     2     -10.915  17.013  63.695  1.00  0.00     0.000 HD 
ENDBRANCH   2   5
BRANCH   2   8
HETATM    8  C   UNL     2     -12.057  13.036  65.511  1.00  0.00    -0.452 C  
HETATM    9  O   UNL     2     -11.479  11.997  64.689  1.00  0.00    -0.324 OA 
HETATM   10  H   UNL     2     -11.318  11.269  65.276  1.00  0.00     0.000 HD 
BRANCH   8  11
HETATM   11  C   UNL     2     -11.172  13.366  66.750  1.00  0.00    -0.310 C  
HETATM   12  O   UNL     2     -10.137  12.380  66.933  1.00  0.00    -0.216 OA 
HETATM   13  H   UNL     2      -9.598  12.581  67.689  1.00  0.00     0.000 HD 
BRANCH  11  14
HETATM   14  C   UNL     2     -11.951  13.552  68.064  1.00  0.00    -0.337 C  
HETATM   15  C   UNL     2     -11.398  14.742  68.898  1.00  0.00    -0.282 C  
HETATM   16  O   UNL     2     -11.950  12.341  68.842  1.00  0.00    -0.308 OA 
HETATM   17  H   UNL     2     -12.431  12.456  69.653  1.00  0.00     0.000 HD 
HETATM   18  O   UNL     2     -10.996  15.726  68.202  1.00  0.00    -0.303 OA 
HETATM   19  O   UNL     2     -11.340  14.525  70.141  1.00  0.00    -0.252 OA 
ENDBRANCH  11  14
ENDBRANCH   8  11
ENDBRANCH   2   8
TORSDOF 4
ENDMDL
MODEL       20
REMARK 921   NORMALIZED FREE ENERGY PREDICTED BY IDOCK:   -5.01 KCAL/MOL
REMARK 922        TOTAL FREE ENERGY PREDICTED BY IDOCK:   -7.19 KCAL/MOL
REMARK 923 INTER-LIGAND FREE ENERGY PREDICTED BY IDOCK:   -6.49 KCAL/MOL
REMARK 924 INTRA-LIGAND FREE ENERGY PREDICTED BY IDOCK:   -0.69 KCAL/MOL
REMARK 927      BINDING AFFINITY PREDICTED BY RF-SCORE:    0.00 PKD
ROOT
HETATM    1  K   UNL     1     -11.123  19.049  64.978  1.00  0.00    -0.507 K  
HETATM    2  C   UNL     2     -11.130  15.434  64.636  1.00  0.00    -0.347 C  
HETATM    3  H   UNL     2     -10.823  17.254  63.930  1.00  0.00     0.000 HD 
HETATM    4  O   UNL     2     -11.538  16.630  63.922  1.00  0.00    -1.204 OA 
ENDROOT
BRANCH   2   5
HETATM    5  C   UNL     2     -12.283  14.427  64.623  1.00  0.00    -0.464 C  
HETATM    6  O   UNL     2     -12.561  14.064  63.266  1.00  0.00    -1.073 OA 
HETATM    7  H   UNL     2     -13.276  13.440  63.258  1.00  0.00     0.000 HD 
ENDBRANCH   2   5
BRANCH   2   8
HETATM    8  C   UNL     2     -10.581  15.740  66.054  1.00  0.00    -0.326 C  
HETATM    9  O   UNL     2     -11.034  14.650  66.887  1.00  0.00    -0.309 OA 
HETATM   10  H   UNL     2     -10.698  14.837  67.755  1.00  0.00     0.000 HD 
BRANCH   8  11
HETATM   11  C   UNL     2      -9.038  15.942  66.138  1.00  0.00    -0.350 C  
HETATM   12  O   UNL     2      -8.392  14.807  66.746  1.00  0.00    -0.351 OA 
HETATM   13  H   UNL     2      -7.452  14.931  66.797  1.00  0.00     0.000 HD 
BRANCH  11  14
HETATM   14  C   UNL     2      -8.599  17.233  66.851  1.00  0.00    -0.240 C  
HETATM   15  C   UNL     2      -9.219  17.346  68.272  1.00  0.00    -0.271 C  
HETATM   16  O   UNL     2      -8.917  18.394  66.062  1.00  0.00    -0.497 OA 
HETATM   17  H   UNL     2      -8.645  19.191  66.503  1.00  0.00     0.000 HD 
HETATM   18  O   UNL     2      -9.332  16.239  68.884  1.00  0.00    -0.227 OA 
HETATM   19  O   UNL     2      -9.608  18.508  68.580  1.00  0.00    -0.331 OA 
ENDBRANCH  11  14
ENDBRANCH   8  11
ENDBRANCH   2   8
TORSDOF 4
ENDMDL
MODEL       21
REMARK 921   NORMALIZED FREE ENERGY PREDICTED BY IDOCK:   -4.98 KCAL/MOL
REMARK 922        TOTAL FREE ENERGY PREDICTED BY IDOCK:   -7.16 KCAL/MOL
REMARK 923 INTER-LIGAND FREE ENERGY PREDICTED BY IDOCK:   -6.75 KCAL/MOL
REMARK 924 INTRA-LIGAND FREE ENERGY PREDICTED BY IDOCK:   -0.41 KCAL/MOL
REMARK 927      BINDING AFFINITY PREDICTED BY RF-SCORE:    0.00 PKD
ROOT
HETATM    1  K   UNL     1     -12.072  16.137  63.210  1.00  0.00    -0.913 K  
HETATM    2  C   UNL     2      -9.782  16.341  66.020  1.00  0.00    -0.339 C  
HETATM    3  H   UNL     2     -11.405  16.908  65.045  1.00  0.00     0.000 HD 
HETATM    4  O   UNL     2     -10.502  17.197  65.094  1.00  0.00    -0.666 OA 
ENDROOT
BRANCH   2   5
HETATM    5  C   UNL     2      -8.326  16.806  66.099  1.00  0.00    -0.266 C  
HETATM    6  O   UNL     2      -8.304  18.234  66.202  1.00  0.00    -0.441 OA 
HETATM    7  H   UNL     2      -7.401  18.523  66.251  1.00  0.00     0.000 HD 
ENDBRANCH   2   5
BRANCH   2   8
HETATM    8  C   UNL     2      -9.943  14.834  65.693  1.00  0.00    -0.360 C  
HETATM    9  O   UNL     2      -8.919  14.161  66.460  1.00  0.00    -0.415 OA 
HETATM   10  H   UNL     2      -9.017  13.239  66.260  1.00  0.00     0.000 HD 
BRANCH   8  11
HETATM   11  C   UNL     2     -11.360  14.244  65.961  1.00  0.00    -0.335 C  
HETATM   12  O   UNL     2     -11.659  14.214  67.370  1.00  0.00    -0.331 OA 
HETATM   13  H   UNL     2     -12.523  13.854  67.533  1.00  0.00     0.000 HD 
BRANCH  11  14
HETATM   14  C   UNL     2     -11.603  12.854  65.348  1.00  0.00    -0.350 C  
HETATM   15  C   UNL     2     -12.520  12.928  64.096  1.00  0.00    -0.335 C  
HETATM   16  O   UNL     2     -12.146  11.946  66.324  1.00  0.00    -0.535 OA 
HETATM   17  H   UNL     2     -12.296  11.088  65.946  1.00  0.00     0.000 HD 
HETATM   18  O   UNL     2     -12.346  13.963  63.380  1.00  0.00    -0.760 OA 
HETATM   19  O   UNL     2     -13.371  11.998  64.017  1.00  0.00    -0.703 OA 
ENDBRANCH  11  14
ENDBRANCH   8  11
ENDBRANCH   2   8
TORSDOF 4
ENDMDL
MODEL       22
REMARK 921   NORMALIZED FREE ENERGY PREDICTED BY IDOCK:   -4.98 KCAL/MOL
REMARK 922        TOTAL FREE ENERGY PREDICTED BY IDOCK:   -7.16 KCAL/MOL
REMARK 923 INTER-LIGAND FREE ENERGY PREDICTED BY IDOCK:   -6.24 KCAL/MOL
REMARK 924 INTRA-LIGAND FREE ENERGY PREDICTED BY IDOCK:   -0.92 KCAL/MOL
REMARK 927      BINDING AFFINITY PREDICTED BY RF-SCORE:    0.00 PKD
ROOT
HETATM    1  K   UNL     1     -11.743  14.923  68.887  1.00  0.00    -0.235 K  
HETATM    2  C   UNL     2      -9.308  16.481  66.690  1.00  0.00    -0.256 C  
HETATM    3  H   UNL     2      -9.883  15.046  67.922  1.00  0.00     0.000 HD 
HETATM    4  O   UNL     2      -9.405  15.863  68.000  1.00  0.00    -0.199 OA 
ENDROOT
BRANCH   2   5
HETATM    5  C   UNL     2      -8.538  17.798  66.816  1.00  0.00    -0.252 C  
HETATM    6  O   UNL     2      -7.735  17.975  65.643  1.00  0.00    -0.539 OA 
HETATM    7  H   UNL     2      -7.257  18.791  65.722  1.00  0.00     0.000 HD 
ENDBRANCH   2   5
BRANCH   2   8
HETATM    8  C   UNL     2     -10.685  16.624  65.991  1.00  0.00    -0.151 C  
HETATM    9  O   UNL     2     -10.690  17.950  65.415  1.00  0.00    -0.634 OA 
HETATM   10  H   UNL     2     -11.533  18.038  64.988  1.00  0.00     0.000 HD 
BRANCH   8  11
HETATM   11  C   UNL     2     -11.012  15.525  64.938  1.00  0.00    -0.436 C  
HETATM   12  O   UNL     2     -11.902  16.021  63.919  1.00  0.00    -1.275 OA 
HETATM   13  H   UNL     2     -12.102  15.351  63.277  1.00  0.00     0.000 HD 
BRANCH  11  14
HETATM   14  C   UNL     2     -11.574  14.219  65.526  1.00  0.00    -0.338 C  
HETATM   15  C   UNL     2     -12.264  13.347  64.439  1.00  0.00    -0.389 C  
HETATM   16  O   UNL     2     -12.478  14.487  66.613  1.00  0.00    -0.494 OA 
HETATM   17  H   UNL     2     -12.825  13.681  66.976  1.00  0.00     0.000 HD 
HETATM   18  O   UNL     2     -11.705  13.392  63.299  1.00  0.00    -0.303 OA 
HETATM   19  O   UNL     2     -13.334  12.792  64.817  1.00  0.00    -0.736 OA 
ENDBRANCH  11  14
ENDBRANCH   8  11
ENDBRANCH   2   8
TORSDOF 4
ENDMDL
MODEL       23
REMARK 921   NORMALIZED FREE ENERGY PREDICTED BY IDOCK:   -4.95 KCAL/MOL
REMARK 922        TOTAL FREE ENERGY PREDICTED BY IDOCK:   -7.12 KCAL/MOL
REMARK 923 INTER-LIGAND FREE ENERGY PREDICTED BY IDOCK:   -6.33 KCAL/MOL
REMARK 924 INTRA-LIGAND FREE ENERGY PREDICTED BY IDOCK:   -0.79 KCAL/MOL
REMARK 927      BINDING AFFINITY PREDICTED BY RF-SCORE:    0.00 PKD
ROOT
HETATM    1  K   UNL     1     -12.471  14.411  62.331  1.00  0.00    -0.896 K  
HETATM    2  C   UNL     2     -12.521  13.499  65.845  1.00  0.00    -0.429 C  
HETATM    3  H   UNL     2     -13.271  14.431  64.272  1.00  0.00     0.000 HD 
HETATM    4  O   UNL     2     -12.683  14.656  64.983  1.00  0.00    -0.447 OA 
ENDROOT
BRANCH   2   5
HETATM    5  C   UNL     2     -11.573  13.860  66.991  1.00  0.00    -0.369 C  
HETATM    6  O   UNL     2     -12.316  13.876  68.215  1.00  0.00    -0.493 OA 
HETATM    7  H   UNL     2     -11.728  14.100  68.926  1.00  0.00     0.000 HD 
ENDBRANCH   2   5
BRANCH   2   8
HETATM    8  C   UNL     2     -12.106  12.224  65.066  1.00  0.00    -0.327 C  
HETATM    9  O   UNL     2     -12.928  12.214  63.877  1.00  0.00    -0.726 OA 
HETATM   10  H   UNL     2     -12.674  11.433  63.400  1.00  0.00     0.000 HD 
BRANCH   8  11
HETATM   11  C   UNL     2     -10.588  12.114  64.732  1.00  0.00    -0.296 C  
HETATM   12  O   UNL     2     -10.144  13.228  63.934  1.00  0.00    -0.754 OA 
HETATM   13  H   UNL     2      -9.219  13.161  63.730  1.00  0.00     0.000 HD 
BRANCH  11  14
HETATM   14  C   UNL     2     -10.173  10.794  64.059  1.00  0.00    -0.322 C  
HETATM   15  C   UNL     2      -8.687  10.441  64.351  1.00  0.00    -0.198 C  
HETATM   16  O   UNL     2     -10.417  10.838  62.641  1.00  0.00    -0.760 OA 
HETATM   17  H   UNL     2     -10.161  10.023  62.225  1.00  0.00     0.000 HD 
HETATM   18  O   UNL     2      -8.292  10.762  65.514  1.00  0.00    -0.168 OA 
HETATM   19  O   UNL     2      -8.059   9.971  63.361  1.00  0.00    -0.144 OA 
ENDBRANCH  11  14
ENDBRANCH   8  11
ENDBRANCH   2   8
TORSDOF 4
ENDMDL
MODEL       24
REMARK 921   NORMALIZED FREE ENERGY PREDICTED BY IDOCK:   -4.94 KCAL/MOL
REMARK 922        TOTAL FREE ENERGY PREDICTED BY IDOCK:   -7.11 KCAL/MOL
REMARK 923 INTER-LIGAND FREE ENERGY PREDICTED BY IDOCK:   -6.42 KCAL/MOL
REMARK 924 INTRA-LIGAND FREE ENERGY PREDICTED BY IDOCK:   -0.69 KCAL/MOL
REMARK 927      BINDING AFFINITY PREDICTED BY RF-SCORE:    0.00 PKD
ROOT
HETATM    1  K   UNL     1     -13.091  15.908  63.608  1.00  0.00    -0.735 K  
HETATM    2  C   UNL     2     -11.870  13.211  65.710  1.00  0.00    -0.397 C  
HETATM    3  H   UNL     2     -13.040  13.920  64.284  1.00  0.00     0.000 HD 
HETATM    4  O   UNL     2     -13.113  13.777  65.220  1.00  0.00    -0.756 OA 
ENDROOT
BRANCH   2   5
HETATM    5  C   UNL     2     -11.988  12.979  67.218  1.00  0.00    -0.321 C  
HETATM    6  O   UNL     2     -11.213  11.828  67.570  1.00  0.00    -0.252 OA 
HETATM    7  H   UNL     2     -11.287  11.684  68.505  1.00  0.00     0.000 HD 
ENDBRANCH   2   5
BRANCH   2   8
HETATM    8  C   UNL     2     -10.628  14.044  65.298  1.00  0.00    -0.363 C  
HETATM    9  O   UNL     2     -10.326  13.641  63.944  1.00  0.00    -0.590 OA 
HETATM   10  H   UNL     2      -9.566  14.151  63.691  1.00  0.00     0.000 HD 
BRANCH   8  11
HETATM   11  C   UNL     2     -10.791  15.587  65.430  1.00  0.00    -0.390 C  
HETATM   12  O   UNL     2     -10.821  16.224  64.138  1.00  0.00    -1.006 OA 
HETATM   13  H   UNL     2     -10.920  17.166  64.219  1.00  0.00     0.000 HD 
BRANCH  11  14
HETATM   14  C   UNL     2      -9.739  16.270  66.322  1.00  0.00    -0.304 C  
HETATM   15  C   UNL     2      -9.725  17.811  66.119  1.00  0.00    -0.217 C  
HETATM   16  O   UNL     2      -8.430  15.714  66.096  1.00  0.00    -0.374 OA 
HETATM   17  H   UNL     2      -7.781  16.136  66.647  1.00  0.00     0.000 HD 
HETATM   18  O   UNL     2     -10.868  18.322  65.907  1.00  0.00    -0.257 OA 
HETATM   19  O   UNL     2      -8.571  18.324  66.101  1.00  0.00    -0.455 OA 
ENDBRANCH  11  14
ENDBRANCH   8  11
ENDBRANCH   2   8
TORSDOF 4
ENDMDL
MODEL       25
REMARK 921   NORMALIZED FREE ENERGY PREDICTED BY IDOCK:   -4.93 KCAL/MOL
REMARK 922        TOTAL FREE ENERGY PREDICTED BY IDOCK:   -7.10 KCAL/MOL
REMARK 923 INTER-LIGAND FREE ENERGY PREDICTED BY IDOCK:   -6.59 KCAL/MOL
REMARK 924 INTRA-LIGAND FREE ENERGY PREDICTED BY IDOCK:   -0.51 KCAL/MOL
REMARK 927      BINDING AFFINITY PREDICTED BY RF-SCORE:    0.00 PKD
ROOT
HETATM    1  K   UNL     1     -11.086  18.882  65.262  1.00  0.00    -0.457 K  
HETATM    2  C   UNL     2     -11.212  15.305  64.649  1.00  0.00    -0.356 C  
HETATM    3  H   UNL     2     -10.833  17.161  64.085  1.00  0.00     0.000 HD 
HETATM    4  O   UNL     2     -11.569  16.565  64.022  1.00  0.00    -1.154 OA 
ENDROOT
BRANCH   2   5
HETATM    5  C   UNL     2     -12.398  14.344  64.548  1.00  0.00    -0.418 C  
HETATM    6  O   UNL     2     -12.480  13.854  63.205  1.00  0.00    -1.121 OA 
HETATM    7  H   UNL     2     -13.216  13.258  63.142  1.00  0.00     0.000 HD 
ENDBRANCH   2   5
BRANCH   2   8
HETATM    8  C   UNL     2     -10.671  15.485  66.091  1.00  0.00    -0.313 C  
HETATM    9  O   UNL     2     -10.785  16.898  66.372  1.00  0.00    -0.220 OA 
HETATM   10  H   UNL     2     -10.454  17.009  67.255  1.00  0.00     0.000 HD 
BRANCH   8  11
HETATM   11  C   UNL     2     -11.370  14.612  67.176  1.00  0.00    -0.356 C  
HETATM   12  O   UNL     2     -12.008  15.430  68.177  1.00  0.00    -0.471 OA 
HETATM   13  H   UNL     2     -12.434  14.897  68.839  1.00  0.00     0.000 HD 
BRANCH  11  14
HETATM   14  C   UNL     2     -10.455  13.579  67.855  1.00  0.00    -0.250 C  
HETATM   15  C   UNL     2     -11.144  12.189  67.972  1.00  0.00    -0.244 C  
HETATM   16  O   UNL     2     -10.020  14.042  69.147  1.00  0.00    -0.422 OA 
HETATM   17  H   UNL     2      -9.455  13.403  69.566  1.00  0.00     0.000 HD 
HETATM   18  O   UNL     2     -11.891  11.891  66.990  1.00  0.00    -0.585 OA 
HETATM   19  O   UNL     2     -10.936  11.595  69.068  1.00  0.00    -0.219 OA 
ENDBRANCH  11  14
ENDBRANCH   8  11
ENDBRANCH   2   8
TORSDOF 4
ENDMDL
MODEL       26
REMARK 921   NORMALIZED FREE ENERGY PREDICTED BY IDOCK:   -4.89 KCAL/MOL
REMARK 922        TOTAL FREE ENERGY PREDICTED BY IDOCK:   -7.04 KCAL/MOL
REMARK 923 INTER-LIGAND FREE ENERGY PREDICTED BY IDOCK:   -6.70 KCAL/MOL
REMARK 924 INTRA-LIGAND FREE ENERGY PREDICTED BY IDOCK:   -0.34 KCAL/MOL
REMARK 927      BINDING AFFINITY PREDICTED BY RF-SCORE:    0.00 PKD
ROOT
HETATM    1  K   UNL     1     -12.810  15.072  67.613  1.00  0.00    -0.544 K  
HETATM    2  C   UNL     2     -12.316  14.068  64.158  1.00  0.00    -0.332 C  
HETATM    3  H   UNL     2     -13.470  14.557  65.687  1.00  0.00     0.000 HD 
HETATM    4  O   UNL     2     -13.136  13.750  65.314  1.00  0.00    -0.756 OA 
ENDROOT
BRANCH   2   5
HETATM    5  C   UNL     2     -11.778  12.768  63.556  1.00  0.00    -0.530 C  
HETATM    6  O   UNL     2     -12.882  11.985  63.091  1.00  0.00    -0.794 OA 
HETATM    7  H   UNL     2     -12.549  11.178  62.718  1.00  0.00     0.000 HD 
ENDBRANCH   2   5
BRANCH   2   8
HETATM    8  C   UNL     2     -11.218  15.117  64.473  1.00  0.00    -0.272 C  
HETATM    9  O   UNL     2     -11.683  16.352  63.883  1.00  0.00    -1.504 OA 
HETATM   10  H   UNL     2     -11.011  16.993  64.076  1.00  0.00     0.000 HD 
BRANCH   8  11
HETATM   11  C   UNL     2     -10.869  15.280  65.982  1.00  0.00    -0.330 C  
HETATM   12  O   UNL     2     -10.637  16.661  66.320  1.00  0.00    -0.286 OA 
HETATM   13  H   UNL     2     -10.424  16.761  67.241  1.00  0.00     0.000 HD 
BRANCH  11  14
HETATM   14  C   UNL     2      -9.688  14.421  66.465  1.00  0.00    -0.290 C  
HETATM   15  C   UNL     2      -9.873  13.964  67.939  1.00  0.00    -0.228 C  
HETATM   16  O   UNL     2      -8.439  15.119  66.301  1.00  0.00    -0.416 OA 
HETATM   17  H   UNL     2      -7.710  14.589  66.599  1.00  0.00     0.000 HD 
HETATM   18  O   UNL     2     -11.074  13.706  68.261  1.00  0.00    -0.238 OA 
HETATM   19  O   UNL     2      -8.818  14.003  68.634  1.00  0.00    -0.175 OA 
ENDBRANCH  11  14
ENDBRANCH   8  11
ENDBRANCH   2   8
TORSDOF 4
ENDMDL
MODEL       27
REMARK 921   NORMALIZED FREE ENERGY PREDICTED BY IDOCK:   -4.88 KCAL/MOL
REMARK 922        TOTAL FREE ENERGY PREDICTED BY IDOCK:   -7.04 KCAL/MOL
REMARK 923 INTER-LIGAND FREE ENERGY PREDICTED BY IDOCK:   -6.52 KCAL/MOL
REMARK 924 INTRA-LIGAND FREE ENERGY PREDICTED BY IDOCK:   -0.51 KCAL/MOL
REMARK 927      BINDING AFFINITY PREDICTED BY RF-SCORE:    0.00 PKD
ROOT
HETATM    1  K   UNL     1      -7.338  15.795  67.793  1.00  0.00    -0.108 K  
HETATM    2  C   UNL     2     -10.007  15.577  65.341  1.00  0.00    -0.304 C  
HETATM    3  H   UNL     2      -8.124  15.896  65.849  1.00  0.00     0.000 HD 
HETATM    4  O   UNL     2      -8.896  16.433  65.719  1.00  0.00    -0.446 OA 
ENDROOT
BRANCH   2   5
HETATM    5  C   UNL     2     -11.252  16.441  65.131  1.00  0.00    -0.067 C  
HETATM    6  O   UNL     2     -11.596  16.424  63.741  1.00  0.00    -1.605 OA 
HETATM    7  H   UNL     2     -12.369  16.960  63.611  1.00  0.00     0.000 HD 
ENDBRANCH   2   5
BRANCH   2   8
HETATM    8  C   UNL     2     -10.218  14.399  66.326  1.00  0.00    -0.299 C  
HETATM    9  O   UNL     2     -11.359  14.771  67.133  1.00  0.00    -0.337 OA 
HETATM   10  H   UNL     2     -11.488  14.050  67.737  1.00  0.00     0.000 HD 
BRANCH   8  11
HETATM   11  C   UNL     2     -10.400  13.002  65.662  1.00  0.00    -0.285 C  
HETATM   12  O   UNL     2      -9.174  12.246  65.686  1.00  0.00    -0.433 OA 
HETATM   13  H   UNL     2      -9.284  11.394  65.280  1.00  0.00     0.000 HD 
BRANCH  11  14
HETATM   14  C   UNL     2     -10.958  13.040  64.229  1.00  0.00    -0.399 C  
HETATM   15  C   UNL     2     -12.470  12.679  64.190  1.00  0.00    -0.403 C  
HETATM   16  O   UNL     2     -10.206  12.177  63.356  1.00  0.00    -0.433 OA 
HETATM   17  H   UNL     2     -10.551  12.202  62.471  1.00  0.00     0.000 HD 
HETATM   18  O   UNL     2     -13.135  13.098  65.188  1.00  0.00    -0.703 OA 
HETATM   19  O   UNL     2     -12.805  11.942  63.220  1.00  0.00    -0.702 OA 
ENDBRANCH  11  14
ENDBRANCH   8  11
ENDBRANCH   2   8
TORSDOF 4
ENDMDL
MODEL       28
REMARK 921   NORMALIZED FREE ENERGY PREDICTED BY IDOCK:   -4.87 KCAL/MOL
REMARK 922        TOTAL FREE ENERGY PREDICTED BY IDOCK:   -7.02 KCAL/MOL
REMARK 923 INTER-LIGAND FREE ENERGY PREDICTED BY IDOCK:   -5.94 KCAL/MOL
REMARK 924 INTRA-LIGAND FREE ENERGY PREDICTED BY IDOCK:   -1.08 KCAL/MOL
REMARK 927      BINDING AFFINITY PREDICTED BY RF-SCORE:    0.00 PKD
ROOT
HETATM    1  K   UNL     1     -11.363  10.697  67.232  1.00  0.00    -0.250 K  
HETATM    2  C   UNL     2     -12.070  13.777  65.444  1.00  0.00    -0.407 C  
HETATM    3  H   UNL     2     -12.624  12.224  66.532  1.00  0.00     0.000 HD 
HETATM    4  O   UNL     2     -12.586  12.430  65.606  1.00  0.00    -0.575 OA 
ENDROOT
BRANCH   2   5
HETATM    5  C   UNL     2     -12.008  14.110  63.951  1.00  0.00    -0.243 C  
HETATM    6  O   UNL     2     -12.205  15.519  63.785  1.00  0.00    -0.996 OA 
HETATM    7  H   UNL     2     -12.167  15.725  62.859  1.00  0.00     0.000 HD 
ENDBRANCH   2   5
BRANCH   2   8
HETATM    8  C   UNL     2     -10.730  14.001  66.193  1.00  0.00    -0.289 C  
HETATM    9  O   UNL     2      -9.758  14.296  65.165  1.00  0.00    -0.551 OA 
HETATM   10  H   UNL     2      -8.938  14.433  65.623  1.00  0.00     0.000 HD 
BRANCH   8  11
HETATM   11  C   UNL     2     -10.765  15.096  67.300  1.00  0.00    -0.305 C  
HETATM   12  O   UNL     2     -12.102  15.299  67.797  1.00  0.00    -0.407 OA 
HETATM   13  H   UNL     2     -12.122  15.968  68.472  1.00  0.00     0.000 HD 
BRANCH  11  14
HETATM   14  C   UNL     2     -10.153  16.446  66.887  1.00  0.00    -0.281 C  
HETATM   15  C   UNL     2     -10.474  17.564  67.920  1.00  0.00    -0.384 C  
HETATM   16  O   UNL     2     -10.588  16.830  65.570  1.00  0.00    -0.496 OA 
HETATM   17  H   UNL     2     -10.209  17.663  65.315  1.00  0.00     0.000 HD 
HETATM   18  O   UNL     2     -10.496  17.171  69.127  1.00  0.00    -0.323 OA 
HETATM   19  O   UNL     2     -10.758  18.682  67.405  1.00  0.00    -0.431 OA 
ENDBRANCH  11  14
ENDBRANCH   8  11
ENDBRANCH   2   8
TORSDOF 4
ENDMDL
MODEL       29
REMARK 921   NORMALIZED FREE ENERGY PREDICTED BY IDOCK:   -4.86 KCAL/MOL
REMARK 922        TOTAL FREE ENERGY PREDICTED BY IDOCK:   -7.00 KCAL/MOL
REMARK 923 INTER-LIGAND FREE ENERGY PREDICTED BY IDOCK:   -6.28 KCAL/MOL
REMARK 924 INTRA-LIGAND FREE ENERGY PREDICTED BY IDOCK:   -0.73 KCAL/MOL
REMARK 927      BINDING AFFINITY PREDICTED BY RF-SCORE:    0.00 PKD
ROOT
HETATM    1  K   UNL     1     -11.599  11.491  62.561  1.00  0.00    -0.583 K  
HETATM    2  C   UNL     2     -10.172  10.965  65.858  1.00  0.00    -0.257 C  
HETATM    3  H   UNL     2     -10.035  11.042  63.888  1.00  0.00     0.000 HD 
HETATM    4  O   UNL     2     -10.194  10.366  64.536  1.00  0.00    -0.342 OA 
ENDROOT
BRANCH   2   5
HETATM    5  C   UNL     2     -10.428   9.876  66.902  1.00  0.00    -0.215 C  
HETATM    6  O   UNL     2     -11.618  10.203  67.627  1.00  0.00    -0.574 OA 
HETATM    7  H   UNL     2     -11.777   9.528  68.275  1.00  0.00     0.000 HD 
ENDBRANCH   2   5
BRANCH   2   8
HETATM    8  C   UNL     2     -11.119  12.186  65.979  1.00  0.00    -0.313 C  
HETATM    9  O   UNL     2     -10.890  12.723  67.302  1.00  0.00    -0.244 OA 
HETATM   10  H   UNL     2     -11.470  13.470  67.376  1.00  0.00     0.000 HD 
BRANCH   8  11
HETATM   11  C   UNL     2     -10.954  13.267  64.870  1.00  0.00    -0.330 C  
HETATM   12  O   UNL     2      -9.758  13.048  64.097  1.00  0.00    -0.673 OA 
HETATM   13  H   UNL     2      -9.658  13.708  63.420  1.00  0.00     0.000 HD 
BRANCH  11  14
HETATM   14  C   UNL     2     -10.986  14.719  65.378  1.00  0.00    -0.359 C  
HETATM   15  C   UNL     2     -11.783  15.648  64.419  1.00  0.00    -0.218 C  
HETATM   16  O   UNL     2      -9.654  15.223  65.586  1.00  0.00    -0.336 OA 
HETATM   17  H   UNL     2      -9.673  16.120  65.900  1.00  0.00     0.000 HD 
HETATM   18  O   UNL     2     -12.790  15.098  63.875  1.00  0.00    -0.671 OA 
HETATM   19  O   UNL     2     -11.263  16.786  64.246  1.00  0.00    -1.163 OA 
ENDBRANCH  11  14
ENDBRANCH   8  11
ENDBRANCH   2   8
TORSDOF 4
ENDMDL
MODEL       30
REMARK 921   NORMALIZED FREE ENERGY PREDICTED BY IDOCK:   -4.86 KCAL/MOL
REMARK 922        TOTAL FREE ENERGY PREDICTED BY IDOCK:   -7.00 KCAL/MOL
REMARK 923 INTER-LIGAND FREE ENERGY PREDICTED BY IDOCK:   -6.15 KCAL/MOL
REMARK 924 INTRA-LIGAND FREE ENERGY PREDICTED BY IDOCK:   -0.85 KCAL/MOL
REMARK 927      BINDING AFFINITY PREDICTED BY RF-SCORE:    0.00 PKD
ROOT
HETATM    1  K   UNL     1     -10.119  11.184  65.952  1.00  0.00    -0.199 K  
HETATM    2  C   UNL     2     -11.594  14.357  64.982  1.00  0.00    -0.374 C  
HETATM    3  H   UNL     2     -11.097  12.478  64.619  1.00  0.00     0.000 HD 
HETATM    4  O   UNL     2     -10.704  13.330  64.472  1.00  0.00    -0.368 OA 
ENDROOT
BRANCH   2   5
HETATM    5  C   UNL     2     -10.960  15.729  64.744  1.00  0.00    -0.393 C  
HETATM    6  O   UNL     2     -11.739  16.433  63.770  1.00  0.00    -1.553 OA 
HETATM    7  H   UNL     2     -11.345  17.284  63.622  1.00  0.00     0.000 HD 
ENDBRANCH   2   5
BRANCH   2   8
HETATM    8  C   UNL     2     -12.017  14.107  66.453  1.00  0.00    -0.436 C  
HETATM    9  O   UNL     2     -12.177  12.675  66.571  1.00  0.00    -0.538 OA 
HETATM   10  H   UNL     2     -12.436  12.522  67.471  1.00  0.00     0.000 HD 
BRANCH   8  11
HETATM   11  C   UNL     2     -11.047  14.680  67.529  1.00  0.00    -0.313 C  
HETATM   12  O   UNL     2     -10.048  13.713  67.904  1.00  0.00    -0.232 OA 
HETATM   13  H   UNL     2      -9.457  14.062  68.561  1.00  0.00     0.000 HD 
BRANCH  11  14
HETATM   14  C   UNL     2     -11.739  15.228  68.789  1.00  0.00    -0.353 C  
HETATM   15  C   UNL     2     -10.708  15.653  69.873  1.00  0.00    -0.322 C  
HETATM   16  O   UNL     2     -12.675  14.274  69.323  1.00  0.00    -0.481 OA 
HETATM   17  H   UNL     2     -13.102  14.613  70.101  1.00  0.00     0.000 HD 
HETATM   18  O   UNL     2      -9.641  16.162  69.410  1.00  0.00    -0.249 OA 
HETATM   19  O   UNL     2     -11.037  15.347  71.054  1.00  0.00    -0.344 OA 
ENDBRANCH  11  14
ENDBRANCH   8  11
ENDBRANCH   2   8
TORSDOF 4
ENDMDL
MODEL       31
REMARK 921   NORMALIZED FREE ENERGY PREDICTED BY IDOCK:   -4.85 KCAL/MOL
REMARK 922        TOTAL FREE ENERGY PREDICTED BY IDOCK:   -7.00 KCAL/MOL
REMARK 923 INTER-LIGAND FREE ENERGY PREDICTED BY IDOCK:   -6.11 KCAL/MOL
REMARK 924 INTRA-LIGAND FREE ENERGY PREDICTED BY IDOCK:   -0.89 KCAL/MOL
REMARK 927      BINDING AFFINITY PREDICTED BY RF-SCORE:    0.00 PKD
ROOT
HETATM    1  K   UNL     1     -13.580  14.235  66.276  1.00  0.00    -0.532 K  
HETATM    2  C   UNL     2     -10.959  15.303  68.552  1.00  0.00    -0.266 C  
HETATM    3  H   UNL     2     -12.068  13.908  67.696  1.00  0.00     0.000 HD 
HETATM    4  O   UNL     2     -12.107  14.415  68.498  1.00  0.00    -0.318 OA 
ENDROOT
BRANCH   2   5
HETATM    5  C   UNL     2     -11.022  16.120  69.844  1.00  0.00    -0.362 C  
HETATM    6  O   UNL     2     -12.309  15.936  70.444  1.00  0.00    -0.387 OA 
HETATM    7  H   UNL     2     -12.348  16.443  71.245  1.00  0.00     0.000 HD 
ENDBRANCH   2   5
BRANCH   2   8
HETATM    8  C   UNL     2     -10.807  16.164  67.271  1.00  0.00    -0.235 C  
HETATM    9  O   UNL     2     -10.419  17.478  67.734  1.00  0.00    -0.354 OA 
HETATM   10  H   UNL     2     -10.326  18.005  66.950  1.00  0.00     0.000 HD 
BRANCH   8  11
HETATM   11  C   UNL     2      -9.821  15.601  66.206  1.00  0.00    -0.295 C  
HETATM   12  O   UNL     2      -9.041  16.652  65.604  1.00  0.00    -0.477 OA 
HETATM   13  H   UNL     2      -8.439  16.308  64.954  1.00  0.00     0.000 HD 
BRANCH  11  14
HETATM   14  C   UNL     2     -10.481  14.750  65.107  1.00  0.00    -0.418 C  
HETATM   15  C   UNL     2     -11.540  15.561  64.308  1.00  0.00    -0.194 C  
HETATM   16  O   UNL     2     -11.064  13.554  65.657  1.00  0.00    -0.289 OA 
HETATM   17  H   UNL     2     -11.471  13.029  64.979  1.00  0.00     0.000 HD 
HETATM   18  O   UNL     2     -11.240  16.782  64.131  1.00  0.00    -1.155 OA 
HETATM   19  O   UNL     2     -12.589  14.915  64.030  1.00  0.00    -0.832 OA 
ENDBRANCH  11  14
ENDBRANCH   8  11
ENDBRANCH   2   8
TORSDOF 4
ENDMDL
MODEL       32
REMARK 921   NORMALIZED FREE ENERGY PREDICTED BY IDOCK:   -4.84 KCAL/MOL
REMARK 922        TOTAL FREE ENERGY PREDICTED BY IDOCK:   -6.99 KCAL/MOL
REMARK 923 INTER-LIGAND FREE ENERGY PREDICTED BY IDOCK:   -6.27 KCAL/MOL
REMARK 924 INTRA-LIGAND FREE ENERGY PREDICTED BY IDOCK:   -0.71 KCAL/MOL
REMARK 927      BINDING AFFINITY PREDICTED BY RF-SCORE:    0.00 PKD
ROOT
HETATM    1  K   UNL     1      -9.870   9.218  64.531  1.00  0.00    -0.382 K  
HETATM    2  C   UNL     2     -10.003  12.373  66.324  1.00  0.00    -0.246 C  
HETATM    3  H   UNL     2      -9.226  11.169  64.962  1.00  0.00     0.000 HD 
HETATM    4  O   UNL     2      -9.047  11.378  65.871  1.00  0.00    -0.207 OA 
ENDROOT
BRANCH   2   5
HETATM    5  C   UNL     2      -9.715  12.709  67.789  1.00  0.00    -0.206 C  
HETATM    6  O   UNL     2     -10.560  13.794  68.187  1.00  0.00    -0.241 OA 
HETATM    7  H   UNL     2     -10.381  14.003  69.096  1.00  0.00     0.000 HD 
ENDBRANCH   2   5
BRANCH   2   8
HETATM    8  C   UNL     2     -11.472  11.960  66.052  1.00  0.00    -0.281 C  
HETATM    9  O   UNL     2     -12.008  11.569  67.336  1.00  0.00    -0.623 OA 
HETATM   10  H   UNL     2     -12.907  11.316  67.170  1.00  0.00     0.000 HD 
BRANCH   8  11
HETATM   11  C   UNL     2     -12.348  13.044  65.356  1.00  0.00    -0.486 C  
HETATM   12  O   UNL     2     -13.533  12.467  64.774  1.00  0.00    -0.645 OA 
HETATM   13  H   UNL     2     -14.067  13.129  64.349  1.00  0.00     0.000 HD 
BRANCH  11  14
HETATM   14  C   UNL     2     -11.609  13.887  64.302  1.00  0.00    -0.355 C  
HETATM   15  C   UNL     2     -11.426  15.359  64.766  1.00  0.00    -0.336 C  
HETATM   16  O   UNL     2     -12.283  13.833  63.031  1.00  0.00    -1.031 OA 
HETATM   17  H   UNL     2     -11.826  14.353  62.380  1.00  0.00     0.000 HD 
HETATM   18  O   UNL     2     -11.214  15.493  66.011  1.00  0.00    -0.247 OA 
HETATM   19  O   UNL     2     -11.606  16.218  63.858  1.00  0.00    -0.987 OA 
ENDBRANCH  11  14
ENDBRANCH   8  11
ENDBRANCH   2   8
TORSDOF 4
ENDMDL
MODEL       33
REMARK 921   NORMALIZED FREE ENERGY PREDICTED BY IDOCK:   -4.84 KCAL/MOL
REMARK 922        TOTAL FREE ENERGY PREDICTED BY IDOCK:   -6.98 KCAL/MOL
REMARK 923 INTER-LIGAND FREE ENERGY PREDICTED BY IDOCK:   -6.45 KCAL/MOL
REMARK 924 INTRA-LIGAND FREE ENERGY PREDICTED BY IDOCK:   -0.53 KCAL/MOL
REMARK 927      BINDING AFFINITY PREDICTED BY RF-SCORE:    0.00 PKD
ROOT
HETATM    1  K   UNL     1     -12.810  14.490  62.819  1.00  0.00    -0.854 K  
HETATM    2  C   UNL     2     -10.967  14.793  65.932  1.00  0.00    -0.335 C  
HETATM    3  H   UNL     2     -11.653  13.744  64.404  1.00  0.00     0.000 HD 
HETATM    4  O   UNL     2     -11.946  13.937  65.286  1.00  0.00    -0.341 OA 
ENDROOT
BRANCH   2   5
HETATM    5  C   UNL     2     -11.440  15.104  67.354  1.00  0.00    -0.277 C  
HETATM    6  O   UNL     2     -12.519  14.223  67.684  1.00  0.00    -0.570 OA 
HETATM    7  H   UNL     2     -12.812  14.416  68.566  1.00  0.00     0.000 HD 
ENDBRANCH   2   5
BRANCH   2   8
HETATM    8  C   UNL     2     -10.624  16.052  65.094  1.00  0.00    -0.370 C  
HETATM    9  O   UNL     2     -11.497  15.998  63.943  1.00  0.00    -1.188 OA 
HETATM   10  H   UNL     2     -11.287  16.769  63.430  1.00  0.00     0.000 HD 
BRANCH   8  11
HETATM   11  C   UNL     2     -10.737  17.406  65.855  1.00  0.00    -0.123 C  
HETATM   12  O   UNL     2     -11.120  18.476  64.969  1.00  0.00    -0.528 OA 
HETATM   13  H   UNL     2     -11.189  19.302  65.433  1.00  0.00     0.000 HD 
BRANCH  11  14
HETATM   14  C   UNL     2      -9.477  17.809  66.640  1.00  0.00    -0.292 C  
HETATM   15  C   UNL     2      -9.664  19.166  67.374  1.00  0.00    -0.320 C  
HETATM   16  O   UNL     2      -8.323  17.849  65.781  1.00  0.00    -0.521 OA 
HETATM   17  H   UNL     2      -7.544  18.097  66.266  1.00  0.00     0.000 HD 
HETATM   18  O   UNL     2     -10.835  19.360  67.827  1.00  0.00    -0.418 OA 
HETATM   19  O   UNL     2      -8.654  19.923  67.336  1.00  0.00    -0.312 OA 
ENDBRANCH  11  14
ENDBRANCH   8  11
ENDBRANCH   2   8
TORSDOF 4
ENDMDL
MODEL       34
REMARK 921   NORMALIZED FREE ENERGY PREDICTED BY IDOCK:   -4.82 KCAL/MOL
REMARK 922        TOTAL FREE ENERGY PREDICTED BY IDOCK:   -6.95 KCAL/MOL
REMARK 923 INTER-LIGAND FREE ENERGY PREDICTED BY IDOCK:   -6.27 KCAL/MOL
REMARK 924 INTRA-LIGAND FREE ENERGY PREDICTED BY IDOCK:   -0.69 KCAL/MOL
REMARK 927      BINDING AFFINITY PREDICTED BY RF-SCORE:    0.00 PKD
ROOT
HETATM    1  K   UNL     1      -9.843  12.079  67.502  1.00  0.00    -0.172 K  
HETATM    2  C   UNL     2     -10.334  10.879  64.111  1.00  0.00    -0.364 C  
HETATM    3  H   UNL     2     -10.420  10.654  66.072  1.00  0.00     0.000 HD 
HETATM    4  O   UNL     2      -9.796  10.446  65.388  1.00  0.00    -0.243 OA 
ENDROOT
BRANCH   2   5
HETATM    5  C   UNL     2      -9.328  10.544  63.007  1.00  0.00    -0.322 C  
HETATM    6  O   UNL     2      -9.457   9.158  62.671  1.00  0.00    -0.505 OA 
HETATM    7  H   UNL     2      -8.832   8.950  61.987  1.00  0.00     0.000 HD 
ENDBRANCH   2   5
BRANCH   2   8
HETATM    8  C   UNL     2     -10.784  12.363  64.121  1.00  0.00    -0.379 C  
HETATM    9  O   UNL     2     -11.410  12.585  62.837  1.00  0.00    -0.677 OA 
HETATM   10  H   UNL     2     -11.685  13.493  62.844  1.00  0.00     0.000 HD 
BRANCH   8  11
HETATM   11  C   UNL     2     -11.712  12.767  65.305  1.00  0.00    -0.368 C  
HETATM   12  O   UNL     2     -13.102  12.628  64.954  1.00  0.00    -0.850 OA 
HETATM   13  H   UNL     2     -13.668  12.875  65.676  1.00  0.00     0.000 HD 
BRANCH  11  14
HETATM   14  C   UNL     2     -11.457  14.175  65.869  1.00  0.00    -0.338 C  
HETATM   15  C   UNL     2     -11.638  15.272  64.782  1.00  0.00    -0.322 C  
HETATM   16  O   UNL     2     -10.151  14.264  66.470  1.00  0.00    -0.264 OA 
HETATM   17  H   UNL     2      -9.994  15.134  66.818  1.00  0.00     0.000 HD 
HETATM   18  O   UNL     2     -12.565  15.034  63.947  1.00  0.00    -0.813 OA 
HETATM   19  O   UNL     2     -10.779  16.198  64.828  1.00  0.00    -0.648 OA 
ENDBRANCH  11  14
ENDBRANCH   8  11
ENDBRANCH   2   8
TORSDOF 4
ENDMDL
MODEL       35
REMARK 921   NORMALIZED FREE ENERGY PREDICTED BY IDOCK:   -4.79 KCAL/MOL
REMARK 922        TOTAL FREE ENERGY PREDICTED BY IDOCK:   -6.92 KCAL/MOL
REMARK 923 INTER-LIGAND FREE ENERGY PREDICTED BY IDOCK:   -5.84 KCAL/MOL
REMARK 924 INTRA-LIGAND FREE ENERGY PREDICTED BY IDOCK:   -1.08 KCAL/MOL
REMARK 927      BINDING AFFINITY PREDICTED BY RF-SCORE:    0.00 PKD
ROOT
HETATM    1  K   UNL     1     -14.223  14.004  65.439  1.00  0.00    -0.689 K  
HETATM    2  C   UNL     2     -11.274  12.863  63.654  1.00  0.00    -0.366 C  
HETATM    3  H   UNL     2     -13.187  13.354  63.732  1.00  0.00     0.000 HD 
HETATM    4  O   UNL     2     -12.684  12.552  63.808  1.00  0.00    -0.696 OA 
ENDROOT
BRANCH   2   5
HETATM    5  C   UNL     2     -10.462  11.571  63.775  1.00  0.00    -0.405 C  
HETATM    6  O   UNL     2     -10.706  10.764  62.618  1.00  0.00    -0.703 OA 
HETATM    7  H   UNL     2     -10.203   9.963  62.693  1.00  0.00     0.000 HD 
ENDBRANCH   2   5
BRANCH   2   8
HETATM    8  C   UNL     2     -10.802  13.993  64.606  1.00  0.00    -0.403 C  
HETATM    9  O   UNL     2     -11.567  15.160  64.229  1.00  0.00    -0.644 OA 
HETATM   10  H   UNL     2     -11.278  15.851  64.811  1.00  0.00     0.000 HD 
BRANCH   8  11
HETATM   11  C   UNL     2     -10.925  13.675  66.126  1.00  0.00    -0.284 C  
HETATM   12  O   UNL     2     -12.286  13.808  66.581  1.00  0.00    -0.426 OA 
HETATM   13  H   UNL     2     -12.361  13.614  67.508  1.00  0.00     0.000 HD 
BRANCH  11  14
HETATM   14  C   UNL     2      -9.992  14.497  67.031  1.00  0.00    -0.255 C  
HETATM   15  C   UNL     2     -10.286  14.250  68.538  1.00  0.00    -0.245 C  
HETATM   16  O   UNL     2     -10.073  15.901  66.720  1.00  0.00    -0.256 OA 
HETATM   17  H   UNL     2      -9.497  16.408  67.279  1.00  0.00     0.000 HD 
HETATM   18  O   UNL     2     -10.623  13.057  68.817  1.00  0.00    -0.243 OA 
HETATM   19  O   UNL     2     -10.238  15.288  69.256  1.00  0.00    -0.226 OA 
ENDBRANCH  11  14
ENDBRANCH   8  11
ENDBRANCH   2   8
TORSDOF 4
ENDMDL
MODEL       36
REMARK 921   NORMALIZED FREE ENERGY PREDICTED BY IDOCK:   -4.79 KCAL/MOL
REMARK 922        TOTAL FREE ENERGY PREDICTED BY IDOCK:   -6.92 KCAL/MOL
REMARK 923 INTER-LIGAND FREE ENERGY PREDICTED BY IDOCK:   -6.44 KCAL/MOL
REMARK 924 INTRA-LIGAND FREE ENERGY PREDICTED BY IDOCK:   -0.48 KCAL/MOL
REMARK 927      BINDING AFFINITY PREDICTED BY RF-SCORE:    0.00 PKD
ROOT
HETATM    1  K   UNL     1     -13.414  12.543  64.021  1.00  0.00    -0.640 K  
HETATM    2  C   UNL     2     -11.494  12.722  67.098  1.00  0.00    -0.337 C  
HETATM    3  H   UNL     2     -11.776  12.080  65.250  1.00  0.00     0.000 HD 
HETATM    4  O   UNL     2     -11.964  11.755  66.122  1.00  0.00    -0.464 OA 
ENDROOT
BRANCH   2   5
HETATM    5  C   UNL     2     -11.797  12.198  68.504  1.00  0.00    -0.310 C  
HETATM    6  O   UNL     2     -12.304  10.863  68.398  1.00  0.00    -0.803 OA 
HETATM    7  H   UNL     2     -12.491  10.538  69.270  1.00  0.00     0.000 HD 
ENDBRANCH   2   5
BRANCH   2   8
HETATM    8  C   UNL     2     -12.032  14.152  66.832  1.00  0.00    -0.449 C  
HETATM    9  O   UNL     2     -12.290  14.716  68.137  1.00  0.00    -0.598 OA 
HETATM   10  H   UNL     2     -12.619  15.591  67.974  1.00  0.00     0.000 HD 
BRANCH   8  11
HETATM   11  C   UNL     2     -11.103  15.060  65.972  1.00  0.00    -0.329 C  
HETATM   12  O   UNL     2     -10.005  14.312  65.416  1.00  0.00    -0.438 OA 
HETATM   13  H   UNL     2      -9.439  14.866  64.892  1.00  0.00     0.000 HD 
BRANCH  11  14
HETATM   14  C   UNL     2     -10.567  16.304  66.702  1.00  0.00    -0.252 C  
HETATM   15  C   UNL     2     -10.348  17.495  65.727  1.00  0.00    -0.209 C  
HETATM   16  O   UNL     2      -9.355  16.002  67.417  1.00  0.00    -0.214 OA 
HETATM   17  H   UNL     2      -9.025  16.770  67.868  1.00  0.00     0.000 HD 
HETATM   18  O   UNL     2     -11.208  17.574  64.795  1.00  0.00    -0.878 OA 
HETATM   19  O   UNL     2      -9.296  18.159  65.943  1.00  0.00    -0.517 OA 
ENDBRANCH  11  14
ENDBRANCH   8  11
ENDBRANCH   2   8
TORSDOF 4
ENDMDL
MODEL       37
REMARK 921   NORMALIZED FREE ENERGY PREDICTED BY IDOCK:   -4.75 KCAL/MOL
REMARK 922        TOTAL FREE ENERGY PREDICTED BY IDOCK:   -6.87 KCAL/MOL
REMARK 923 INTER-LIGAND FREE ENERGY PREDICTED BY IDOCK:   -6.45 KCAL/MOL
REMARK 924 INTRA-LIGAND FREE ENERGY PREDICTED BY IDOCK:   -0.42 KCAL/MOL
REMARK 927      BINDING AFFINITY PREDICTED BY RF-SCORE:    0.00 PKD
ROOT
HETATM    1  K   UNL     1     -11.268  19.482  65.547  1.00  0.00    -0.392 K  
HETATM    2  C   UNL     2     -10.541  16.520  67.517  1.00  0.00    -0.313 C  
HETATM    3  H   UNL     2     -11.542  18.190  67.179  1.00  0.00     0.000 HD 
HETATM    4  O   UNL     2     -10.771  17.945  67.675  1.00  0.00    -0.399 OA 
ENDROOT
BRANCH   2   5
HETATM    5  C   UNL     2      -9.297  16.124  68.316  1.00  0.00    -0.205 C  
HETATM    6  O   UNL     2      -9.711  15.435  69.500  1.00  0.00    -0.248 OA 
HETATM    7  H   UNL     2      -8.939  15.189  69.996  1.00  0.00     0.000 HD 
ENDBRANCH   2   5
BRANCH   2   8
HETATM    8  C   UNL     2     -10.498  16.080  66.030  1.00  0.00    -0.345 C  
HETATM    9  O   UNL     2      -9.184  16.452  65.556  1.00  0.00    -0.419 OA 
HETATM   10  H   UNL     2      -9.158  16.183  64.646  1.00  0.00     0.000 HD 
BRANCH   8  11
HETATM   11  C   UNL     2     -10.812  14.576  65.773  1.00  0.00    -0.315 C  
HETATM   12  O   UNL     2      -9.759  13.941  65.023  1.00  0.00    -0.580 OA 
HETATM   13  H   UNL     2      -9.950  13.023  64.866  1.00  0.00     0.000 HD 
BRANCH  11  14
HETATM   14  C   UNL     2     -12.166  14.310  65.094  1.00  0.00    -0.421 C  
HETATM   15  C   UNL     2     -12.482  12.790  65.014  1.00  0.00    -0.506 C  
HETATM   16  O   UNL     2     -12.217  14.910  63.786  1.00  0.00    -0.941 OA 
HETATM   17  H   UNL     2     -13.053  14.746  63.367  1.00  0.00     0.000 HD 
HETATM   18  O   UNL     2     -12.083  12.119  66.016  1.00  0.00    -0.612 OA 
HETATM   19  O   UNL     2     -13.007  12.423  63.925  1.00  0.00    -0.754 OA 
ENDBRANCH  11  14
ENDBRANCH   8  11
ENDBRANCH   2   8
TORSDOF 4
ENDMDL
MODEL       38
REMARK 921   NORMALIZED FREE ENERGY PREDICTED BY IDOCK:   -4.75 KCAL/MOL
REMARK 922        TOTAL FREE ENERGY PREDICTED BY IDOCK:   -6.87 KCAL/MOL
REMARK 923 INTER-LIGAND FREE ENERGY PREDICTED BY IDOCK:   -6.07 KCAL/MOL
REMARK 924 INTRA-LIGAND FREE ENERGY PREDICTED BY IDOCK:   -0.80 KCAL/MOL
REMARK 927      BINDING AFFINITY PREDICTED BY RF-SCORE:    0.00 PKD
ROOT
HETATM    1  K   UNL     1      -9.233  12.243  67.014  1.00  0.00    -0.166 K  
HETATM    2  C   UNL     2     -12.185  12.299  64.902  1.00  0.00    -0.339 C  
HETATM    3  H   UNL     2     -10.922  11.381  66.114  1.00  0.00     0.000 HD 
HETATM    4  O   UNL     2     -11.015  11.484  65.175  1.00  0.00    -0.287 OA 
ENDROOT
BRANCH   2   5
HETATM    5  C   UNL     2     -12.335  12.464  63.388  1.00  0.00    -0.499 C  
HETATM    6  O   UNL     2     -12.866  11.251  62.842  1.00  0.00    -0.799 OA 
HETATM    7  H   UNL     2     -12.959  11.354  61.903  1.00  0.00     0.000 HD 
ENDBRANCH   2   5
BRANCH   2   8
HETATM    8  C   UNL     2     -12.178  13.639  65.682  1.00  0.00    -0.454 C  
HETATM    9  O   UNL     2     -12.171  13.271  67.080  1.00  0.00    -0.353 OA 
HETATM   10  H   UNL     2     -12.166  14.091  67.557  1.00  0.00     0.000 HD 
BRANCH   8  11
HETATM   11  C   UNL     2     -11.013  14.609  65.324  1.00  0.00    -0.367 C  
HETATM   12  O   UNL     2      -9.754  13.913  65.248  1.00  0.00    -0.556 OA 
HETATM   13  H   UNL     2      -9.043  14.505  65.030  1.00  0.00     0.000 HD 
BRANCH  11  14
HETATM   14  C   UNL     2     -10.879  15.824  66.258  1.00  0.00    -0.232 C  
HETATM   15  C   UNL     2     -10.608  17.134  65.465  1.00  0.00    -0.150 C  
HETATM   16  O   UNL     2      -9.855  15.607  67.246  1.00  0.00    -0.223 OA 
HETATM   17  H   UNL     2      -9.773  16.357  67.823  1.00  0.00     0.000 HD 
HETATM   18  O   UNL     2     -11.206  17.201  64.346  1.00  0.00    -1.143 OA 
HETATM   19  O   UNL     2      -9.761  17.902  66.001  1.00  0.00    -0.505 OA 
ENDBRANCH  11  14
ENDBRANCH   8  11
ENDBRANCH   2   8
TORSDOF 4
ENDMDL
MODEL       39
REMARK 921   NORMALIZED FREE ENERGY PREDICTED BY IDOCK:   -4.74 KCAL/MOL
REMARK 922        TOTAL FREE ENERGY PREDICTED BY IDOCK:   -6.86 KCAL/MOL
REMARK 923 INTER-LIGAND FREE ENERGY PREDICTED BY IDOCK:   -6.22 KCAL/MOL
REMARK 924 INTRA-LIGAND FREE ENERGY PREDICTED BY IDOCK:   -0.64 KCAL/MOL
REMARK 927      BINDING AFFINITY PREDICTED BY RF-SCORE:    0.00 PKD
ROOT
HETATM    1  K   UNL     1     -12.475  11.329  62.569  1.00  0.00    -0.845 K  
HETATM    2  C   UNL     2     -11.512  13.991  64.843  1.00  0.00    -0.358 C  
HETATM    3  H   UNL     2     -12.844  12.755  64.066  1.00  0.00     0.000 HD 
HETATM    4  O   UNL     2     -12.560  13.645  63.899  1.00  0.00    -0.687 OA 
ENDROOT
BRANCH   2   5
HETATM    5  C   UNL     2     -11.054  15.426  64.574  1.00  0.00    -0.256 C  
HETATM    6  O   UNL     2     -11.980  16.044  63.674  1.00  0.00    -1.344 OA 
HETATM    7  H   UNL     2     -11.695  16.935  63.508  1.00  0.00     0.000 HD 
ENDBRANCH   2   5
BRANCH   2   8
HETATM    8  C   UNL     2     -10.357  12.956  64.863  1.00  0.00    -0.308 C  
HETATM    9  O   UNL     2      -9.374  13.493  65.776  1.00  0.00    -0.491 OA 
HETATM   10  H   UNL     2      -8.667  12.860  65.788  1.00  0.00     0.000 HD 
BRANCH   8  11
HETATM   11  C   UNL     2     -10.775  11.503  65.238  1.00  0.00    -0.279 C  
HETATM   12  O   UNL     2     -10.687  11.281  66.659  1.00  0.00    -0.252 OA 
HETATM   13  H   UNL     2     -10.942  10.394  66.887  1.00  0.00     0.000 HD 
BRANCH  11  14
HETATM   14  C   UNL     2     -10.003  10.401  64.491  1.00  0.00    -0.331 C  
HETATM   15  C   UNL     2      -8.490  10.414  64.849  1.00  0.00    -0.175 C  
HETATM   16  O   UNL     2     -10.191  10.510  63.068  1.00  0.00    -0.589 OA 
HETATM   17  H   UNL     2      -9.715   9.829  62.608  1.00  0.00     0.000 HD 
HETATM   18  O   UNL     2      -8.240  10.717  66.057  1.00  0.00    -0.158 OA 
HETATM   19  O   UNL     2      -7.721  10.213  63.867  1.00  0.00    -0.150 OA 
ENDBRANCH  11  14
ENDBRANCH   8  11
ENDBRANCH   2   8
TORSDOF 4
ENDMDL
MODEL       40
REMARK 921   NORMALIZED FREE ENERGY PREDICTED BY IDOCK:   -4.73 KCAL/MOL
REMARK 922        TOTAL FREE ENERGY PREDICTED BY IDOCK:   -6.85 KCAL/MOL
REMARK 923 INTER-LIGAND FREE ENERGY PREDICTED BY IDOCK:   -6.13 KCAL/MOL
REMARK 924 INTRA-LIGAND FREE ENERGY PREDICTED BY IDOCK:   -0.72 KCAL/MOL
REMARK 927      BINDING AFFINITY PREDICTED BY RF-SCORE:    0.00 PKD
ROOT
HETATM    1  K   UNL     1     -12.331  14.789  62.880  1.00  0.00    -0.870 K  
HETATM    2  C   UNL     2     -10.770  16.291  65.795  1.00  0.00    -0.255 C  
HETATM    3  H   UNL     2     -11.947  16.370  64.209  1.00  0.00     0.000 HD 
HETATM    4  O   UNL     2     -11.038  16.570  64.395  1.00  0.00    -0.894 OA 
ENDROOT
BRANCH   2   5
HETATM    5  C   UNL     2      -9.305  16.615  66.096  1.00  0.00    -0.284 C  
HETATM    6  O   UNL     2      -9.108  18.027  65.958  1.00  0.00    -0.509 OA 
HETATM    7  H   UNL     2      -8.199  18.228  66.145  1.00  0.00     0.000 HD 
ENDBRANCH   2   5
BRANCH   2   8
HETATM    8  C   UNL     2     -11.196  14.860  66.213  1.00  0.00    -0.331 C  
HETATM    9  O   UNL     2     -12.022  14.372  65.132  1.00  0.00    -0.368 OA 
HETATM   10  H   UNL     2     -12.282  13.496  65.387  1.00  0.00     0.000 HD 
BRANCH   8  11
HETATM   11  C   UNL     2     -10.023  13.888  66.541  1.00  0.00    -0.285 C  
HETATM   12  O   UNL     2      -9.760  12.993  65.443  1.00  0.00    -0.469 OA 
HETATM   13  H   UNL     2      -9.045  12.401  65.644  1.00  0.00     0.000 HD 
BRANCH  11  14
HETATM   14  C   UNL     2     -10.203  13.080  67.838  1.00  0.00    -0.234 C  
HETATM   15  C   UNL     2     -11.560  12.321  67.860  1.00  0.00    -0.354 C  
HETATM   16  O   UNL     2     -10.073  13.925  68.996  1.00  0.00    -0.402 OA 
HETATM   17  H   UNL     2     -10.184  13.425  69.797  1.00  0.00     0.000 HD 
HETATM   18  O   UNL     2     -11.931  11.879  66.729  1.00  0.00    -0.613 OA 
HETATM   19  O   UNL     2     -12.145  12.333  68.980  1.00  0.00    -0.265 OA 
ENDBRANCH  11  14
ENDBRANCH   8  11
ENDBRANCH   2   8
TORSDOF 4
ENDMDL
MODEL       41
REMARK 921   NORMALIZED FREE ENERGY PREDICTED BY IDOCK:   -4.73 KCAL/MOL
REMARK 922        TOTAL FREE ENERGY PREDICTED BY IDOCK:   -6.85 KCAL/MOL
REMARK 923 INTER-LIGAND FREE ENERGY PREDICTED BY IDOCK:   -6.44 KCAL/MOL
REMARK 924 INTRA-LIGAND FREE ENERGY PREDICTED BY IDOCK:   -0.41 KCAL/MOL
REMARK 927      BINDING AFFINITY PREDICTED BY RF-SCORE:    0.00 PKD
ROOT
HETATM    1  K   UNL     1     -11.636  11.045  64.316  1.00  0.00    -0.303 K  
HETATM    2  C   UNL     2     -10.914  12.079  67.722  1.00  0.00    -0.232 C  
HETATM    3  H   UNL     2     -10.962  10.728  66.280  1.00  0.00     0.000 HD 
HETATM    4  O   UNL     2     -11.538  10.993  66.986  1.00  0.00    -0.427 OA 
ENDROOT
BRANCH   2   5
HETATM    5  C   UNL     2     -11.842  12.507  68.861  1.00  0.00    -0.301 C  
HETATM    6  O   UNL     2     -11.528  11.735  70.025  1.00  0.00    -0.452 OA 
HETATM    7  H   UNL     2     -12.104  12.000  70.732  1.00  0.00     0.000 HD 
ENDBRANCH   2   5
BRANCH   2   8
HETATM    8  C   UNL     2     -10.467  13.246  66.804  1.00  0.00    -0.270 C  
HETATM    9  O   UNL     2      -9.485  12.678  65.908  1.00  0.00    -0.401 OA 
HETATM   10  H   UNL     2      -9.211  13.392  65.346  1.00  0.00     0.000 HD 
BRANCH   8  11
HETATM   11  C   UNL     2     -11.616  13.965  66.037  1.00  0.00    -0.349 C  
HETATM   12  O   UNL     2     -12.673  13.048  65.695  1.00  0.00    -0.506 OA 
HETATM   13  H   UNL     2     -13.374  13.487  65.226  1.00  0.00     0.000 HD 
BRANCH  11  14
HETATM   14  C   UNL     2     -11.168  14.733  64.781  1.00  0.00    -0.385 C  
HETATM   15  C   UNL     2     -10.783  16.203  65.111  1.00  0.00    -0.371 C  
HETATM   16  O   UNL     2     -12.179  14.688  63.758  1.00  0.00    -0.956 OA 
HETATM   17  H   UNL     2     -11.902  15.162  62.983  1.00  0.00     0.000 HD 
HETATM   18  O   UNL     2     -10.217  16.356  66.238  1.00  0.00    -0.301 OA 
HETATM   19  O   UNL     2     -11.172  17.048  64.256  1.00  0.00    -1.186 OA 
ENDBRANCH  11  14
ENDBRANCH   8  11
ENDBRANCH   2   8
TORSDOF 4
ENDMDL
MODEL       42
REMARK 921   NORMALIZED FREE ENERGY PREDICTED BY IDOCK:   -4.72 KCAL/MOL
REMARK 922        TOTAL FREE ENERGY PREDICTED BY IDOCK:   -6.84 KCAL/MOL
REMARK 923 INTER-LIGAND FREE ENERGY PREDICTED BY IDOCK:   -6.03 KCAL/MOL
REMARK 924 INTRA-LIGAND FREE ENERGY PREDICTED BY IDOCK:   -0.81 KCAL/MOL
REMARK 927      BINDING AFFINITY PREDICTED BY RF-SCORE:    0.00 PKD
ROOT
HETATM    1  K   UNL     1      -6.493  12.142  66.210  1.00  0.00    -0.307 K  
HETATM    2  C   UNL     2      -9.676  11.188  64.745  1.00  0.00    -0.257 C  
HETATM    3  H   UNL     2      -8.076  10.812  65.843  1.00  0.00     0.000 HD 
HETATM    4  O   UNL     2      -8.330  10.677  64.939  1.00  0.00    -0.160 OA 
ENDROOT
BRANCH   2   5
HETATM    5  C   UNL     2     -10.086  10.970  63.287  1.00  0.00    -0.348 C  
HETATM    6  O   UNL     2     -11.508  11.102  63.184  1.00  0.00    -0.795 OA 
HETATM    7  H   UNL     2     -11.762  10.966  62.279  1.00  0.00     0.000 HD 
ENDBRANCH   2   5
BRANCH   2   8
HETATM    8  C   UNL     2      -9.836  12.652  65.230  1.00  0.00    -0.119 C  
HETATM    9  O   UNL     2     -10.095  13.427  64.038  1.00  0.00    -0.764 OA 
HETATM   10  H   UNL     2     -10.193  14.323  64.335  1.00  0.00     0.000 HD 
BRANCH   8  11
HETATM   11  C   UNL     2     -10.925  12.873  66.322  1.00  0.00    -0.281 C  
HETATM   12  O   UNL     2     -11.764  11.711  66.470  1.00  0.00    -0.498 OA 
HETATM   13  H   UNL     2     -12.428  11.846  67.137  1.00  0.00     0.000 HD 
BRANCH  11  14
HETATM   14  C   UNL     2     -11.799  14.122  66.114  1.00  0.00    -0.407 C  
HETATM   15  C   UNL     2     -12.675  14.005  64.835  1.00  0.00    -0.273 C  
HETATM   16  O   UNL     2     -10.995  15.315  66.073  1.00  0.00    -0.332 OA 
HETATM   17  H   UNL     2     -11.535  16.086  65.945  1.00  0.00     0.000 HD 
HETATM   18  O   UNL     2     -13.101  12.832  64.597  1.00  0.00    -0.760 OA 
HETATM   19  O   UNL     2     -12.762  15.072  64.164  1.00  0.00    -0.729 OA 
ENDBRANCH  11  14
ENDBRANCH   8  11
ENDBRANCH   2   8
TORSDOF 4
ENDMDL
MODEL       43
REMARK 921   NORMALIZED FREE ENERGY PREDICTED BY IDOCK:   -4.71 KCAL/MOL
REMARK 922        TOTAL FREE ENERGY PREDICTED BY IDOCK:   -6.83 KCAL/MOL
REMARK 923 INTER-LIGAND FREE ENERGY PREDICTED BY IDOCK:   -6.22 KCAL/MOL
REMARK 924 INTRA-LIGAND FREE ENERGY PREDICTED BY IDOCK:   -0.61 KCAL/MOL
REMARK 927      BINDING AFFINITY PREDICTED BY RF-SCORE:    0.00 PKD
ROOT
HETATM    1  K   UNL     1      -8.513  13.578  66.033  1.00  0.00    -0.401 K  
HETATM    2  C   UNL     2     -10.063  10.300  66.225  1.00  0.00    -0.236 C  
HETATM    3  H   UNL     2     -10.017  12.236  66.620  1.00  0.00     0.000 HD 
HETATM    4  O   UNL     2      -9.744  11.442  67.063  1.00  0.00    -0.187 OA 
ENDROOT
BRANCH   2   5
HETATM    5  C   UNL     2      -9.622   9.020  66.939  1.00  0.00    -0.185 C  
HETATM    6  O   UNL     2     -10.467   7.944  66.517  1.00  0.00    -0.475 OA 
HETATM    7  H   UNL     2     -10.194   7.150  66.960  1.00  0.00     0.000 HD 
ENDBRANCH   2   5
BRANCH   2   8
HETATM    8  C   UNL     2      -9.506  10.439  64.784  1.00  0.00    -0.273 C  
HETATM    9  O   UNL     2      -9.210   9.091  64.354  1.00  0.00    -0.424 OA 
HETATM   10  H   UNL     2      -8.868   9.176  63.472  1.00  0.00     0.000 HD 
BRANCH   8  11
HETATM   11  C   UNL     2     -10.436  11.185  63.782  1.00  0.00    -0.381 C  
HETATM   12  O   UNL     2      -9.780  11.400  62.517  1.00  0.00    -0.568 OA 
HETATM   13  H   UNL     2     -10.348  11.855  61.906  1.00  0.00     0.000 HD 
BRANCH  11  14
HETATM   14  C   UNL     2     -11.006  12.516  64.304  1.00  0.00    -0.360 C  
HETATM   15  C   UNL     2     -12.368  12.860  63.638  1.00  0.00    -0.434 C  
HETATM   16  O   UNL     2     -10.064  13.589  64.122  1.00  0.00    -0.760 OA 
HETATM   17  H   UNL     2     -10.416  14.410  64.444  1.00  0.00     0.000 HD 
HETATM   18  O   UNL     2     -13.105  11.853  63.403  1.00  0.00    -0.710 OA 
HETATM   19  O   UNL     2     -12.509  14.079  63.340  1.00  0.00    -0.826 OA 
ENDBRANCH  11  14
ENDBRANCH   8  11
ENDBRANCH   2   8
TORSDOF 4
ENDMDL
MODEL       44
REMARK 921   NORMALIZED FREE ENERGY PREDICTED BY IDOCK:   -4.69 KCAL/MOL
REMARK 922        TOTAL FREE ENERGY PREDICTED BY IDOCK:   -6.80 KCAL/MOL
REMARK 923 INTER-LIGAND FREE ENERGY PREDICTED BY IDOCK:   -6.50 KCAL/MOL
REMARK 924 INTRA-LIGAND FREE ENERGY PREDICTED BY IDOCK:   -0.30 KCAL/MOL
REMARK 927      BINDING AFFINITY PREDICTED BY RF-SCORE:    0.00 PKD
ROOT
HETATM    1  K   UNL     1      -9.220  13.285  64.751  1.00  0.00    -0.467 K  
HETATM    2  C   UNL     2     -10.064  16.697  65.660  1.00  0.00    -0.217 C  
HETATM    3  H   UNL     2      -8.845  15.346  64.890  1.00  0.00     0.000 HD 
HETATM    4  O   UNL     2      -8.964  15.754  65.739  1.00  0.00    -0.282 OA 
ENDROOT
BRANCH   2   5
HETATM    5  C   UNL     2     -10.256  17.355  67.029  1.00  0.00    -0.323 C  
HETATM    6  O   UNL     2     -10.769  18.678  66.836  1.00  0.00    -0.395 OA 
HETATM    7  H   UNL     2     -10.887  19.086  67.685  1.00  0.00     0.000 HD 
ENDBRANCH   2   5
BRANCH   2   8
HETATM    8  C   UNL     2     -11.356  16.064  65.082  1.00  0.00    -0.074 C  
HETATM    9  O   UNL     2     -11.446  16.546  63.722  1.00  0.00    -1.615 OA 
HETATM   10  H   UNL     2     -12.237  16.158  63.368  1.00  0.00     0.000 HD 
BRANCH   8  11
HETATM   11  C   UNL     2     -11.427  14.510  65.161  1.00  0.00    -0.368 C  
HETATM   12  O   UNL     2     -12.570  13.999  64.447  1.00  0.00    -0.651 OA 
HETATM   13  H   UNL     2     -12.613  13.051  64.496  1.00  0.00     0.000 HD 
BRANCH  11  14
HETATM   14  C   UNL     2     -11.408  13.938  66.589  1.00  0.00    -0.331 C  
HETATM   15  C   UNL     2     -11.389  12.384  66.587  1.00  0.00    -0.339 C  
HETATM   16  O   UNL     2     -12.519  14.433  67.359  1.00  0.00    -0.603 OA 
HETATM   17  H   UNL     2     -12.507  14.081  68.241  1.00  0.00     0.000 HD 
HETATM   18  O   UNL     2     -10.714  11.869  65.642  1.00  0.00    -0.263 OA 
HETATM   19  O   UNL     2     -12.122  11.853  67.468  1.00  0.00    -0.573 OA 
ENDBRANCH  11  14
ENDBRANCH   8  11
ENDBRANCH   2   8
TORSDOF 4
ENDMDL
MODEL       45
REMARK 921   NORMALIZED FREE ENERGY PREDICTED BY IDOCK:   -4.69 KCAL/MOL
REMARK 922        TOTAL FREE ENERGY PREDICTED BY IDOCK:   -6.79 KCAL/MOL
REMARK 923 INTER-LIGAND FREE ENERGY PREDICTED BY IDOCK:   -5.97 KCAL/MOL
REMARK 924 INTRA-LIGAND FREE ENERGY PREDICTED BY IDOCK:   -0.82 KCAL/MOL
REMARK 927      BINDING AFFINITY PREDICTED BY RF-SCORE:    0.00 PKD
ROOT
HETATM    1  K   UNL     1      -7.970  13.370  66.196  1.00  0.00    -0.358 K  
HETATM    2  C   UNL     2     -11.275  12.758  64.823  1.00  0.00    -0.305 C  
HETATM    3  H   UNL     2      -9.857  12.451  66.165  1.00  0.00     0.000 HD 
HETATM    4  O   UNL     2     -10.129  12.041  65.353  1.00  0.00    -0.247 OA 
ENDROOT
BRANCH   2   5
HETATM    5  C   UNL     2     -11.713  12.099  63.513  1.00  0.00    -0.490 C  
HETATM    6  O   UNL     2     -13.124  12.285  63.353  1.00  0.00    -0.727 OA 
HETATM    7  H   UNL     2     -13.395  11.875  62.541  1.00  0.00     0.000 HD 
ENDBRANCH   2   5
BRANCH   2   8
HETATM    8  C   UNL     2     -11.026  14.284  64.705  1.00  0.00    -0.367 C  
HETATM    9  O   UNL     2     -12.145  14.800  63.949  1.00  0.00    -0.857 OA 
HETATM   10  H   UNL     2     -11.992  15.734  63.877  1.00  0.00     0.000 HD 
BRANCH   8  11
HETATM   11  C   UNL     2     -10.835  15.032  66.058  1.00  0.00    -0.334 C  
HETATM   12  O   UNL     2     -12.047  15.023  66.838  1.00  0.00    -0.237 OA 
HETATM   13  H   UNL     2     -11.930  15.480  67.663  1.00  0.00     0.000 HD 
BRANCH  11  14
HETATM   14  C   UNL     2     -10.312  16.473  65.927  1.00  0.00    -0.350 C  
HETATM   15  C   UNL     2     -10.483  17.270  67.251  1.00  0.00    -0.319 C  
HETATM   16  O   UNL     2     -10.951  17.158  64.834  1.00  0.00    -0.743 OA 
HETATM   17  H   UNL     2     -10.628  18.048  64.753  1.00  0.00     0.000 HD 
HETATM   18  O   UNL     2     -10.311  16.580  68.303  1.00  0.00    -0.266 OA 
HETATM   19  O   UNL     2     -10.858  18.466  67.094  1.00  0.00    -0.373 OA 
ENDBRANCH  11  14
ENDBRANCH   8  11
ENDBRANCH   2   8
TORSDOF 4
ENDMDL
MODEL       46
REMARK 921   NORMALIZED FREE ENERGY PREDICTED BY IDOCK:   -4.68 KCAL/MOL
REMARK 922        TOTAL FREE ENERGY PREDICTED BY IDOCK:   -6.78 KCAL/MOL
REMARK 923 INTER-LIGAND FREE ENERGY PREDICTED BY IDOCK:   -5.98 KCAL/MOL
REMARK 924 INTRA-LIGAND FREE ENERGY PREDICTED BY IDOCK:   -0.81 KCAL/MOL
REMARK 927      BINDING AFFINITY PREDICTED BY RF-SCORE:    0.00 PKD
ROOT
HETATM    1  K   UNL     1     -11.129  15.701  69.474  1.00  0.00    -0.205 K  
HETATM    2  C   UNL     2      -9.737  18.597  67.782  1.00  0.00    -0.314 C  
HETATM    3  H   UNL     2      -9.614  17.094  69.061  1.00  0.00     0.000 HD 
HETATM    4  O   UNL     2      -9.843  18.014  69.108  1.00  0.00    -0.269 OA 
ENDROOT
BRANCH   2   5
HETATM    5  C   UNL     2     -10.107  20.080  67.858  1.00  0.00    -0.420 C  
HETATM    6  O   UNL     2      -9.322  20.799  66.901  1.00  0.00    -0.627 OA 
HETATM    7  H   UNL     2      -9.551  21.719  66.948  1.00  0.00     0.000 HD 
ENDBRANCH   2   5
BRANCH   2   8
HETATM    8  C   UNL     2     -10.534  17.804  66.714  1.00  0.00    -0.300 C  
HETATM    9  O   UNL     2     -10.630  18.686  65.572  1.00  0.00    -0.608 OA 
HETATM   10  H   UNL     2     -11.118  18.201  64.918  1.00  0.00     0.000 HD 
BRANCH   8  11
HETATM   11  C   UNL     2      -9.938  16.416  66.335  1.00  0.00    -0.303 C  
HETATM   12  O   UNL     2      -8.669  16.554  65.666  1.00  0.00    -0.401 OA 
HETATM   13  H   UNL     2      -8.306  15.707  65.435  1.00  0.00     0.000 HD 
BRANCH  11  14
HETATM   14  C   UNL     2     -10.871  15.522  65.500  1.00  0.00    -0.361 C  
HETATM   15  C   UNL     2     -10.318  14.075  65.368  1.00  0.00    -0.359 C  
HETATM   16  O   UNL     2     -11.112  16.096  64.202  1.00  0.00    -1.113 OA 
HETATM   17  H   UNL     2     -11.689  15.544  63.687  1.00  0.00     0.000 HD 
HETATM   18  O   UNL     2      -9.717  13.648  66.403  1.00  0.00    -0.282 OA 
HETATM   19  O   UNL     2     -10.462  13.565  64.222  1.00  0.00    -0.414 OA 
ENDBRANCH  11  14
ENDBRANCH   8  11
ENDBRANCH   2   8
TORSDOF 4
ENDMDL
MODEL       47
REMARK 921   NORMALIZED FREE ENERGY PREDICTED BY IDOCK:   -4.68 KCAL/MOL
REMARK 922        TOTAL FREE ENERGY PREDICTED BY IDOCK:   -6.78 KCAL/MOL
REMARK 923 INTER-LIGAND FREE ENERGY PREDICTED BY IDOCK:   -6.31 KCAL/MOL
REMARK 924 INTRA-LIGAND FREE ENERGY PREDICTED BY IDOCK:   -0.47 KCAL/MOL
REMARK 927      BINDING AFFINITY PREDICTED BY RF-SCORE:    0.00 PKD
ROOT
HETATM    1  K   UNL     1     -13.305  16.004  69.582  1.00  0.00    -0.613 K  
HETATM    2  C   UNL     2     -10.594  15.910  67.169  1.00  0.00    -0.316 C  
HETATM    3  H   UNL     2     -11.327  16.326  68.956  1.00  0.00     0.000 HD 
HETATM    4  O   UNL     2     -11.199  16.800  68.143  1.00  0.00    -0.325 OA 
ENDROOT
BRANCH   2   5
HETATM    5  C   UNL     2     -10.387  16.673  65.858  1.00  0.00    -0.340 C  
HETATM    6  O   UNL     2      -9.028  17.120  65.795  1.00  0.00    -0.523 OA 
HETATM    7  H   UNL     2      -8.900  17.593  64.982  1.00  0.00     0.000 HD 
ENDBRANCH   2   5
BRANCH   2   8
HETATM    8  C   UNL     2     -11.375  14.580  67.004  1.00  0.00    -0.349 C  
HETATM    9  O   UNL     2     -12.392  14.601  68.031  1.00  0.00    -0.604 OA 
HETATM   10  H   UNL     2     -12.870  13.787  67.930  1.00  0.00     0.000 HD 
BRANCH   8  11
HETATM   11  C   UNL     2     -11.974  14.333  65.588  1.00  0.00    -0.386 C  
HETATM   12  O   UNL     2     -13.393  14.089  65.653  1.00  0.00    -0.690 OA 
HETATM   13  H   UNL     2     -13.758  13.938  64.789  1.00  0.00     0.000 HD 
BRANCH  11  14
HETATM   14  C   UNL     2     -11.290  13.211  64.788  1.00  0.00    -0.324 C  
HETATM   15  C   UNL     2     -10.955  11.986  65.686  1.00  0.00    -0.297 C  
HETATM   16  O   UNL     2     -10.108  13.695  64.124  1.00  0.00    -0.757 OA 
HETATM   17  H   UNL     2      -9.686  13.001  63.630  1.00  0.00     0.000 HD 
HETATM   18  O   UNL     2     -11.816  11.748  66.589  1.00  0.00    -0.569 OA 
HETATM   19  O   UNL     2      -9.831  11.460  65.450  1.00  0.00    -0.218 OA 
ENDBRANCH  11  14
ENDBRANCH   8  11
ENDBRANCH   2   8
TORSDOF 4
ENDMDL
MODEL       48
REMARK 921   NORMALIZED FREE ENERGY PREDICTED BY IDOCK:   -4.64 KCAL/MOL
REMARK 922        TOTAL FREE ENERGY PREDICTED BY IDOCK:   -6.74 KCAL/MOL
REMARK 923 INTER-LIGAND FREE ENERGY PREDICTED BY IDOCK:   -6.30 KCAL/MOL
REMARK 924 INTRA-LIGAND FREE ENERGY PREDICTED BY IDOCK:   -0.44 KCAL/MOL
REMARK 927      BINDING AFFINITY PREDICTED BY RF-SCORE:    0.00 PKD
ROOT
HETATM    1  K   UNL     1     -12.108  16.277  67.988  1.00  0.00    -0.265 K  
HETATM    2  C   UNL     2     -11.864  14.497  64.832  1.00  0.00    -0.416 C  
HETATM    3  H   UNL     2     -12.894  15.200  66.365  1.00  0.00     0.000 HD 
HETATM    4  O   UNL     2     -12.474  14.378  66.144  1.00  0.00    -0.392 OA 
ENDROOT
BRANCH   2   5
HETATM    5  C   UNL     2     -11.187  13.172  64.474  1.00  0.00    -0.354 C  
HETATM    6  O   UNL     2      -9.839  13.438  64.073  1.00  0.00    -0.724 OA 
HETATM    7  H   UNL     2      -9.419  12.616  63.851  1.00  0.00     0.000 HD 
ENDBRANCH   2   5
BRANCH   2   8
HETATM    8  C   UNL     2     -10.932  15.731  64.714  1.00  0.00    -0.393 C  
HETATM    9  O   UNL     2     -11.540  16.580  63.715  1.00  0.00    -1.617 OA 
HETATM   10  H   UNL     2     -10.969  17.335  63.643  1.00  0.00     0.000 HD 
BRANCH   8  11
HETATM   11  C   UNL     2     -10.665  16.491  66.048  1.00  0.00    -0.177 C  
HETATM   12  O   UNL     2     -10.289  17.860  65.805  1.00  0.00    -0.577 OA 
HETATM   13  H   UNL     2     -10.126  18.323  66.619  1.00  0.00     0.000 HD 
BRANCH  11  14
HETATM   14  C   UNL     2      -9.631  15.823  66.971  1.00  0.00    -0.226 C  
HETATM   15  C   UNL     2      -9.166  16.782  68.103  1.00  0.00    -0.224 C  
HETATM   16  O   UNL     2      -8.502  15.339  66.219  1.00  0.00    -0.410 OA 
HETATM   17  H   UNL     2      -7.864  14.927  66.789  1.00  0.00     0.000 HD 
HETATM   18  O   UNL     2     -10.077  17.547  68.548  1.00  0.00    -0.319 OA 
HETATM   19  O   UNL     2      -7.930  16.729  68.357  1.00  0.00    -0.203 OA 
ENDBRANCH  11  14
ENDBRANCH   8  11
ENDBRANCH   2   8
TORSDOF 4
ENDMDL
MODEL       49
REMARK 921   NORMALIZED FREE ENERGY PREDICTED BY IDOCK:   -4.62 KCAL/MOL
REMARK 922        TOTAL FREE ENERGY PREDICTED BY IDOCK:   -6.71 KCAL/MOL
REMARK 923 INTER-LIGAND FREE ENERGY PREDICTED BY IDOCK:   -6.31 KCAL/MOL
REMARK 924 INTRA-LIGAND FREE ENERGY PREDICTED BY IDOCK:   -0.40 KCAL/MOL
REMARK 927      BINDING AFFINITY PREDICTED BY RF-SCORE:    0.00 PKD
ROOT
HETATM    1  K   UNL     1     -12.293  11.657  62.579  1.00  0.00    -0.658 K  
HETATM    2  C   UNL     2     -11.607  14.339  64.929  1.00  0.00    -0.384 C  
HETATM    3  H   UNL     2     -12.822  13.040  64.068  1.00  0.00     0.000 HD 
HETATM    4  O   UNL     2     -12.581  13.947  63.926  1.00  0.00    -0.697 OA 
ENDROOT
BRANCH   2   5
HETATM    5  C   UNL     2     -11.218  15.801  64.700  1.00  0.00    -0.363 C  
HETATM    6  O   UNL     2     -12.030  16.335  63.648  1.00  0.00    -1.356 OA 
HETATM    7  H   UNL     2     -11.788  17.242  63.506  1.00  0.00     0.000 HD 
ENDBRANCH   2   5
BRANCH   2   8
HETATM    8  C   UNL     2     -10.398  13.371  65.002  1.00  0.00    -0.347 C  
HETATM    9  O   UNL     2      -9.351  14.112  65.669  1.00  0.00    -0.517 OA 
HETATM   10  H   UNL     2      -8.611  13.519  65.714  1.00  0.00     0.000 HD 
BRANCH   8  11
HETATM   11  C   UNL     2     -10.683  12.004  65.692  1.00  0.00    -0.272 C  
HETATM   12  O   UNL     2     -11.972  11.999  66.335  1.00  0.00    -0.611 OA 
HETATM   13  H   UNL     2     -12.146  11.165  66.756  1.00  0.00     0.000 HD 
BRANCH  11  14
HETATM   14  C   UNL     2      -9.603  11.552  66.691  1.00  0.00    -0.197 C  
HETATM   15  C   UNL     2      -9.499  12.519  67.904  1.00  0.00    -0.196 C  
HETATM   16  O   UNL     2      -8.326  11.410  66.042  1.00  0.00    -0.314 OA 
HETATM   17  H   UNL     2      -7.659  11.130  66.659  1.00  0.00     0.000 HD 
HETATM   18  O   UNL     2     -10.610  13.007  68.281  1.00  0.00    -0.233 OA 
HETATM   19  O   UNL     2      -8.317  12.755  68.283  1.00  0.00    -0.162 OA 
ENDBRANCH  11  14
ENDBRANCH   8  11
ENDBRANCH   2   8
TORSDOF 4
ENDMDL
MODEL       50
REMARK 921   NORMALIZED FREE ENERGY PREDICTED BY IDOCK:   -4.62 KCAL/MOL
REMARK 922        TOTAL FREE ENERGY PREDICTED BY IDOCK:   -6.71 KCAL/MOL
REMARK 923 INTER-LIGAND FREE ENERGY PREDICTED BY IDOCK:   -5.74 KCAL/MOL
REMARK 924 INTRA-LIGAND FREE ENERGY PREDICTED BY IDOCK:   -0.97 KCAL/MOL
REMARK 927      BINDING AFFINITY PREDICTED BY RF-SCORE:    0.00 PKD
ROOT
HETATM    1  K   UNL     1     -12.357  13.982  62.663  1.00  0.00    -0.889 K  
HETATM    2  C   UNL     2     -10.195  12.273  65.028  1.00  0.00    -0.285 C  
HETATM    3  H   UNL     2     -10.590  13.748  63.772  1.00  0.00     0.000 HD 
HETATM    4  O   UNL     2     -10.152  12.907  63.722  1.00  0.00    -0.368 OA 
ENDROOT
BRANCH   2   5
HETATM    5  C   UNL     2      -9.490  10.917  64.947  1.00  0.00    -0.235 C  
HETATM    6  O   UNL     2     -10.260  10.047  64.110  1.00  0.00    -0.446 OA 
HETATM    7  H   UNL     2      -9.823   9.206  64.060  1.00  0.00     0.000 HD 
ENDBRANCH   2   5
BRANCH   2   8
HETATM    8  C   UNL     2     -11.630  12.201  65.613  1.00  0.00    -0.351 C  
HETATM    9  O   UNL     2     -11.553  11.262  66.708  1.00  0.00    -0.433 OA 
HETATM   10  H   UNL     2     -12.431  11.218  67.066  1.00  0.00     0.000 HD 
BRANCH   8  11
HETATM   11  C   UNL     2     -12.237  13.567  66.051  1.00  0.00    -0.445 C  
HETATM   12  O   UNL     2     -12.821  14.265  64.934  1.00  0.00    -0.680 OA 
HETATM   13  H   UNL     2     -13.192  15.098  65.202  1.00  0.00     0.000 HD 
BRANCH  11  14
HETATM   14  C   UNL     2     -11.259  14.497  66.790  1.00  0.00    -0.334 C  
HETATM   15  C   UNL     2     -11.690  14.732  68.265  1.00  0.00    -0.311 C  
HETATM   16  O   UNL     2     -11.111  15.750  66.096  1.00  0.00    -0.226 OA 
HETATM   17  H   UNL     2     -10.507  16.323  66.552  1.00  0.00     0.000 HD 
HETATM   18  O   UNL     2     -12.217  13.721  68.824  1.00  0.00    -0.350 OA 
HETATM   19  O   UNL     2     -11.541  15.920  68.668  1.00  0.00    -0.382 OA 
ENDBRANCH  11  14
ENDBRANCH   8  11
ENDBRANCH   2   8
TORSDOF 4
ENDMDL
MODEL       51
REMARK 921   NORMALIZED FREE ENERGY PREDICTED BY IDOCK:   -4.62 KCAL/MOL
REMARK 922        TOTAL FREE ENERGY PREDICTED BY IDOCK:   -6.71 KCAL/MOL
REMARK 923 INTER-LIGAND FREE ENERGY PREDICTED BY IDOCK:   -6.04 KCAL/MOL
REMARK 924 INTRA-LIGAND FREE ENERGY PREDICTED BY IDOCK:   -0.66 KCAL/MOL
REMARK 927      BINDING AFFINITY PREDICTED BY RF-SCORE:    0.00 PKD
ROOT
HETATM    1  K   UNL     1     -11.203  12.129  70.472  1.00  0.00    -0.464 K  
HETATM    2  C   UNL     2     -11.676  14.861  68.127  1.00  0.00    -0.318 C  
HETATM    3  H   UNL     2     -12.145  13.085  68.857  1.00  0.00     0.000 HD 
HETATM    4  O   UNL     2     -11.590  13.412  68.160  1.00  0.00    -0.298 OA 
ENDROOT
BRANCH   2   5
HETATM    5  C   UNL     2     -10.780  15.387  67.003  1.00  0.00    -0.321 C  
HETATM    6  O   UNL     2     -11.252  14.865  65.756  1.00  0.00    -0.335 OA 
HETATM    7  H   UNL     2     -10.696  15.191  65.059  1.00  0.00     0.000 HD 
ENDBRANCH   2   5
BRANCH   2   8
HETATM    8  C   UNL     2     -11.398  15.510  69.507  1.00  0.00    -0.313 C  
HETATM    9  O   UNL     2     -11.508  16.935  69.293  1.00  0.00    -0.158 OA 
HETATM   10  H   UNL     2     -11.338  17.332  70.138  1.00  0.00     0.000 HD 
BRANCH   8  11
HETATM   11  C   UNL     2     -12.314  15.018  70.668  1.00  0.00    -0.348 C  
HETATM   12  O   UNL     2     -13.683  15.414  70.460  1.00  0.00    -0.787 OA 
HETATM   13  H   UNL     2     -14.242  15.115  71.168  1.00  0.00     0.000 HD 
BRANCH  11  14
HETATM   14  C   UNL     2     -11.856  15.449  72.073  1.00  0.00    -0.442 C  
HETATM   15  C   UNL     2     -12.912  15.093  73.157  1.00  0.00    -0.518 C  
HETATM   16  O   UNL     2     -11.545  16.854  72.108  1.00  0.00    -0.474 OA 
HETATM   17  H   UNL     2     -11.262  17.119  72.975  1.00  0.00     0.000 HD 
HETATM   18  O   UNL     2     -13.528  14.001  72.949  1.00  0.00    -0.647 OA 
HETATM   19  O   UNL     2     -13.074  15.982  74.039  1.00  0.00    -0.621 OA 
ENDBRANCH  11  14
ENDBRANCH   8  11
ENDBRANCH   2   8
TORSDOF 4
ENDMDL
MODEL       52
REMARK 921   NORMALIZED FREE ENERGY PREDICTED BY IDOCK:   -4.61 KCAL/MOL
REMARK 922        TOTAL FREE ENERGY PREDICTED BY IDOCK:   -6.70 KCAL/MOL
REMARK 923 INTER-LIGAND FREE ENERGY PREDICTED BY IDOCK:   -6.61 KCAL/MOL
REMARK 924 INTRA-LIGAND FREE ENERGY PREDICTED BY IDOCK:   -0.09 KCAL/MOL
REMARK 927      BINDING AFFINITY PREDICTED BY RF-SCORE:    0.00 PKD
ROOT
HETATM    1  K   UNL     1     -12.185  15.021  62.922  1.00  0.00    -0.814 K  
HETATM    2  C   UNL     2     -10.659  16.050  66.052  1.00  0.00    -0.316 C  
HETATM    3  H   UNL     2     -11.699  16.418  64.412  1.00  0.00     0.000 HD 
HETATM    4  O   UNL     2     -10.788  16.480  64.671  1.00  0.00    -0.741 OA 
ENDROOT
BRANCH   2   5
HETATM    5  C   UNL     2      -9.190  16.149  66.470  1.00  0.00    -0.272 C  
HETATM    6  O   UNL     2      -8.613  17.305  65.853  1.00  0.00    -0.528 OA 
HETATM    7  H   UNL     2      -7.702  17.366  66.112  1.00  0.00     0.000 HD 
ENDBRANCH   2   5
BRANCH   2   8
HETATM    8  C   UNL     2     -11.293  14.658  66.308  1.00  0.00    -0.347 C  
HETATM    9  O   UNL     2     -12.265  14.864  67.358  1.00  0.00    -0.470 OA 
HETATM   10  H   UNL     2     -12.653  14.012  67.515  1.00  0.00     0.000 HD 
BRANCH   8  11
HETATM   11  C   UNL     2     -11.916  13.971  65.056  1.00  0.00    -0.401 C  
HETATM   12  O   UNL     2     -13.346  13.851  65.181  1.00  0.00    -0.698 OA 
HETATM   13  H   UNL     2     -13.726  13.432  64.417  1.00  0.00     0.000 HD 
BRANCH  11  14
HETATM   14  C   UNL     2     -11.308  12.602  64.706  1.00  0.00    -0.312 C  
HETATM   15  C   UNL     2     -11.081  11.731  65.974  1.00  0.00    -0.312 C  
HETATM   16  O   UNL     2     -10.082  12.754  63.967  1.00  0.00    -0.569 OA 
HETATM   17  H   UNL     2      -9.707  11.909  63.750  1.00  0.00     0.000 HD 
HETATM   18  O   UNL     2     -11.971  11.868  66.869  1.00  0.00    -0.614 OA 
HETATM   19  O   UNL     2      -9.997  11.082  65.973  1.00  0.00    -0.220 OA 
ENDBRANCH  11  14
ENDBRANCH   8  11
ENDBRANCH   2   8
TORSDOF 4
ENDMDL
MODEL       53
REMARK 921   NORMALIZED FREE ENERGY PREDICTED BY IDOCK:   -4.61 KCAL/MOL
REMARK 922        TOTAL FREE ENERGY PREDICTED BY IDOCK:   -6.69 KCAL/MOL
REMARK 923 INTER-LIGAND FREE ENERGY PREDICTED BY IDOCK:   -5.97 KCAL/MOL
REMARK 924 INTRA-LIGAND FREE ENERGY PREDICTED BY IDOCK:   -0.72 KCAL/MOL
REMARK 927      BINDING AFFINITY PREDICTED BY RF-SCORE:    0.00 PKD
ROOT
HETATM    1  K   UNL     1     -11.042  19.043  65.420  1.00  0.00    -0.439 K  
HETATM    2  C   UNL     2     -11.089  15.475  64.747  1.00  0.00    -0.407 C  
HETATM    3  H   UNL     2     -10.797  17.351  64.200  1.00  0.00     0.000 HD 
HETATM    4  O   UNL     2     -11.517  16.733  64.163  1.00  0.00    -1.171 OA 
ENDROOT
BRANCH   2   5
HETATM    5  C   UNL     2     -12.249  14.478  64.688  1.00  0.00    -0.460 C  
HETATM    6  O   UNL     2     -12.516  14.164  63.317  1.00  0.00    -1.146 OA 
HETATM    7  H   UNL     2     -13.236  13.546  63.280  1.00  0.00     0.000 HD 
ENDBRANCH   2   5
BRANCH   2   8
HETATM    8  C   UNL     2     -10.481  15.647  66.163  1.00  0.00    -0.317 C  
HETATM    9  O   UNL     2     -10.685  17.036  66.505  1.00  0.00    -0.212 OA 
HETATM   10  H   UNL     2     -10.313  17.142  67.371  1.00  0.00     0.000 HD 
BRANCH   8  11
HETATM   11  C   UNL     2     -11.047  14.685  67.250  1.00  0.00    -0.328 C  
HETATM   12  O   UNL     2     -11.993  15.357  68.104  1.00  0.00    -0.471 OA 
HETATM   13  H   UNL     2     -12.338  14.770  68.767  1.00  0.00     0.000 HD 
BRANCH  11  14
HETATM   14  C   UNL     2      -9.978  13.986  68.108  1.00  0.00    -0.242 C  
HETATM   15  C   UNL     2      -9.060  15.011  68.832  1.00  0.00    -0.202 C  
HETATM   16  O   UNL     2      -9.196  13.072  67.318  1.00  0.00    -0.197 OA 
HETATM   17  H   UNL     2      -8.537  12.640  67.848  1.00  0.00     0.000 HD 
HETATM   18  O   UNL     2      -9.654  16.066  69.216  1.00  0.00    -0.238 OA 
HETATM   19  O   UNL     2      -7.838  14.692  68.854  1.00  0.00    -0.140 OA 
ENDBRANCH  11  14
ENDBRANCH   8  11
ENDBRANCH   2   8
TORSDOF 4
ENDMDL
MODEL       54
REMARK 921   NORMALIZED FREE ENERGY PREDICTED BY IDOCK:   -4.60 KCAL/MOL
REMARK 922        TOTAL FREE ENERGY PREDICTED BY IDOCK:   -6.69 KCAL/MOL
REMARK 923 INTER-LIGAND FREE ENERGY PREDICTED BY IDOCK:   -6.31 KCAL/MOL
REMARK 924 INTRA-LIGAND FREE ENERGY PREDICTED BY IDOCK:   -0.37 KCAL/MOL
REMARK 927      BINDING AFFINITY PREDICTED BY RF-SCORE:    0.00 PKD
ROOT
HETATM    1  K   UNL     1      -7.901  14.649  66.157  1.00  0.00    -0.311 K  
HETATM    2  C   UNL     2     -11.447  14.877  65.409  1.00  0.00    -0.320 C  
HETATM    3  H   UNL     2      -9.940  14.420  66.603  1.00  0.00     0.000 HD 
HETATM    4  O   UNL     2     -10.475  13.956  65.970  1.00  0.00    -0.285 OA 
ENDROOT
BRANCH   2   5
HETATM    5  C   UNL     2     -12.310  14.131  64.389  1.00  0.00    -0.381 C  
HETATM    6  O   UNL     2     -12.901  12.995  65.030  1.00  0.00    -0.689 OA 
HETATM    7  H   UNL     2     -13.436  12.532  64.397  1.00  0.00     0.000 HD 
ENDBRANCH   2   5
BRANCH   2   8
HETATM    8  C   UNL     2     -10.797  16.171  64.855  1.00  0.00    -0.334 C  
HETATM    9  O   UNL     2     -11.593  16.542  63.707  1.00  0.00    -1.617 OA 
HETATM   10  H   UNL     2     -11.196  17.334  63.367  1.00  0.00     0.000 HD 
BRANCH   8  11
HETATM   11  C   UNL     2     -10.663  17.338  65.878  1.00  0.00    -0.126 C  
HETATM   12  O   UNL     2     -10.839  18.618  65.241  1.00  0.00    -0.591 OA 
HETATM   13  H   UNL     2     -10.756  19.330  65.866  1.00  0.00     0.000 HD 
BRANCH  11  14
HETATM   14  C   UNL     2      -9.354  17.335  66.687  1.00  0.00    -0.260 C  
HETATM   15  C   UNL     2      -9.459  18.227  67.956  1.00  0.00    -0.290 C  
HETATM   16  O   UNL     2      -8.240  17.742  65.870  1.00  0.00    -0.525 OA 
HETATM   17  H   UNL     2      -7.432  17.740  66.369  1.00  0.00     0.000 HD 
HETATM   18  O   UNL     2     -10.600  18.211  68.514  1.00  0.00    -0.296 OA 
HETATM   19  O   UNL     2      -8.425  18.911  68.200  1.00  0.00    -0.289 OA 
ENDBRANCH  11  14
ENDBRANCH   8  11
ENDBRANCH   2   8
TORSDOF 4
ENDMDL
MODEL       55
REMARK 921   NORMALIZED FREE ENERGY PREDICTED BY IDOCK:   -4.59 KCAL/MOL
REMARK 922        TOTAL FREE ENERGY PREDICTED BY IDOCK:   -6.67 KCAL/MOL
REMARK 923 INTER-LIGAND FREE ENERGY PREDICTED BY IDOCK:   -6.46 KCAL/MOL
REMARK 924 INTRA-LIGAND FREE ENERGY PREDICTED BY IDOCK:   -0.22 KCAL/MOL
REMARK 927      BINDING AFFINITY PREDICTED BY RF-SCORE:    0.00 PKD
ROOT
HETATM    1  K   UNL     1     -12.500  11.841  62.458  1.00  0.00    -0.663 K  
HETATM    2  C   UNL     2     -11.832  14.396  64.950  1.00  0.00    -0.417 C  
HETATM    3  H   UNL     2     -13.063  13.272  63.887  1.00  0.00     0.000 HD 
HETATM    4  O   UNL     2     -12.688  14.140  63.805  1.00  0.00    -0.761 OA 
ENDROOT
BRANCH   2   5
HETATM    5  C   UNL     2     -11.227  15.796  64.817  1.00  0.00    -0.366 C  
HETATM    6  O   UNL     2     -11.714  16.395  63.611  1.00  0.00    -1.520 OA 
HETATM    7  H   UNL     2     -11.339  17.263  63.529  1.00  0.00     0.000 HD 
ENDBRANCH   2   5
BRANCH   2   8
HETATM    8  C   UNL     2     -10.782  13.277  65.175  1.00  0.00    -0.322 C  
HETATM    9  O   UNL     2      -9.923  13.315  64.013  1.00  0.00    -0.762 OA 
HETATM   10  H   UNL     2      -9.280  12.630  64.151  1.00  0.00     0.000 HD 
BRANCH   8  11
HETATM   11  C   UNL     2      -9.977  13.380  66.505  1.00  0.00    -0.286 C  
HETATM   12  O   UNL     2      -9.413  12.108  66.877  1.00  0.00    -0.199 OA 
HETATM   13  H   UNL     2      -8.923  12.171  67.689  1.00  0.00     0.000 HD 
BRANCH  11  14
HETATM   14  C   UNL     2     -10.766  13.966  67.689  1.00  0.00    -0.249 C  
HETATM   15  C   UNL     2      -9.985  15.113  68.390  1.00  0.00    -0.222 C  
HETATM   16  O   UNL     2     -11.119  12.939  68.634  1.00  0.00    -0.244 OA 
HETATM   17  H   UNL     2     -11.607  13.301  69.365  1.00  0.00     0.000 HD 
HETATM   18  O   UNL     2      -9.306  15.842  67.602  1.00  0.00    -0.213 OA 
HETATM   19  O   UNL     2     -10.063  15.103  69.651  1.00  0.00    -0.232 OA 
ENDBRANCH  11  14
ENDBRANCH   8  11
ENDBRANCH   2   8
TORSDOF 4
ENDMDL
MODEL       56
REMARK 921   NORMALIZED FREE ENERGY PREDICTED BY IDOCK:   -4.58 KCAL/MOL
REMARK 922        TOTAL FREE ENERGY PREDICTED BY IDOCK:   -6.66 KCAL/MOL
REMARK 923 INTER-LIGAND FREE ENERGY PREDICTED BY IDOCK:   -5.84 KCAL/MOL
REMARK 924 INTRA-LIGAND FREE ENERGY PREDICTED BY IDOCK:   -0.82 KCAL/MOL
REMARK 927      BINDING AFFINITY PREDICTED BY RF-SCORE:    0.00 PKD
ROOT
HETATM    1  K   UNL     1      -8.363  12.476  65.859  1.00  0.00    -0.376 K  
HETATM    2  C   UNL     2     -11.526  14.236  65.574  1.00  0.00    -0.329 C  
HETATM    3  H   UNL     2     -10.250  13.084  66.550  1.00  0.00     0.000 HD 
HETATM    4  O   UNL     2     -10.990  12.946  65.972  1.00  0.00    -0.272 OA 
ENDROOT
BRANCH   2   5
HETATM    5  C   UNL     2     -12.720  14.014  64.643  1.00  0.00    -0.129 C  
HETATM    6  O   UNL     2     -12.232  13.772  63.318  1.00  0.00    -1.021 OA 
HETATM    7  H   UNL     2     -12.973  13.634  62.741  1.00  0.00     0.000 HD 
ENDBRANCH   2   5
BRANCH   2   8
HETATM    8  C   UNL     2     -10.443  15.181  64.992  1.00  0.00    -0.389 C  
HETATM    9  O   UNL     2     -11.162  16.143  64.187  1.00  0.00    -1.120 OA 
HETATM   10  H   UNL     2     -10.499  16.721  63.831  1.00  0.00     0.000 HD 
BRANCH   8  11
HETATM   11  C   UNL     2      -9.524  15.867  66.047  1.00  0.00    -0.354 C  
HETATM   12  O   UNL     2      -8.442  15.003  66.442  1.00  0.00    -0.425 OA 
HETATM   13  H   UNL     2      -7.882  15.421  67.086  1.00  0.00     0.000 HD 
BRANCH  11  14
HETATM   14  C   UNL     2     -10.258  16.386  67.296  1.00  0.00    -0.278 C  
HETATM   15  C   UNL     2      -9.879  17.859  67.616  1.00  0.00    -0.304 C  
HETATM   16  O   UNL     2     -10.008  15.538  68.432  1.00  0.00    -0.209 OA 
HETATM   17  H   UNL     2     -10.461  15.858  69.203  1.00  0.00     0.000 HD 
HETATM   18  O   UNL     2      -9.690  18.586  66.591  1.00  0.00    -0.311 OA 
HETATM   19  O   UNL     2      -9.724  18.102  68.846  1.00  0.00    -0.324 OA 
ENDBRANCH  11  14
ENDBRANCH   8  11
ENDBRANCH   2   8
TORSDOF 4
ENDMDL
MODEL       57
REMARK 921   NORMALIZED FREE ENERGY PREDICTED BY IDOCK:   -4.57 KCAL/MOL
REMARK 922        TOTAL FREE ENERGY PREDICTED BY IDOCK:   -6.65 KCAL/MOL
REMARK 923 INTER-LIGAND FREE ENERGY PREDICTED BY IDOCK:   -5.71 KCAL/MOL
REMARK 924 INTRA-LIGAND FREE ENERGY PREDICTED BY IDOCK:   -0.94 KCAL/MOL
REMARK 927      BINDING AFFINITY PREDICTED BY RF-SCORE:    0.00 PKD
ROOT
HETATM    1  K   UNL     1      -9.157  13.796  68.507  1.00  0.00    -0.162 K  
HETATM    2  C   UNL     2     -10.106  10.785  66.712  1.00  0.00    -0.222 C  
HETATM    3  H   UNL     2      -9.437  11.723  68.318  1.00  0.00     0.000 HD 
HETATM    4  O   UNL     2      -9.048  11.298  67.563  1.00  0.00    -0.149 OA 
ENDROOT
BRANCH   2   5
HETATM    5  C   UNL     2      -9.480  10.100  65.496  1.00  0.00    -0.230 C  
HETATM    6  O   UNL     2     -10.367  10.239  64.381  1.00  0.00    -0.353 OA 
HETATM    7  H   UNL     2      -9.979   9.814  63.626  1.00  0.00     0.000 HD 
ENDBRANCH   2   5
BRANCH   2   8
HETATM    8  C   UNL     2     -11.162  11.863  66.352  1.00  0.00    -0.331 C  
HETATM    9  O   UNL     2     -12.134  11.823  67.420  1.00  0.00    -0.595 OA 
HETATM   10  H   UNL     2     -12.780  12.482  67.200  1.00  0.00     0.000 HD 
BRANCH   8  11
HETATM   11  C   UNL     2     -10.596  13.296  66.126  1.00  0.00    -0.287 C  
HETATM   12  O   UNL     2     -11.131  14.229  67.084  1.00  0.00    -0.295 OA 
HETATM   13  H   UNL     2     -10.786  15.104  66.946  1.00  0.00     0.000 HD 
BRANCH  11  14
HETATM   14  C   UNL     2     -10.790  13.846  64.702  1.00  0.00    -0.408 C  
HETATM   15  C   UNL     2     -12.285  13.831  64.277  1.00  0.00    -0.400 C  
HETATM   16  O   UNL     2      -9.984  13.122  63.753  1.00  0.00    -0.741 OA 
HETATM   17  H   UNL     2     -10.104  13.462  62.874  1.00  0.00     0.000 HD 
HETATM   18  O   UNL     2     -13.099  14.085  65.219  1.00  0.00    -0.782 OA 
HETATM   19  O   UNL     2     -12.484  13.478  63.081  1.00  0.00    -0.759 OA 
ENDBRANCH  11  14
ENDBRANCH   8  11
ENDBRANCH   2   8
TORSDOF 4
ENDMDL
MODEL       58
REMARK 921   NORMALIZED FREE ENERGY PREDICTED BY IDOCK:   -4.57 KCAL/MOL
REMARK 922        TOTAL FREE ENERGY PREDICTED BY IDOCK:   -6.65 KCAL/MOL
REMARK 923 INTER-LIGAND FREE ENERGY PREDICTED BY IDOCK:   -5.56 KCAL/MOL
REMARK 924 INTRA-LIGAND FREE ENERGY PREDICTED BY IDOCK:   -1.08 KCAL/MOL
REMARK 927      BINDING AFFINITY PREDICTED BY RF-SCORE:    0.00 PKD
ROOT
HETATM    1  K   UNL     1     -11.543  15.364  69.909  1.00  0.00    -0.219 K  
HETATM    2  C   UNL     2     -11.561  12.042  68.442  1.00  0.00    -0.311 C  
HETATM    3  H   UNL     2     -12.468  13.587  69.277  1.00  0.00     0.000 HD 
HETATM    4  O   UNL     2     -12.092  12.770  69.581  1.00  0.00    -0.289 OA 
ENDROOT
BRANCH   2   5
HETATM    5  C   UNL     2     -10.957  10.724  68.930  1.00  0.00    -0.241 C  
HETATM    6  O   UNL     2     -11.362   9.675  68.044  1.00  0.00    -0.525 OA 
HETATM    7  H   UNL     2     -10.988   8.857  68.348  1.00  0.00     0.000 HD 
ENDBRANCH   2   5
BRANCH   2   8
HETATM    8  C   UNL     2     -10.594  12.897  67.583  1.00  0.00    -0.223 C  
HETATM    9  O   UNL     2      -9.827  11.949  66.807  1.00  0.00    -0.193 OA 
HETATM   10  H   UNL     2      -9.234  12.472  66.281  1.00  0.00     0.000 HD 
BRANCH   8  11
HETATM   11  C   UNL     2     -11.276  13.973  66.687  1.00  0.00    -0.323 C  
HETATM   12  O   UNL     2     -11.914  14.991  67.482  1.00  0.00    -0.426 OA 
HETATM   13  H   UNL     2     -12.331  15.647  66.936  1.00  0.00     0.000 HD 
BRANCH  11  14
HETATM   14  C   UNL     2     -12.276  13.414  65.660  1.00  0.00    -0.463 C  
HETATM   15  C   UNL     2     -11.668  13.368  64.230  1.00  0.00    -0.412 C  
HETATM   16  O   UNL     2     -13.502  14.167  65.668  1.00  0.00    -0.725 OA 
HETATM   17  H   UNL     2     -14.120  13.821  65.034  1.00  0.00     0.000 HD 
HETATM   18  O   UNL     2     -10.430  13.083  64.196  1.00  0.00    -0.413 OA 
HETATM   19  O   UNL     2     -12.466  13.711  63.313  1.00  0.00    -0.801 OA 
ENDBRANCH  11  14
ENDBRANCH   8  11
ENDBRANCH   2   8
TORSDOF 4
ENDMDL
MODEL       59
REMARK 921   NORMALIZED FREE ENERGY PREDICTED BY IDOCK:   -4.57 KCAL/MOL
REMARK 922        TOTAL FREE ENERGY PREDICTED BY IDOCK:   -6.64 KCAL/MOL
REMARK 923 INTER-LIGAND FREE ENERGY PREDICTED BY IDOCK:   -5.68 KCAL/MOL
REMARK 924 INTRA-LIGAND FREE ENERGY PREDICTED BY IDOCK:   -0.96 KCAL/MOL
REMARK 927      BINDING AFFINITY PREDICTED BY RF-SCORE:    0.00 PKD
ROOT
HETATM    1  K   UNL     1     -11.851  16.166  63.308  1.00  0.00    -0.897 K  
HETATM    2  C   UNL     2     -10.861  13.637  65.718  1.00  0.00    -0.273 C  
HETATM    3  H   UNL     2     -10.559  14.702  64.081  1.00  0.00     0.000 HD 
HETATM    4  O   UNL     2     -10.934  13.854  64.284  1.00  0.00    -0.347 OA 
ENDROOT
BRANCH   2   5
HETATM    5  C   UNL     2     -11.466  12.270  66.047  1.00  0.00    -0.381 C  
HETATM    6  O   UNL     2     -12.633  12.077  65.240  1.00  0.00    -0.371 OA 
HETATM    7  H   UNL     2     -13.008  11.229  65.444  1.00  0.00     0.000 HD 
ENDBRANCH   2   5
BRANCH   2   8
HETATM    8  C   UNL     2     -11.472  14.806  66.534  1.00  0.00    -0.327 C  
HETATM    9  O   UNL     2     -12.294  14.182  67.546  1.00  0.00    -0.571 OA 
HETATM   10  H   UNL     2     -12.668  14.898  68.045  1.00  0.00     0.000 HD 
BRANCH   8  11
HETATM   11  C   UNL     2     -10.440  15.800  67.145  1.00  0.00    -0.309 C  
HETATM   12  O   UNL     2     -11.079  16.747  68.022  1.00  0.00    -0.336 OA 
HETATM   13  H   UNL     2     -10.449  17.354  68.395  1.00  0.00     0.000 HD 
BRANCH  11  14
HETATM   14  C   UNL     2      -9.579  16.548  66.112  1.00  0.00    -0.315 C  
HETATM   15  C   UNL     2      -8.860  17.774  66.740  1.00  0.00    -0.260 C  
HETATM   16  O   UNL     2     -10.366  16.947  64.974  1.00  0.00    -0.596 OA 
HETATM   17  H   UNL     2      -9.835  17.409  64.336  1.00  0.00     0.000 HD 
HETATM   18  O   UNL     2      -8.480  17.600  67.940  1.00  0.00    -0.224 OA 
HETATM   19  O   UNL     2      -8.837  18.800  66.003  1.00  0.00    -0.479 OA 
ENDBRANCH  11  14
ENDBRANCH   8  11
ENDBRANCH   2   8
TORSDOF 4
ENDMDL
MODEL       60
REMARK 921   NORMALIZED FREE ENERGY PREDICTED BY IDOCK:   -4.50 KCAL/MOL
REMARK 922        TOTAL FREE ENERGY PREDICTED BY IDOCK:   -6.56 KCAL/MOL
REMARK 923 INTER-LIGAND FREE ENERGY PREDICTED BY IDOCK:   -5.43 KCAL/MOL
REMARK 924 INTRA-LIGAND FREE ENERGY PREDICTED BY IDOCK:   -1.13 KCAL/MOL
REMARK 927      BINDING AFFINITY PREDICTED BY RF-SCORE:    0.00 PKD
ROOT
HETATM    1  K   UNL     1     -10.744  11.363  70.081  1.00  0.00    -0.365 K  
HETATM    2  C   UNL     2      -9.295  11.074  66.764  1.00  0.00    -0.181 C  
HETATM    3  H   UNL     2     -10.440  10.413  68.233  1.00  0.00     0.000 HD 
HETATM    4  O   UNL     2      -9.542  10.280  67.954  1.00  0.00    -0.144 OA 
ENDROOT
BRANCH   2   5
HETATM    5  C   UNL     2      -7.848  10.860  66.314  1.00  0.00    -0.158 C  
HETATM    6  O   UNL     2      -7.770  11.069  64.900  1.00  0.00    -0.337 OA 
HETATM    7  H   UNL     2      -6.872  10.936  64.621  1.00  0.00     0.000 HD 
ENDBRANCH   2   5
BRANCH   2   8
HETATM    8  C   UNL     2      -9.682  12.565  66.946  1.00  0.00    -0.232 C  
HETATM    9  O   UNL     2      -8.591  13.320  66.373  1.00  0.00    -0.420 OA 
HETATM   10  H   UNL     2      -8.828  14.232  66.485  1.00  0.00     0.000 HD 
BRANCH   8  11
HETATM   11  C   UNL     2     -11.059  12.971  66.341  1.00  0.00    -0.287 C  
HETATM   12  O   UNL     2     -11.953  11.844  66.265  1.00  0.00    -0.554 OA 
HETATM   13  H   UNL     2     -12.792  12.092  65.896  1.00  0.00     0.000 HD 
BRANCH  11  14
HETATM   14  C   UNL     2     -10.978  13.664  64.970  1.00  0.00    -0.346 C  
HETATM   15  C   UNL     2     -12.385  13.844  64.332  1.00  0.00    -0.361 C  
HETATM   16  O   UNL     2     -10.103  12.948  64.079  1.00  0.00    -0.577 OA 
HETATM   17  H   UNL     2     -10.053  13.377  63.233  1.00  0.00     0.000 HD 
HETATM   18  O   UNL     2     -13.310  14.096  65.165  1.00  0.00    -0.684 OA 
HETATM   19  O   UNL     2     -12.425  13.622  63.089  1.00  0.00    -0.786 OA 
ENDBRANCH  11  14
ENDBRANCH   8  11
ENDBRANCH   2   8
TORSDOF 4
ENDMDL
MODEL       61
REMARK 921   NORMALIZED FREE ENERGY PREDICTED BY IDOCK:   -4.50 KCAL/MOL
REMARK 922        TOTAL FREE ENERGY PREDICTED BY IDOCK:   -6.56 KCAL/MOL
REMARK 923 INTER-LIGAND FREE ENERGY PREDICTED BY IDOCK:   -5.75 KCAL/MOL
REMARK 924 INTRA-LIGAND FREE ENERGY PREDICTED BY IDOCK:   -0.80 KCAL/MOL
REMARK 927      BINDING AFFINITY PREDICTED BY RF-SCORE:    0.00 PKD
ROOT
HETATM    1  K   UNL     1     -11.313   8.705  68.463  1.00  0.00    -0.419 K  
HETATM    2  C   UNL     2     -12.843   9.200  71.718  1.00  0.00    -0.377 C  
HETATM    3  H   UNL     2     -11.372   8.572  70.557  1.00  0.00     0.000 HD 
HETATM    4  O   UNL     2     -12.147   8.185  70.947  1.00  0.00    -0.262 OA 
ENDROOT
BRANCH   2   5
HETATM    5  C   UNL     2     -14.092   8.578  72.347  1.00  0.00    -0.319 C  
HETATM    6  O   UNL     2     -14.198   9.028  73.702  1.00  0.00    -0.992 OA 
HETATM    7  H   UNL     2     -14.972   8.642  74.092  1.00  0.00     0.000 HD 
ENDBRANCH   2   5
BRANCH   2   8
HETATM    8  C   UNL     2     -13.127  10.486  70.899  1.00  0.00    -0.306 C  
HETATM    9  O   UNL     2     -13.315  11.533  71.877  1.00  0.00    -0.443 OA 
HETATM   10  H   UNL     2     -13.488  12.320  71.376  1.00  0.00     0.000 HD 
BRANCH   8  11
HETATM   11  C   UNL     2     -12.041  10.854  69.845  1.00  0.00    -0.354 C  
HETATM   12  O   UNL     2     -10.713  10.627  70.357  1.00  0.00    -0.445 OA 
HETATM   13  H   UNL     2     -10.051  10.852  69.714  1.00  0.00     0.000 HD 
BRANCH  11  14
HETATM   14  C   UNL     2     -12.145  12.285  69.289  1.00  0.00    -0.166 C  
HETATM   15  C   UNL     2     -11.570  12.387  67.848  1.00  0.00    -0.356 C  
HETATM   16  O   UNL     2     -11.497  13.228  70.163  1.00  0.00    -0.506 OA 
HETATM   17  H   UNL     2     -11.562  14.112  69.820  1.00  0.00     0.000 HD 
HETATM   18  O   UNL     2     -11.781  11.363  67.127  1.00  0.00    -0.556 OA 
HETATM   19  O   UNL     2     -10.896  13.433  67.628  1.00  0.00    -0.253 OA 
ENDBRANCH  11  14
ENDBRANCH   8  11
ENDBRANCH   2   8
TORSDOF 4
ENDMDL
MODEL       62
REMARK 921   NORMALIZED FREE ENERGY PREDICTED BY IDOCK:   -4.49 KCAL/MOL
REMARK 922        TOTAL FREE ENERGY PREDICTED BY IDOCK:   -6.55 KCAL/MOL
REMARK 923 INTER-LIGAND FREE ENERGY PREDICTED BY IDOCK:   -5.26 KCAL/MOL
REMARK 924 INTRA-LIGAND FREE ENERGY PREDICTED BY IDOCK:   -1.29 KCAL/MOL
REMARK 927      BINDING AFFINITY PREDICTED BY RF-SCORE:    0.00 PKD
ROOT
HETATM    1  K   UNL     1     -11.317   8.776  67.513  1.00  0.00    -0.464 K  
HETATM    2  C   UNL     2      -9.184  11.578  66.627  1.00  0.00    -0.186 C  
HETATM    3  H   UNL     2      -9.676   9.666  66.551  1.00  0.00     0.000 HD 
HETATM    4  O   UNL     2      -9.099  10.201  67.080  1.00  0.00    -0.135 OA 
ENDROOT
BRANCH   2   5
HETATM    5  C   UNL     2      -8.253  12.442  67.481  1.00  0.00    -0.173 C  
HETATM    6  O   UNL     2      -8.160  13.743  66.889  1.00  0.00    -0.390 OA 
HETATM    7  H   UNL     2      -7.583  14.279  67.419  1.00  0.00     0.000 HD 
ENDBRANCH   2   5
BRANCH   2   8
HETATM    8  C   UNL     2     -10.643  12.100  66.565  1.00  0.00    -0.237 C  
HETATM    9  O   UNL     2     -10.835  12.856  67.782  1.00  0.00    -0.221 OA 
HETATM   10  H   UNL     2     -11.728  13.175  67.744  1.00  0.00     0.000 HD 
BRANCH   8  11
HETATM   11  C   UNL     2     -10.998  12.930  65.295  1.00  0.00    -0.283 C  
HETATM   12  O   UNL     2      -9.852  13.090  64.436  1.00  0.00    -0.605 OA 
HETATM   13  H   UNL     2     -10.069  13.597  63.662  1.00  0.00     0.000 HD 
BRANCH  11  14
HETATM   14  C   UNL     2     -11.629  14.303  65.582  1.00  0.00    -0.346 C  
HETATM   15  C   UNL     2     -12.186  14.963  64.289  1.00  0.00    -0.344 C  
HETATM   16  O   UNL     2     -10.690  15.178  66.236  1.00  0.00    -0.307 OA 
HETATM   17  H   UNL     2     -11.080  16.026  66.413  1.00  0.00     0.000 HD 
HETATM   18  O   UNL     2     -12.692  14.144  63.460  1.00  0.00    -0.794 OA 
HETATM   19  O   UNL     2     -11.973  16.205  64.204  1.00  0.00    -0.774 OA 
ENDBRANCH  11  14
ENDBRANCH   8  11
ENDBRANCH   2   8
TORSDOF 4
ENDMDL
MODEL       63
REMARK 921   NORMALIZED FREE ENERGY PREDICTED BY IDOCK:   -4.49 KCAL/MOL
REMARK 922        TOTAL FREE ENERGY PREDICTED BY IDOCK:   -6.55 KCAL/MOL
REMARK 923 INTER-LIGAND FREE ENERGY PREDICTED BY IDOCK:   -5.91 KCAL/MOL
REMARK 924 INTRA-LIGAND FREE ENERGY PREDICTED BY IDOCK:   -0.64 KCAL/MOL
REMARK 927      BINDING AFFINITY PREDICTED BY RF-SCORE:    0.00 PKD
ROOT
HETATM    1  K   UNL     1     -11.882  16.771  70.667  1.00  0.00    -0.482 K  
HETATM    2  C   UNL     2     -11.860  13.705  68.721  1.00  0.00    -0.360 C  
HETATM    3  H   UNL     2     -12.521  14.824  70.210  1.00  0.00     0.000 HD 
HETATM    4  O   UNL     2     -11.851  14.160  70.100  1.00  0.00    -0.284 OA 
ENDROOT
BRANCH   2   5
HETATM    5  C   UNL     2     -10.780  12.636  68.543  1.00  0.00    -0.248 C  
HETATM    6  O   UNL     2      -9.508  13.206  68.872  1.00  0.00    -0.402 OA 
HETATM    7  H   UNL     2      -8.838  12.542  68.761  1.00  0.00     0.000 HD 
ENDBRANCH   2   5
BRANCH   2   8
HETATM    8  C   UNL     2     -11.761  14.872  67.704  1.00  0.00    -0.307 C  
HETATM    9  O   UNL     2     -10.960  15.884  68.354  1.00  0.00    -0.297 OA 
HETATM   10  H   UNL     2     -10.901  16.599  67.732  1.00  0.00     0.000 HD 
BRANCH   8  11
HETATM   11  C   UNL     2     -11.198  14.487  66.304  1.00  0.00    -0.342 C  
HETATM   12  O   UNL     2     -10.121  15.360  65.913  1.00  0.00    -0.295 OA 
HETATM   13  H   UNL     2      -9.778  15.125  65.059  1.00  0.00     0.000 HD 
BRANCH  11  14
HETATM   14  C   UNL     2     -12.250  14.425  65.183  1.00  0.00    -0.393 C  
HETATM   15  C   UNL     2     -12.526  12.963  64.731  1.00  0.00    -0.455 C  
HETATM   16  O   UNL     2     -11.861  15.240  64.062  1.00  0.00    -0.841 OA 
HETATM   17  H   UNL     2     -12.511  15.203  63.371  1.00  0.00     0.000 HD 
HETATM   18  O   UNL     2     -12.484  12.108  65.669  1.00  0.00    -0.501 OA 
HETATM   19  O   UNL     2     -12.659  12.820  63.483  1.00  0.00    -0.703 OA 
ENDBRANCH  11  14
ENDBRANCH   8  11
ENDBRANCH   2   8
TORSDOF 4
ENDMDL
MODEL       64
REMARK 921   NORMALIZED FREE ENERGY PREDICTED BY IDOCK:   -4.48 KCAL/MOL
REMARK 922        TOTAL FREE ENERGY PREDICTED BY IDOCK:   -6.53 KCAL/MOL
REMARK 923 INTER-LIGAND FREE ENERGY PREDICTED BY IDOCK:   -5.73 KCAL/MOL
REMARK 924 INTRA-LIGAND FREE ENERGY PREDICTED BY IDOCK:   -0.80 KCAL/MOL
REMARK 927      BINDING AFFINITY PREDICTED BY RF-SCORE:    0.00 PKD
ROOT
HETATM    1  K   UNL     1     -11.195  12.712  69.198  1.00  0.00    -0.207 K  
HETATM    2  C   UNL     2     -12.213  13.957  65.942  1.00  0.00    -0.467 C  
HETATM    3  H   UNL     2     -12.518  12.889  67.577  1.00  0.00     0.000 HD 
HETATM    4  O   UNL     2     -12.169  12.725  66.710  1.00  0.00    -0.470 OA 
ENDROOT
BRANCH   2   5
HETATM    5  C   UNL     2     -11.650  13.693  64.544  1.00  0.00    -0.390 C  
HETATM    6  O   UNL     2     -12.387  14.473  63.596  1.00  0.00    -1.064 OA 
HETATM    7  H   UNL     2     -12.038  14.310  62.729  1.00  0.00     0.000 HD 
ENDBRANCH   2   5
BRANCH   2   8
HETATM    8  C   UNL     2     -11.540  15.145  66.676  1.00  0.00    -0.122 C  
HETATM    9  O   UNL     2     -11.413  14.726  68.054  1.00  0.00    -0.304 OA 
HETATM   10  H   UNL     2     -11.001  15.454  68.503  1.00  0.00     0.000 HD 
BRANCH   8  11
HETATM   11  C   UNL     2     -10.180  15.611  66.076  1.00  0.00    -0.335 C  
HETATM   12  O   UNL     2      -9.070  15.147  66.869  1.00  0.00    -0.216 OA 
HETATM   13  H   UNL     2      -8.240  15.431  66.503  1.00  0.00     0.000 HD 
BRANCH  11  14
HETATM   14  C   UNL     2     -10.061  17.129  65.856  1.00  0.00    -0.240 C  
HETATM   15  C   UNL     2     -10.262  17.921  67.179  1.00  0.00    -0.353 C  
HETATM   16  O   UNL     2     -10.985  17.579  64.848  1.00  0.00    -0.887 OA 
HETATM   17  H   UNL     2     -10.912  18.517  64.712  1.00  0.00     0.000 HD 
HETATM   18  O   UNL     2      -9.791  17.347  68.209  1.00  0.00    -0.280 OA 
HETATM   19  O   UNL     2     -10.946  18.976  67.057  1.00  0.00    -0.399 OA 
ENDBRANCH  11  14
ENDBRANCH   8  11
ENDBRANCH   2   8
TORSDOF 4
ENDMDL
MODEL       65
REMARK 921   NORMALIZED FREE ENERGY PREDICTED BY IDOCK:   -4.47 KCAL/MOL
REMARK 922        TOTAL FREE ENERGY PREDICTED BY IDOCK:   -6.52 KCAL/MOL
REMARK 923 INTER-LIGAND FREE ENERGY PREDICTED BY IDOCK:   -6.10 KCAL/MOL
REMARK 924 INTRA-LIGAND FREE ENERGY PREDICTED BY IDOCK:   -0.43 KCAL/MOL
REMARK 927      BINDING AFFINITY PREDICTED BY RF-SCORE:    0.00 PKD
ROOT
HETATM    1  K   UNL     1      -8.445  11.951  69.480  1.00  0.00    -0.346 K  
HETATM    2  C   UNL     2     -10.308  11.148  66.469  1.00  0.00    -0.243 C  
HETATM    3  H   UNL     2      -9.984  11.002  68.413  1.00  0.00     0.000 HD 
HETATM    4  O   UNL     2      -9.738  10.508  67.641  1.00  0.00    -0.161 OA 
ENDROOT
BRANCH   2   5
HETATM    5  C   UNL     2      -9.912  10.351  65.224  1.00  0.00    -0.309 C  
HETATM    6  O   UNL     2      -9.991   8.954  65.527  1.00  0.00    -0.418 OA 
HETATM    7  H   UNL     2      -9.745   8.460  64.755  1.00  0.00     0.000 HD 
ENDBRANCH   2   5
BRANCH   2   8
HETATM    8  C   UNL     2      -9.965  12.658  66.384  1.00  0.00    -0.255 C  
HETATM    9  O   UNL     2      -8.523  12.723  66.316  1.00  0.00    -0.389 OA 
HETATM   10  H   UNL     2      -8.313  13.647  66.264  1.00  0.00     0.000 HD 
BRANCH   8  11
HETATM   11  C   UNL     2     -10.644  13.428  65.212  1.00  0.00    -0.325 C  
HETATM   12  O   UNL     2      -9.882  13.310  63.995  1.00  0.00    -0.741 OA 
HETATM   13  H   UNL     2     -10.295  13.780  63.280  1.00  0.00     0.000 HD 
BRANCH  11  14
HETATM   14  C   UNL     2     -10.935  14.911  65.501  1.00  0.00    -0.350 C  
HETATM   15  C   UNL     2     -11.765  15.568  64.363  1.00  0.00    -0.242 C  
HETATM   16  O   UNL     2      -9.716  15.642  65.730  1.00  0.00    -0.328 OA 
HETATM   17  H   UNL     2      -9.896  16.558  65.909  1.00  0.00     0.000 HD 
HETATM   18  O   UNL     2     -12.626  14.799  63.832  1.00  0.00    -0.834 OA 
HETATM   19  O   UNL     2     -11.403  16.741  64.064  1.00  0.00    -1.153 OA 
ENDBRANCH  11  14
ENDBRANCH   8  11
ENDBRANCH   2   8
TORSDOF 4
ENDMDL
MODEL       66
REMARK 921   NORMALIZED FREE ENERGY PREDICTED BY IDOCK:   -4.45 KCAL/MOL
REMARK 922        TOTAL FREE ENERGY PREDICTED BY IDOCK:   -6.50 KCAL/MOL
REMARK 923 INTER-LIGAND FREE ENERGY PREDICTED BY IDOCK:   -5.89 KCAL/MOL
REMARK 924 INTRA-LIGAND FREE ENERGY PREDICTED BY IDOCK:   -0.60 KCAL/MOL
REMARK 927      BINDING AFFINITY PREDICTED BY RF-SCORE:    0.00 PKD
ROOT
HETATM    1  K   UNL     1      -8.595  12.328  65.738  1.00  0.00    -0.346 K  
HETATM    2  C   UNL     2     -10.889  15.141  65.666  1.00  0.00    -0.360 C  
HETATM    3  H   UNL     2     -10.395  13.279  65.224  1.00  0.00     0.000 HD 
HETATM    4  O   UNL     2     -10.334  14.123  64.793  1.00  0.00    -0.426 OA 
ENDROOT
BRANCH   2   5
HETATM    5  C   UNL     2     -10.791  16.501  64.971  1.00  0.00    -0.229 C  
HETATM    6  O   UNL     2     -11.575  16.463  63.773  1.00  0.00    -1.605 OA 
HETATM    7  H   UNL     2     -11.514  17.307  63.342  1.00  0.00     0.000 HD 
ENDBRANCH   2   5
BRANCH   2   8
HETATM    8  C   UNL     2     -10.269  15.116  67.087  1.00  0.00    -0.247 C  
HETATM    9  O   UNL     2      -9.100  15.964  67.013  1.00  0.00    -0.201 OA 
HETATM   10  H   UNL     2      -8.721  15.948  67.883  1.00  0.00     0.000 HD 
BRANCH   8  11
HETATM   11  C   UNL     2     -11.230  15.539  68.238  1.00  0.00    -0.343 C  
HETATM   12  O   UNL     2     -11.208  16.965  68.442  1.00  0.00    -0.299 OA 
HETATM   13  H   UNL     2     -11.794  17.223  69.145  1.00  0.00     0.000 HD 
BRANCH  11  14
HETATM   14  C   UNL     2     -10.985  14.819  69.576  1.00  0.00    -0.266 C  
HETATM   15  C   UNL     2     -11.837  15.431  70.723  1.00  0.00    -0.353 C  
HETATM   16  O   UNL     2      -9.587  14.827  69.919  1.00  0.00    -0.419 OA 
HETATM   17  H   UNL     2      -9.436  14.382  70.745  1.00  0.00     0.000 HD 
HETATM   18  O   UNL     2     -12.991  15.824  70.367  1.00  0.00    -0.409 OA 
HETATM   19  O   UNL     2     -11.229  15.535  71.826  1.00  0.00    -0.391 OA 
ENDBRANCH  11  14
ENDBRANCH   8  11
ENDBRANCH   2   8
TORSDOF 4
ENDMDL
MODEL       67
REMARK 921   NORMALIZED FREE ENERGY PREDICTED BY IDOCK:   -4.45 KCAL/MOL
REMARK 922        TOTAL FREE ENERGY PREDICTED BY IDOCK:   -6.49 KCAL/MOL
REMARK 923 INTER-LIGAND FREE ENERGY PREDICTED BY IDOCK:   -5.61 KCAL/MOL
REMARK 924 INTRA-LIGAND FREE ENERGY PREDICTED BY IDOCK:   -0.89 KCAL/MOL
REMARK 927      BINDING AFFINITY PREDICTED BY RF-SCORE:    0.00 PKD
ROOT
HETATM    1  K   UNL     1      -8.162  11.715  64.766  1.00  0.00    -0.365 K  
HETATM    2  C   UNL     2      -9.851  11.957  67.971  1.00  0.00    -0.190 C  
HETATM    3  H   UNL     2      -8.252  12.129  66.823  1.00  0.00     0.000 HD 
HETATM    4  O   UNL     2      -8.619  11.459  67.386  1.00  0.00    -0.136 OA 
ENDROOT
BRANCH   2   5
HETATM    5  C   UNL     2     -10.443  10.876  68.880  1.00  0.00    -0.203 C  
HETATM    6  O   UNL     2     -10.853  11.483  70.110  1.00  0.00    -0.384 OA 
HETATM    7  H   UNL     2     -11.220  10.813  70.674  1.00  0.00     0.000 HD 
ENDBRANCH   2   5
BRANCH   2   8
HETATM    8  C   UNL     2     -10.843  12.498  66.910  1.00  0.00    -0.248 C  
HETATM    9  O   UNL     2     -12.141  12.468  67.545  1.00  0.00    -0.453 OA 
HETATM   10  H   UNL     2     -12.749  12.799  66.895  1.00  0.00     0.000 HD 
BRANCH   8  11
HETATM   11  C   UNL     2     -10.501  13.906  66.338  1.00  0.00    -0.284 C  
HETATM   12  O   UNL     2     -11.195  14.946  67.054  1.00  0.00    -0.332 OA 
HETATM   13  H   UNL     2     -10.986  15.805  66.705  1.00  0.00     0.000 HD 
BRANCH  11  14
HETATM   14  C   UNL     2     -10.747  14.062  64.827  1.00  0.00    -0.427 C  
HETATM   15  C   UNL     2     -12.219  13.739  64.447  1.00  0.00    -0.399 C  
HETATM   16  O   UNL     2      -9.834  13.248  64.067  1.00  0.00    -0.741 OA 
HETATM   17  H   UNL     2      -9.986  13.345  63.135  1.00  0.00     0.000 HD 
HETATM   18  O   UNL     2     -13.075  14.099  65.313  1.00  0.00    -0.763 OA 
HETATM   19  O   UNL     2     -12.348  13.082  63.375  1.00  0.00    -0.682 OA 
ENDBRANCH  11  14
ENDBRANCH   8  11
ENDBRANCH   2   8
TORSDOF 4
ENDMDL
MODEL       68
REMARK 921   NORMALIZED FREE ENERGY PREDICTED BY IDOCK:   -4.44 KCAL/MOL
REMARK 922        TOTAL FREE ENERGY PREDICTED BY IDOCK:   -6.49 KCAL/MOL
REMARK 923 INTER-LIGAND FREE ENERGY PREDICTED BY IDOCK:   -5.63 KCAL/MOL
REMARK 924 INTRA-LIGAND FREE ENERGY PREDICTED BY IDOCK:   -0.85 KCAL/MOL
REMARK 927      BINDING AFFINITY PREDICTED BY RF-SCORE:    0.00 PKD
ROOT
HETATM    1  K   UNL     1     -11.181  17.663  69.567  1.00  0.00    -0.334 K  
HETATM    2  C   UNL     2     -11.266  14.310  68.176  1.00  0.00    -0.275 C  
HETATM    3  H   UNL     2     -10.625  16.180  68.189  1.00  0.00     0.000 HD 
HETATM    4  O   UNL     2     -11.323  15.700  67.760  1.00  0.00    -0.326 OA 
ENDROOT
BRANCH   2   5
HETATM    5  C   UNL     2     -12.391  13.536  67.485  1.00  0.00    -0.040 C  
HETATM    6  O   UNL     2     -11.917  12.224  67.162  1.00  0.00    -0.564 OA 
HETATM    7  H   UNL     2     -12.615  11.745  66.734  1.00  0.00     0.000 HD 
ENDBRANCH   2   5
BRANCH   2   8
HETATM    8  C   UNL     2     -11.245  14.146  69.718  1.00  0.00    -0.152 C  
HETATM    9  O   UNL     2      -9.992  14.721  70.150  1.00  0.00    -0.435 OA 
HETATM   10  H   UNL     2      -9.979  14.620  71.094  1.00  0.00     0.000 HD 
BRANCH   8  11
HETATM   11  C   UNL     2     -12.464  14.761  70.467  1.00  0.00    -0.352 C  
HETATM   12  O   UNL     2     -13.088  15.801  69.689  1.00  0.00    -0.405 OA 
HETATM   13  H   UNL     2     -13.831  16.177  70.147  1.00  0.00     0.000 HD 
BRANCH  11  14
HETATM   14  C   UNL     2     -12.151  15.286  71.879  1.00  0.00    -0.381 C  
HETATM   15  C   UNL     2     -13.368  15.130  72.834  1.00  0.00    -0.502 C  
HETATM   16  O   UNL     2     -11.709  16.655  71.837  1.00  0.00    -0.633 OA 
HETATM   17  H   UNL     2     -11.515  16.978  72.709  1.00  0.00     0.000 HD 
HETATM   18  O   UNL     2     -14.057  14.081  72.638  1.00  0.00    -0.651 OA 
HETATM   19  O   UNL     2     -13.553  16.112  73.607  1.00  0.00    -0.584 OA 
ENDBRANCH  11  14
ENDBRANCH   8  11
ENDBRANCH   2   8
TORSDOF 4
ENDMDL
MODEL       69
REMARK 921   NORMALIZED FREE ENERGY PREDICTED BY IDOCK:   -4.44 KCAL/MOL
REMARK 922        TOTAL FREE ENERGY PREDICTED BY IDOCK:   -6.48 KCAL/MOL
REMARK 923 INTER-LIGAND FREE ENERGY PREDICTED BY IDOCK:   -5.40 KCAL/MOL
REMARK 924 INTRA-LIGAND FREE ENERGY PREDICTED BY IDOCK:   -1.08 KCAL/MOL
REMARK 927      BINDING AFFINITY PREDICTED BY RF-SCORE:    0.00 PKD
ROOT
HETATM    1  K   UNL     1     -12.410  11.988  65.230  1.00  0.00    -0.378 K  
HETATM    2  C   UNL     2     -11.131  11.765  68.621  1.00  0.00    -0.238 C  
HETATM    3  H   UNL     2     -11.351  11.060  66.788  1.00  0.00     0.000 HD 
HETATM    4  O   UNL     2     -11.800  10.956  67.617  1.00  0.00    -0.572 OA 
ENDROOT
BRANCH   2   5
HETATM    5  C   UNL     2     -11.855  11.597  69.959  1.00  0.00    -0.355 C  
HETATM    6  O   UNL     2     -11.808  12.840  70.667  1.00  0.00    -0.518 OA 
HETATM    7  H   UNL     2     -12.256  12.736  71.497  1.00  0.00     0.000 HD 
ENDBRANCH   2   5
BRANCH   2   8
HETATM    8  C   UNL     2     -10.958  13.242  68.182  1.00  0.00    -0.255 C  
HETATM    9  O   UNL     2      -9.624  13.614  68.598  1.00  0.00    -0.333 OA 
HETATM   10  H   UNL     2      -9.518  14.518  68.330  1.00  0.00     0.000 HD 
BRANCH   8  11
HETATM   11  C   UNL     2     -11.199  13.517  66.668  1.00  0.00    -0.312 C  
HETATM   12  O   UNL     2     -10.161  12.935  65.857  1.00  0.00    -0.281 OA 
HETATM   13  H   UNL     2     -10.308  13.104  64.933  1.00  0.00     0.000 HD 
BRANCH  11  14
HETATM   14  C   UNL     2     -11.371  15.003  66.305  1.00  0.00    -0.273 C  
HETATM   15  C   UNL     2     -11.794  15.188  64.821  1.00  0.00    -0.291 C  
HETATM   16  O   UNL     2     -10.172  15.747  66.590  1.00  0.00    -0.269 OA 
HETATM   17  H   UNL     2     -10.279  16.664  66.366  1.00  0.00     0.000 HD 
HETATM   18  O   UNL     2     -12.577  14.288  64.384  1.00  0.00    -0.665 OA 
HETATM   19  O   UNL     2     -11.228  16.152  64.234  1.00  0.00    -0.660 OA 
ENDBRANCH  11  14
ENDBRANCH   8  11
ENDBRANCH   2   8
TORSDOF 4
ENDMDL
MODEL       70
REMARK 921   NORMALIZED FREE ENERGY PREDICTED BY IDOCK:   -4.43 KCAL/MOL
REMARK 922        TOTAL FREE ENERGY PREDICTED BY IDOCK:   -6.48 KCAL/MOL
REMARK 923 INTER-LIGAND FREE ENERGY PREDICTED BY IDOCK:   -5.83 KCAL/MOL
REMARK 924 INTRA-LIGAND FREE ENERGY PREDICTED BY IDOCK:   -0.65 KCAL/MOL
REMARK 927      BINDING AFFINITY PREDICTED BY RF-SCORE:    0.00 PKD
ROOT
HETATM    1  K   UNL     1     -11.263  16.527  67.095  1.00  0.00    -0.306 K  
HETATM    2  C   UNL     2     -10.688  13.944  64.610  1.00  0.00    -0.407 C  
HETATM    3  H   UNL     2     -10.549  15.806  65.257  1.00  0.00     0.000 HD 
HETATM    4  O   UNL     2     -11.155  15.314  64.717  1.00  0.00    -0.407 OA 
ENDROOT
BRANCH   2   5
HETATM    5  C   UNL     2     -11.665  13.151  63.739  1.00  0.00    -0.461 C  
HETATM    6  O   UNL     2     -12.447  14.071  62.969  1.00  0.00    -1.101 OA 
HETATM    7  H   UNL     2     -13.053  13.579  62.429  1.00  0.00     0.000 HD 
ENDBRANCH   2   5
BRANCH   2   8
HETATM    8  C   UNL     2     -10.408  13.295  65.990  1.00  0.00    -0.289 C  
HETATM    9  O   UNL     2      -9.430  14.149  66.626  1.00  0.00    -0.269 OA 
HETATM   10  H   UNL     2      -9.259  13.752  67.471  1.00  0.00     0.000 HD 
BRANCH   8  11
HETATM   11  C   UNL     2     -11.664  13.072  66.885  1.00  0.00    -0.383 C  
HETATM   12  O   UNL     2     -12.523  14.229  66.883  1.00  0.00    -0.581 OA 
HETATM   13  H   UNL     2     -13.288  14.092  67.429  1.00  0.00     0.000 HD 
BRANCH  11  14
HETATM   14  C   UNL     2     -11.354  12.657  68.334  1.00  0.00    -0.290 C  
HETATM   15  C   UNL     2     -11.655  11.152  68.579  1.00  0.00    -0.314 C  
HETATM   16  O   UNL     2     -12.072  13.480  69.272  1.00  0.00    -0.322 OA 
HETATM   17  H   UNL     2     -11.880  13.224  70.167  1.00  0.00     0.000 HD 
HETATM   18  O   UNL     2     -11.399  10.399  67.589  1.00  0.00    -0.371 OA 
HETATM   19  O   UNL     2     -12.198  10.904  69.693  1.00  0.00    -0.328 OA 
ENDBRANCH  11  14
ENDBRANCH   8  11
ENDBRANCH   2   8
TORSDOF 4
ENDMDL
MODEL       71
REMARK 921   NORMALIZED FREE ENERGY PREDICTED BY IDOCK:   -4.43 KCAL/MOL
REMARK 922        TOTAL FREE ENERGY PREDICTED BY IDOCK:   -6.48 KCAL/MOL
REMARK 923 INTER-LIGAND FREE ENERGY PREDICTED BY IDOCK:   -5.74 KCAL/MOL
REMARK 924 INTRA-LIGAND FREE ENERGY PREDICTED BY IDOCK:   -0.74 KCAL/MOL
REMARK 927      BINDING AFFINITY PREDICTED BY RF-SCORE:    0.00 PKD
ROOT
HETATM    1  K   UNL     1     -13.153  14.765  69.019  1.00  0.00    -0.530 K  
HETATM    2  C   UNL     2     -10.828  12.253  67.807  1.00  0.00    -0.221 C  
HETATM    3  H   UNL     2     -12.272  12.859  69.013  1.00  0.00     0.000 HD 
HETATM    4  O   UNL     2     -11.324  12.818  69.049  1.00  0.00    -0.264 OA 
ENDROOT
BRANCH   2   5
HETATM    5  C   UNL     2      -9.301  12.186  67.865  1.00  0.00    -0.192 C  
HETATM    6  O   UNL     2      -8.837  13.103  68.861  1.00  0.00    -0.374 OA 
HETATM    7  H   UNL     2      -7.889  13.062  68.897  1.00  0.00     0.000 HD 
ENDBRANCH   2   5
BRANCH   2   8
HETATM    8  C   UNL     2     -11.378  12.984  66.555  1.00  0.00    -0.320 C  
HETATM    9  O   UNL     2     -11.783  14.291  67.018  1.00  0.00    -0.366 OA 
HETATM   10  H   UNL     2     -12.120  14.739  66.251  1.00  0.00     0.000 HD 
BRANCH   8  11
HETATM   11  C   UNL     2     -10.395  13.066  65.349  1.00  0.00    -0.300 C  
HETATM   12  O   UNL     2     -10.001  14.427  65.084  1.00  0.00    -0.500 OA 
HETATM   13  H   UNL     2      -9.402  14.477  64.349  1.00  0.00     0.000 HD 
BRANCH  11  14
HETATM   14  C   UNL     2     -10.909  12.413  64.055  1.00  0.00    -0.397 C  
HETATM   15  C   UNL     2     -12.314  12.949  63.659  1.00  0.00    -0.434 C  
HETATM   16  O   UNL     2     -10.926  10.978  64.170  1.00  0.00    -0.410 OA 
HETATM   17  H   UNL     2     -11.243  10.575  63.371  1.00  0.00     0.000 HD 
HETATM   18  O   UNL     2     -12.497  14.179  63.916  1.00  0.00    -0.730 OA 
HETATM   19  O   UNL     2     -13.105  12.065  63.223  1.00  0.00    -0.701 OA 
ENDBRANCH  11  14
ENDBRANCH   8  11
ENDBRANCH   2   8
TORSDOF 4
ENDMDL
MODEL       72
REMARK 921   NORMALIZED FREE ENERGY PREDICTED BY IDOCK:   -4.42 KCAL/MOL
REMARK 922        TOTAL FREE ENERGY PREDICTED BY IDOCK:   -6.46 KCAL/MOL
REMARK 923 INTER-LIGAND FREE ENERGY PREDICTED BY IDOCK:   -5.59 KCAL/MOL
REMARK 924 INTRA-LIGAND FREE ENERGY PREDICTED BY IDOCK:   -0.87 KCAL/MOL
REMARK 927      BINDING AFFINITY PREDICTED BY RF-SCORE:    0.00 PKD
ROOT
HETATM    1  K   UNL     1     -13.216  16.174  63.529  1.00  0.00    -0.664 K  
HETATM    2  C   UNL     2     -10.982  13.397  64.223  1.00  0.00    -0.369 C  
HETATM    3  H   UNL     2     -12.273  14.355  63.072  1.00  0.00     0.000 HD 
HETATM    4  O   UNL     2     -12.319  13.665  63.723  1.00  0.00    -0.671 OA 
ENDROOT
BRANCH   2   5
HETATM    5  C   UNL     2     -11.057  12.284  65.271  1.00  0.00    -0.316 C  
HETATM    6  O   UNL     2     -12.381  12.252  65.815  1.00  0.00    -0.622 OA 
HETATM    7  H   UNL     2     -12.427  11.562  66.466  1.00  0.00     0.000 HD 
ENDBRANCH   2   5
BRANCH   2   8
HETATM    8  C   UNL     2     -10.258  14.676  64.715  1.00  0.00    -0.167 C  
HETATM    9  O   UNL     2     -10.985  15.780  64.129  1.00  0.00    -0.811 OA 
HETATM   10  H   UNL     2     -10.541  16.564  64.430  1.00  0.00     0.000 HD 
BRANCH   8  11
HETATM   11  C   UNL     2     -10.129  14.813  66.262  1.00  0.00    -0.285 C  
HETATM   12  O   UNL     2     -11.334  15.345  66.844  1.00  0.00    -0.271 OA 
HETATM   13  H   UNL     2     -11.255  15.428  67.788  1.00  0.00     0.000 HD 
BRANCH  11  14
HETATM   14  C   UNL     2      -8.917  15.634  66.734  1.00  0.00    -0.261 C  
HETATM   15  C   UNL     2      -9.071  16.088  68.214  1.00  0.00    -0.191 C  
HETATM   16  O   UNL     2      -8.692  16.767  65.875  1.00  0.00    -0.504 OA 
HETATM   17  H   UNL     2      -7.943  17.273  66.167  1.00  0.00     0.000 HD 
HETATM   18  O   UNL     2      -9.650  15.242  68.963  1.00  0.00    -0.212 OA 
HETATM   19  O   UNL     2      -8.681  17.268  68.440  1.00  0.00    -0.246 OA 
ENDBRANCH  11  14
ENDBRANCH   8  11
ENDBRANCH   2   8
TORSDOF 4
ENDMDL
MODEL       73
REMARK 921   NORMALIZED FREE ENERGY PREDICTED BY IDOCK:   -4.42 KCAL/MOL
REMARK 922        TOTAL FREE ENERGY PREDICTED BY IDOCK:   -6.46 KCAL/MOL
REMARK 923 INTER-LIGAND FREE ENERGY PREDICTED BY IDOCK:   -5.55 KCAL/MOL
REMARK 924 INTRA-LIGAND FREE ENERGY PREDICTED BY IDOCK:   -0.91 KCAL/MOL
REMARK 927      BINDING AFFINITY PREDICTED BY RF-SCORE:    0.00 PKD
ROOT
HETATM    1  K   UNL     1     -12.556  14.518  62.688  1.00  0.00    -0.873 K  
HETATM    2  C   UNL     2     -10.924  15.999  65.574  1.00  0.00    -0.209 C  
HETATM    3  H   UNL     2     -12.114  16.097  63.999  1.00  0.00     0.000 HD 
HETATM    4  O   UNL     2     -11.198  16.274  64.175  1.00  0.00    -0.766 OA 
ENDROOT
BRANCH   2   5
HETATM    5  C   UNL     2      -9.447  16.284  65.857  1.00  0.00    -0.283 C  
HETATM    6  O   UNL     2      -9.348  17.022  67.080  1.00  0.00    -0.229 OA 
HETATM    7  H   UNL     2      -8.432  17.200  67.256  1.00  0.00     0.000 HD 
ENDBRANCH   2   5
BRANCH   2   8
HETATM    8  C   UNL     2     -11.385  14.583  66.008  1.00  0.00    -0.341 C  
HETATM    9  O   UNL     2     -12.548  14.292  65.201  1.00  0.00    -0.513 OA 
HETATM   10  H   UNL     2     -12.830  13.425  65.466  1.00  0.00     0.000 HD 
BRANCH   8  11
HETATM   11  C   UNL     2     -10.300  13.470  65.900  1.00  0.00    -0.299 C  
HETATM   12  O   UNL     2     -10.032  13.130  64.526  1.00  0.00    -0.597 OA 
HETATM   13  H   UNL     2      -9.371  12.451  64.460  1.00  0.00     0.000 HD 
BRANCH  11  14
HETATM   14  C   UNL     2     -10.609  12.193  66.700  1.00  0.00    -0.235 C  
HETATM   15  C   UNL     2      -9.726  10.998  66.242  1.00  0.00    -0.207 C  
HETATM   16  O   UNL     2     -12.006  11.855  66.617  1.00  0.00    -0.601 OA 
HETATM   17  H   UNL     2     -12.196  11.067  67.112  1.00  0.00     0.000 HD 
HETATM   18  O   UNL     2      -8.543  11.319  65.908  1.00  0.00    -0.167 OA 
HETATM   19  O   UNL     2     -10.336   9.894  66.179  1.00  0.00    -0.230 OA 
ENDBRANCH  11  14
ENDBRANCH   8  11
ENDBRANCH   2   8
TORSDOF 4
ENDMDL
MODEL       74
REMARK 921   NORMALIZED FREE ENERGY PREDICTED BY IDOCK:   -4.42 KCAL/MOL
REMARK 922        TOTAL FREE ENERGY PREDICTED BY IDOCK:   -6.46 KCAL/MOL
REMARK 923 INTER-LIGAND FREE ENERGY PREDICTED BY IDOCK:   -5.64 KCAL/MOL
REMARK 924 INTRA-LIGAND FREE ENERGY PREDICTED BY IDOCK:   -0.82 KCAL/MOL
REMARK 927      BINDING AFFINITY PREDICTED BY RF-SCORE:    0.00 PKD
ROOT
HETATM    1  K   UNL     1      -8.290  12.365  65.708  1.00  0.00    -0.381 K  
HETATM    2  C   UNL     2     -11.737  12.163  64.584  1.00  0.00    -0.332 C  
HETATM    3  H   UNL     2     -10.072  11.346  65.268  1.00  0.00     0.000 HD 
HETATM    4  O   UNL     2     -10.459  11.495  64.414  1.00  0.00    -0.280 OA 
ENDROOT
BRANCH   2   5
HETATM    5  C   UNL     2     -12.361  12.403  63.208  1.00  0.00    -0.391 C  
HETATM    6  O   UNL     2     -12.398  13.812  62.958  1.00  0.00    -1.089 OA 
HETATM    7  H   UNL     2     -12.786  13.961  62.104  1.00  0.00     0.000 HD 
ENDBRANCH   2   5
BRANCH   2   8
HETATM    8  C   UNL     2     -11.633  13.440  65.458  1.00  0.00    -0.325 C  
HETATM    9  O   UNL     2     -12.993  13.897  65.636  1.00  0.00    -0.599 OA 
HETATM   10  H   UNL     2     -12.929  14.679  66.171  1.00  0.00     0.000 HD 
BRANCH   8  11
HETATM   11  C   UNL     2     -10.891  13.258  66.816  1.00  0.00    -0.281 C  
HETATM   12  O   UNL     2     -11.817  13.002  67.889  1.00  0.00    -0.344 OA 
HETATM   13  H   UNL     2     -11.365  12.891  68.718  1.00  0.00     0.000 HD 
BRANCH  11  14
HETATM   14  C   UNL     2      -9.959  14.420  67.199  1.00  0.00    -0.253 C  
HETATM   15  C   UNL     2     -10.751  15.731  67.463  1.00  0.00    -0.317 C  
HETATM   16  O   UNL     2      -8.950  14.628  66.193  1.00  0.00    -0.488 OA 
HETATM   17  H   UNL     2      -8.375  15.345  66.430  1.00  0.00     0.000 HD 
HETATM   18  O   UNL     2     -11.881  15.558  68.017  1.00  0.00    -0.277 OA 
HETATM   19  O   UNL     2     -10.202  16.773  67.007  1.00  0.00    -0.281 OA 
ENDBRANCH  11  14
ENDBRANCH   8  11
ENDBRANCH   2   8
TORSDOF 4
ENDMDL
MODEL       75
REMARK 921   NORMALIZED FREE ENERGY PREDICTED BY IDOCK:   -4.41 KCAL/MOL
REMARK 922        TOTAL FREE ENERGY PREDICTED BY IDOCK:   -6.45 KCAL/MOL
REMARK 923 INTER-LIGAND FREE ENERGY PREDICTED BY IDOCK:   -5.33 KCAL/MOL
REMARK 924 INTRA-LIGAND FREE ENERGY PREDICTED BY IDOCK:   -1.12 KCAL/MOL
REMARK 927      BINDING AFFINITY PREDICTED BY RF-SCORE:    0.00 PKD
ROOT
HETATM    1  K   UNL     1     -12.898  14.393  67.847  1.00  0.00    -0.576 K  
HETATM    2  C   UNL     2     -11.770  13.968  64.421  1.00  0.00    -0.397 C  
HETATM    3  H   UNL     2     -12.758  14.946  65.826  1.00  0.00     0.000 HD 
HETATM    4  O   UNL     2     -12.968  14.285  65.178  1.00  0.00    -0.692 OA 
ENDROOT
BRANCH   2   5
HETATM    5  C   UNL     2     -12.109  12.903  63.376  1.00  0.00    -0.530 C  
HETATM    6  O   UNL     2     -13.356  12.293  63.727  1.00  0.00    -0.633 OA 
HETATM    7  H   UNL     2     -13.566  11.632  63.079  1.00  0.00     0.000 HD 
ENDBRANCH   2   5
BRANCH   2   8
HETATM    8  C   UNL     2     -10.568  13.599  65.329  1.00  0.00    -0.346 C  
HETATM    9  O   UNL     2     -10.316  14.774  66.132  1.00  0.00    -0.281 OA 
HETATM   10  H   UNL     2      -9.580  14.548  66.687  1.00  0.00     0.000 HD 
BRANCH   8  11
HETATM   11  C   UNL     2     -10.763  12.322  66.200  1.00  0.00    -0.261 C  
HETATM   12  O   UNL     2     -12.154  12.094  66.495  1.00  0.00    -0.627 OA 
HETATM   13  H   UNL     2     -12.272  11.316  67.027  1.00  0.00     0.000 HD 
BRANCH  11  14
HETATM   14  C   UNL     2      -9.946  12.304  67.504  1.00  0.00    -0.199 C  
HETATM   15  C   UNL     2      -9.863  10.876  68.113  1.00  0.00    -0.175 C  
HETATM   16  O   UNL     2     -10.479  13.237  68.462  1.00  0.00    -0.247 OA 
HETATM   17  H   UNL     2      -9.975  13.226  69.266  1.00  0.00     0.000 HD 
HETATM   18  O   UNL     2      -9.789   9.944  67.253  1.00  0.00    -0.168 OA 
HETATM   19  O   UNL     2      -9.976  10.839  69.370  1.00  0.00    -0.198 OA 
ENDBRANCH  11  14
ENDBRANCH   8  11
ENDBRANCH   2   8
TORSDOF 4
ENDMDL
MODEL       76
REMARK 921   NORMALIZED FREE ENERGY PREDICTED BY IDOCK:   -4.40 KCAL/MOL
REMARK 922        TOTAL FREE ENERGY PREDICTED BY IDOCK:   -6.44 KCAL/MOL
REMARK 923 INTER-LIGAND FREE ENERGY PREDICTED BY IDOCK:   -5.64 KCAL/MOL
REMARK 924 INTRA-LIGAND FREE ENERGY PREDICTED BY IDOCK:   -0.80 KCAL/MOL
REMARK 927      BINDING AFFINITY PREDICTED BY RF-SCORE:    0.00 PKD
ROOT
HETATM    1  K   UNL     1      -8.748  10.607  68.461  1.00  0.00    -0.105 K  
HETATM    2  C   UNL     2     -10.565  13.519  67.276  1.00  0.00    -0.263 C  
HETATM    3  H   UNL     2      -9.047  12.671  68.216  1.00  0.00     0.000 HD 
HETATM    4  O   UNL     2      -9.895  13.020  68.464  1.00  0.00    -0.218 OA 
ENDROOT
BRANCH   2   5
HETATM    5  C   UNL     2     -11.931  14.082  67.675  1.00  0.00    -0.368 C  
HETATM    6  O   UNL     2     -12.520  14.714  66.532  1.00  0.00    -0.379 OA 
HETATM    7  H   UNL     2     -13.367  15.064  66.780  1.00  0.00     0.000 HD 
ENDBRANCH   2   5
BRANCH   2   8
HETATM    8  C   UNL     2     -10.627  12.469  66.137  1.00  0.00    -0.253 C  
HETATM    9  O   UNL     2     -12.024  12.124  66.005  1.00  0.00    -0.578 OA 
HETATM   10  H   UNL     2     -12.062  11.481  65.308  1.00  0.00     0.000 HD 
BRANCH   8  11
HETATM   11  C   UNL     2     -10.003  12.921  64.783  1.00  0.00    -0.129 C  
HETATM   12  O   UNL     2      -9.966  14.357  64.675  1.00  0.00    -0.556 OA 
HETATM   13  H   UNL     2      -9.586  14.633  63.849  1.00  0.00     0.000 HD 
BRANCH  11  14
HETATM   14  C   UNL     2     -10.676  12.323  63.535  1.00  0.00    -0.451 C  
HETATM   15  C   UNL     2     -12.128  12.849  63.356  1.00  0.00    -0.530 C  
HETATM   16  O   UNL     2     -10.656  10.884  63.575  1.00  0.00    -0.540 OA 
HETATM   17  H   UNL     2     -11.072  10.516  62.804  1.00  0.00     0.000 HD 
HETATM   18  O   UNL     2     -12.293  14.060  63.700  1.00  0.00    -0.728 OA 
HETATM   19  O   UNL     2     -12.957  11.972  62.982  1.00  0.00    -0.540 OA 
ENDBRANCH  11  14
ENDBRANCH   8  11
ENDBRANCH   2   8
TORSDOF 4
ENDMDL
MODEL       77
REMARK 921   NORMALIZED FREE ENERGY PREDICTED BY IDOCK:   -4.38 KCAL/MOL
REMARK 922        TOTAL FREE ENERGY PREDICTED BY IDOCK:   -6.41 KCAL/MOL
REMARK 923 INTER-LIGAND FREE ENERGY PREDICTED BY IDOCK:   -5.48 KCAL/MOL
REMARK 924 INTRA-LIGAND FREE ENERGY PREDICTED BY IDOCK:   -0.93 KCAL/MOL
REMARK 927      BINDING AFFINITY PREDICTED BY RF-SCORE:    0.00 PKD
ROOT
HETATM    1  K   UNL     1     -10.726  19.184  69.897  1.00  0.00    -0.547 K  
HETATM    2  C   UNL     2      -8.355  17.888  67.471  1.00  0.00    -0.228 C  
HETATM    3  H   UNL     2      -9.028  18.093  69.319  1.00  0.00     0.000 HD 
HETATM    4  O   UNL     2      -8.392  18.536  68.771  1.00  0.00    -0.313 OA 
ENDROOT
BRANCH   2   5
HETATM    5  C   UNL     2      -7.330  18.602  66.588  1.00  0.00    -0.229 C  
HETATM    6  O   UNL     2      -7.227  17.901  65.343  1.00  0.00    -0.459 OA 
HETATM    7  H   UNL     2      -6.591  18.344  64.795  1.00  0.00     0.000 HD 
ENDBRANCH   2   5
BRANCH   2   8
HETATM    8  C   UNL     2      -9.759  17.760  66.826  1.00  0.00    -0.309 C  
HETATM    9  O   UNL     2      -9.813  18.788  65.812  1.00  0.00    -0.464 OA 
HETATM   10  H   UNL     2     -10.673  18.710  65.417  1.00  0.00     0.000 HD 
BRANCH   8  11
HETATM   11  C   UNL     2     -10.100  16.352  66.253  1.00  0.00    -0.331 C  
HETATM   12  O   UNL     2      -8.996  15.809  65.503  1.00  0.00    -0.258 OA 
HETATM   13  H   UNL     2      -9.204  14.950  65.154  1.00  0.00     0.000 HD 
BRANCH  11  14
HETATM   14  C   UNL     2     -11.381  16.297  65.403  1.00  0.00     0.188 C  
HETATM   15  C   UNL     2     -11.803  14.834  65.090  1.00  0.00    -0.313 C  
HETATM   16  O   UNL     2     -11.230  17.055  64.189  1.00  0.00    -1.286 OA 
HETATM   17  H   UNL     2     -12.021  17.021  63.665  1.00  0.00     0.000 HD 
HETATM   18  O   UNL     2     -11.578  14.011  66.031  1.00  0.00    -0.335 OA 
HETATM   19  O   UNL     2     -12.222  14.653  63.912  1.00  0.00    -0.598 OA 
ENDBRANCH  11  14
ENDBRANCH   8  11
ENDBRANCH   2   8
TORSDOF 4
ENDMDL
MODEL       78
REMARK 921   NORMALIZED FREE ENERGY PREDICTED BY IDOCK:   -4.37 KCAL/MOL
REMARK 922        TOTAL FREE ENERGY PREDICTED BY IDOCK:   -6.41 KCAL/MOL
REMARK 923 INTER-LIGAND FREE ENERGY PREDICTED BY IDOCK:   -5.65 KCAL/MOL
REMARK 924 INTRA-LIGAND FREE ENERGY PREDICTED BY IDOCK:   -0.75 KCAL/MOL
REMARK 927      BINDING AFFINITY PREDICTED BY RF-SCORE:    0.00 PKD
ROOT
HETATM    1  K   UNL     1     -11.148  10.265  66.050  1.00  0.00    -0.164 K  
HETATM    2  C   UNL     2     -12.489  13.594  65.499  1.00  0.00    -0.503 C  
HETATM    3  H   UNL     2     -12.694  11.636  65.677  1.00  0.00     0.000 HD 
HETATM    4  O   UNL     2     -12.570  12.247  64.961  1.00  0.00    -0.575 OA 
ENDROOT
BRANCH   2   5
HETATM    5  C   UNL     2     -12.290  14.579  64.345  1.00  0.00    -0.413 C  
HETATM    6  O   UNL     2     -12.488  13.886  63.108  1.00  0.00    -1.121 OA 
HETATM    7  H   UNL     2     -12.365  14.497  62.392  1.00  0.00     0.000 HD 
ENDBRANCH   2   5
BRANCH   2   8
HETATM    8  C   UNL     2     -11.433  13.726  66.627  1.00  0.00    -0.345 C  
HETATM    9  O   UNL     2     -10.945  15.084  66.540  1.00  0.00    -0.321 OA 
HETATM   10  H   UNL     2     -10.298  15.165  67.231  1.00  0.00     0.000 HD 
BRANCH   8  11
HETATM   11  C   UNL     2     -11.943  13.376  68.057  1.00  0.00    -0.322 C  
HETATM   12  O   UNL     2     -11.676  14.444  68.986  1.00  0.00    -0.275 OA 
HETATM   13  H   UNL     2     -11.986  14.229  69.858  1.00  0.00     0.000 HD 
BRANCH  11  14
HETATM   14  C   UNL     2     -11.405  12.049  68.622  1.00  0.00    -0.277 C  
HETATM   15  C   UNL     2      -9.887  11.875  68.337  1.00  0.00    -0.201 C  
HETATM   16  O   UNL     2     -12.151  10.929  68.111  1.00  0.00    -0.785 OA 
HETATM   17  H   UNL     2     -11.820  10.110  68.460  1.00  0.00     0.000 HD 
HETATM   18  O   UNL     2      -9.218  12.953  68.387  1.00  0.00    -0.198 OA 
HETATM   19  O   UNL     2      -9.550  10.703  68.006  1.00  0.00    -0.153 OA 
ENDBRANCH  11  14
ENDBRANCH   8  11
ENDBRANCH   2   8
TORSDOF 4
ENDMDL
MODEL       79
REMARK 921   NORMALIZED FREE ENERGY PREDICTED BY IDOCK:   -4.37 KCAL/MOL
REMARK 922        TOTAL FREE ENERGY PREDICTED BY IDOCK:   -6.40 KCAL/MOL
REMARK 923 INTER-LIGAND FREE ENERGY PREDICTED BY IDOCK:   -5.54 KCAL/MOL
REMARK 924 INTRA-LIGAND FREE ENERGY PREDICTED BY IDOCK:   -0.86 KCAL/MOL
REMARK 927      BINDING AFFINITY PREDICTED BY RF-SCORE:    0.00 PKD
ROOT
HETATM    1  K   UNL     1     -11.294  17.952  71.194  1.00  0.00    -0.457 K  
HETATM    2  C   UNL     2     -10.092  17.707  67.776  1.00  0.00    -0.338 C  
HETATM    3  H   UNL     2      -9.846  18.151  69.686  1.00  0.00     0.000 HD 
HETATM    4  O   UNL     2     -10.096  18.624  68.902  1.00  0.00    -0.391 OA 
ENDROOT
BRANCH   2   5
HETATM    5  C   UNL     2     -10.495  18.470  66.512  1.00  0.00    -0.398 C  
HETATM    6  O   UNL     2     -10.485  17.563  65.404  1.00  0.00    -0.647 OA 
HETATM    7  H   UNL     2     -10.734  18.036  64.620  1.00  0.00     0.000 HD 
ENDBRANCH   2   5
BRANCH   2   8
HETATM    8  C   UNL     2     -10.937  16.434  68.037  1.00  0.00    -0.327 C  
HETATM    9  O   UNL     2     -10.448  15.448  67.100  1.00  0.00    -0.277 OA 
HETATM   10  H   UNL     2     -10.965  14.668  67.260  1.00  0.00     0.000 HD 
BRANCH   8  11
HETATM   11  C   UNL     2     -10.914  15.912  69.505  1.00  0.00    -0.311 C  
HETATM   12  O   UNL     2      -9.814  15.007  69.723  1.00  0.00    -0.428 OA 
HETATM   13  H   UNL     2      -9.801  14.689  70.618  1.00  0.00     0.000 HD 
BRANCH  11  14
HETATM   14  C   UNL     2     -12.226  15.258  69.974  1.00  0.00    -0.349 C  
HETATM   15  C   UNL     2     -12.119  14.736  71.435  1.00  0.00    -0.344 C  
HETATM   16  O   UNL     2     -12.624  14.199  69.083  1.00  0.00    -0.491 OA 
HETATM   17  H   UNL     2     -13.434  13.796  69.373  1.00  0.00     0.000 HD 
HETATM   18  O   UNL     2     -11.413  15.463  72.200  1.00  0.00    -0.442 OA 
HETATM   19  O   UNL     2     -12.672  13.617  71.630  1.00  0.00    -0.341 OA 
ENDBRANCH  11  14
ENDBRANCH   8  11
ENDBRANCH   2   8
TORSDOF 4
ENDMDL
MODEL       80
REMARK 921   NORMALIZED FREE ENERGY PREDICTED BY IDOCK:   -4.35 KCAL/MOL
REMARK 922        TOTAL FREE ENERGY PREDICTED BY IDOCK:   -6.38 KCAL/MOL
REMARK 923 INTER-LIGAND FREE ENERGY PREDICTED BY IDOCK:   -5.39 KCAL/MOL
REMARK 924 INTRA-LIGAND FREE ENERGY PREDICTED BY IDOCK:   -0.99 KCAL/MOL
REMARK 927      BINDING AFFINITY PREDICTED BY RF-SCORE:    0.00 PKD
ROOT
HETATM    1  K   UNL     1     -13.536  14.291  65.875  1.00  0.00    -0.527 K  
HETATM    2  C   UNL     2     -11.648  12.427  68.354  1.00  0.00    -0.324 C  
HETATM    3  H   UNL     2     -11.936  13.090  66.515  1.00  0.00     0.000 HD 
HETATM    4  O   UNL     2     -12.150  12.301  66.997  1.00  0.00    -0.575 OA 
ENDROOT
BRANCH   2   5
HETATM    5  C   UNL     2     -11.992  11.155  69.132  1.00  0.00    -0.343 C  
HETATM    6  O   UNL     2     -11.898  10.034  68.247  1.00  0.00    -0.590 OA 
HETATM    7  H   UNL     2     -12.112   9.245  68.730  1.00  0.00     0.000 HD 
ENDBRANCH   2   5
BRANCH   2   8
HETATM    8  C   UNL     2     -12.113  13.733  69.047  1.00  0.00    -0.322 C  
HETATM    9  O   UNL     2     -11.778  13.569  70.444  1.00  0.00    -0.498 OA 
HETATM   10  H   UNL     2     -12.063  14.369  70.868  1.00  0.00     0.000 HD 
BRANCH   8  11
HETATM   11  C   UNL     2     -11.525  15.047  68.452  1.00  0.00    -0.323 C  
HETATM   12  O   UNL     2     -11.146  14.875  67.073  1.00  0.00    -0.323 OA 
HETATM   13  H   UNL     2     -10.787  15.676  66.710  1.00  0.00     0.000 HD 
BRANCH  11  14
HETATM   14  C   UNL     2     -10.347  15.639  69.244  1.00  0.00    -0.250 C  
HETATM   15  C   UNL     2      -9.813  16.946  68.592  1.00  0.00    -0.270 C  
HETATM   16  O   UNL     2      -9.288  14.676  69.395  1.00  0.00    -0.400 OA 
HETATM   17  H   UNL     2      -8.560  15.042  69.884  1.00  0.00     0.000 HD 
HETATM   18  O   UNL     2     -10.712  17.675  68.068  1.00  0.00    -0.389 OA 
HETATM   19  O   UNL     2      -8.554  17.053  68.594  1.00  0.00    -0.254 OA 
ENDBRANCH  11  14
ENDBRANCH   8  11
ENDBRANCH   2   8
TORSDOF 4
ENDMDL
MODEL       81
REMARK 921   NORMALIZED FREE ENERGY PREDICTED BY IDOCK:   -4.34 KCAL/MOL
REMARK 922        TOTAL FREE ENERGY PREDICTED BY IDOCK:   -6.37 KCAL/MOL
REMARK 923 INTER-LIGAND FREE ENERGY PREDICTED BY IDOCK:   -5.28 KCAL/MOL
REMARK 924 INTRA-LIGAND FREE ENERGY PREDICTED BY IDOCK:   -1.08 KCAL/MOL
REMARK 927      BINDING AFFINITY PREDICTED BY RF-SCORE:    0.00 PKD
ROOT
HETATM    1  K   UNL     1     -14.281   6.163  72.655  1.00  0.00    -0.552 K  
HETATM    2  C   UNL     2     -12.915   9.503  72.251  1.00  0.00    -0.384 C  
HETATM    3  H   UNL     2     -14.127   8.205  73.118  1.00  0.00     0.000 HD 
HETATM    4  O   UNL     2     -14.188   8.821  72.399  1.00  0.00    -0.458 OA 
ENDROOT
BRANCH   2   5
HETATM    5  C   UNL     2     -13.013  10.496  71.091  1.00  0.00    -0.411 C  
HETATM    6  O   UNL     2     -13.046  11.824  71.623  1.00  0.00    -0.441 OA 
HETATM    7  H   UNL     2     -13.107  12.440  70.904  1.00  0.00     0.000 HD 
ENDBRANCH   2   5
BRANCH   2   8
HETATM    8  C   UNL     2     -11.719   8.522  72.139  1.00  0.00    -0.378 C  
HETATM    9  O   UNL     2     -11.748   7.737  73.353  1.00  0.00    -0.607 OA 
HETATM   10  H   UNL     2     -11.016   7.137  73.284  1.00  0.00     0.000 HD 
BRANCH   8  11
HETATM   11  C   UNL     2     -11.710   7.629  70.862  1.00  0.00    -0.271 C  
HETATM   12  O   UNL     2     -12.920   6.856  70.753  1.00  0.00    -0.506 OA 
HETATM   13  H   UNL     2     -12.915   6.312  69.975  1.00  0.00     0.000 HD 
BRANCH  11  14
HETATM   14  C   UNL     2     -10.488   6.702  70.736  1.00  0.00    -0.216 C  
HETATM   15  C   UNL     2     -10.626   5.729  69.531  1.00  0.00    -0.319 C  
HETATM   16  O   UNL     2     -10.264   5.973  71.956  1.00  0.00    -0.188 OA 
HETATM   17  H   UNL     2      -9.509   5.401  71.878  1.00  0.00     0.000 HD 
HETATM   18  O   UNL     2     -11.205   6.230  68.517  1.00  0.00    -0.352 OA 
HETATM   19  O   UNL     2     -10.227   4.553  69.762  1.00  0.00    -0.201 OA 
ENDBRANCH  11  14
ENDBRANCH   8  11
ENDBRANCH   2   8
TORSDOF 4
ENDMDL
MODEL       82
REMARK 921   NORMALIZED FREE ENERGY PREDICTED BY IDOCK:   -4.32 KCAL/MOL
REMARK 922        TOTAL FREE ENERGY PREDICTED BY IDOCK:   -6.34 KCAL/MOL
REMARK 923 INTER-LIGAND FREE ENERGY PREDICTED BY IDOCK:   -5.79 KCAL/MOL
REMARK 924 INTRA-LIGAND FREE ENERGY PREDICTED BY IDOCK:   -0.56 KCAL/MOL
REMARK 927      BINDING AFFINITY PREDICTED BY RF-SCORE:    0.00 PKD
ROOT
HETATM    1  K   UNL     1      -9.449  15.754  68.133  1.00  0.00    -0.184 K  
HETATM    2  C   UNL     2     -11.686  12.905  67.875  1.00  0.00    -0.357 C  
HETATM    3  H   UNL     2     -11.335  14.832  68.145  1.00  0.00     0.000 HD 
HETATM    4  O   UNL     2     -11.445  14.073  68.704  1.00  0.00    -0.263 OA 
ENDROOT
BRANCH   2   5
HETATM    5  C   UNL     2     -11.863  11.682  68.777  1.00  0.00    -0.325 C  
HETATM    6  O   UNL     2     -11.641  12.076  70.136  1.00  0.00    -0.494 OA 
HETATM    7  H   UNL     2     -11.751  11.317  70.696  1.00  0.00     0.000 HD 
ENDBRANCH   2   5
BRANCH   2   8
HETATM    8  C   UNL     2     -10.611  12.722  66.772  1.00  0.00    -0.252 C  
HETATM    9  O   UNL     2     -10.464  11.293  66.611  1.00  0.00    -0.229 OA 
HETATM   10  H   UNL     2      -9.806  11.180  65.936  1.00  0.00     0.000 HD 
BRANCH   8  11
HETATM   11  C   UNL     2     -10.917  13.437  65.423  1.00  0.00    -0.286 C  
HETATM   12  O   UNL     2      -9.858  13.230  64.468  1.00  0.00    -0.619 OA 
HETATM   13  H   UNL     2     -10.044  13.667  63.644  1.00  0.00     0.000 HD 
BRANCH  11  14
HETATM   14  C   UNL     2     -11.218  14.940  65.547  1.00  0.00    -0.348 C  
HETATM   15  C   UNL     2     -11.863  15.508  64.250  1.00  0.00    -0.173 C  
HETATM   16  O   UNL     2     -10.032  15.680  65.891  1.00  0.00    -0.298 OA 
HETATM   17  H   UNL     2     -10.218  16.608  65.968  1.00  0.00     0.000 HD 
HETATM   18  O   UNL     2     -12.652  14.704  63.663  1.00  0.00    -0.773 OA 
HETATM   19  O   UNL     2     -11.440  16.650  63.915  1.00  0.00    -1.186 OA 
ENDBRANCH  11  14
ENDBRANCH   8  11
ENDBRANCH   2   8
TORSDOF 4
ENDMDL
MODEL       83
REMARK 921   NORMALIZED FREE ENERGY PREDICTED BY IDOCK:   -4.32 KCAL/MOL
REMARK 922        TOTAL FREE ENERGY PREDICTED BY IDOCK:   -6.34 KCAL/MOL
REMARK 923 INTER-LIGAND FREE ENERGY PREDICTED BY IDOCK:   -6.05 KCAL/MOL
REMARK 924 INTRA-LIGAND FREE ENERGY PREDICTED BY IDOCK:   -0.29 KCAL/MOL
REMARK 927      BINDING AFFINITY PREDICTED BY RF-SCORE:    0.00 PKD
ROOT
HETATM    1  K   UNL     1      -8.897  15.085  65.422  1.00  0.00    -0.424 K  
HETATM    2  C   UNL     2     -11.606  12.701  65.016  1.00  0.00    -0.345 C  
HETATM    3  H   UNL     2      -9.692  13.153  65.212  1.00  0.00     0.000 HD 
HETATM    4  O   UNL     2     -10.287  13.003  64.488  1.00  0.00    -0.366 OA 
ENDROOT
BRANCH   2   5
HETATM    5  C   UNL     2     -12.566  12.459  63.849  1.00  0.00    -0.427 C  
HETATM    6  O   UNL     2     -12.055  11.389  63.046  1.00  0.00    -0.934 OA 
HETATM    7  H   UNL     2     -12.651  11.240  62.322  1.00  0.00     0.000 HD 
ENDBRANCH   2   5
BRANCH   2   8
HETATM    8  C   UNL     2     -12.104  13.763  66.029  1.00  0.00    -0.436 C  
HETATM    9  O   UNL     2     -13.451  14.089  65.617  1.00  0.00    -0.713 OA 
HETATM   10  H   UNL     2     -13.756  14.739  66.237  1.00  0.00     0.000 HD 
BRANCH   8  11
HETATM   11  C   UNL     2     -12.035  13.337  67.526  1.00  0.00    -0.324 C  
HETATM   12  O   UNL     2     -12.322  14.444  68.402  1.00  0.00    -0.600 OA 
HETATM   13  H   UNL     2     -12.280  14.184  69.315  1.00  0.00     0.000 HD 
BRANCH  11  14
HETATM   14  C   UNL     2     -10.711  12.674  67.944  1.00  0.00    -0.218 C  
HETATM   15  C   UNL     2     -10.940  11.256  68.539  1.00  0.00    -0.220 C  
HETATM   16  O   UNL     2      -9.986  13.504  68.870  1.00  0.00    -0.410 OA 
HETATM   17  H   UNL     2      -9.169  13.094  69.128  1.00  0.00     0.000 HD 
HETATM   18  O   UNL     2     -11.881  10.603  67.990  1.00  0.00    -0.494 OA 
HETATM   19  O   UNL     2     -10.221  10.990  69.543  1.00  0.00    -0.139 OA 
ENDBRANCH  11  14
ENDBRANCH   8  11
ENDBRANCH   2   8
TORSDOF 4
ENDMDL
MODEL       84
REMARK 921   NORMALIZED FREE ENERGY PREDICTED BY IDOCK:   -4.31 KCAL/MOL
REMARK 922        TOTAL FREE ENERGY PREDICTED BY IDOCK:   -6.33 KCAL/MOL
REMARK 923 INTER-LIGAND FREE ENERGY PREDICTED BY IDOCK:   -5.19 KCAL/MOL
REMARK 924 INTRA-LIGAND FREE ENERGY PREDICTED BY IDOCK:   -1.14 KCAL/MOL
REMARK 927      BINDING AFFINITY PREDICTED BY RF-SCORE:    0.00 PKD
ROOT
HETATM    1  K   UNL     1     -10.745  19.884  70.825  1.00  0.00    -0.807 K  
HETATM    2  C   UNL     2      -8.891  19.160  67.788  1.00  0.00    -0.301 C  
HETATM    3  H   UNL     2      -9.072  19.202  69.756  1.00  0.00     0.000 HD 
HETATM    4  O   UNL     2      -8.716  19.778  69.090  1.00  0.00    -0.185 OA 
ENDROOT
BRANCH   2   5
HETATM    5  C   UNL     2      -8.317  20.088  66.715  1.00  0.00    -0.323 C  
HETATM    6  O   UNL     2      -7.916  19.299  65.590  1.00  0.00    -0.431 OA 
HETATM    7  H   UNL     2      -7.560  19.875  64.924  1.00  0.00     0.000 HD 
ENDBRANCH   2   5
BRANCH   2   8
HETATM    8  C   UNL     2     -10.355  18.724  67.523  1.00  0.00    -0.416 C  
HETATM    9  O   UNL     2     -10.652  19.163  66.178  1.00  0.00    -0.445 OA 
HETATM   10  H   UNL     2     -11.548  18.896  66.016  1.00  0.00     0.000 HD 
BRANCH   8  11
HETATM   11  C   UNL     2     -10.642  17.206  67.722  1.00  0.00    -0.360 C  
HETATM   12  O   UNL     2      -9.768  16.632  68.713  1.00  0.00    -0.236 OA 
HETATM   13  H   UNL     2      -9.942  15.706  68.834  1.00  0.00     0.000 HD 
BRANCH  11  14
HETATM   14  C   UNL     2     -10.586  16.368  66.433  1.00  0.00    -0.236 C  
HETATM   15  C   UNL     2     -10.824  14.858  66.717  1.00  0.00    -0.320 C  
HETATM   16  O   UNL     2      -9.340  16.566  65.740  1.00  0.00    -0.487 OA 
HETATM   17  H   UNL     2      -9.307  16.049  64.944  1.00  0.00     0.000 HD 
HETATM   18  O   UNL     2     -11.663  14.624  67.641  1.00  0.00    -0.350 OA 
HETATM   19  O   UNL     2     -10.082  14.080  66.053  1.00  0.00    -0.295 OA 
ENDBRANCH  11  14
ENDBRANCH   8  11
ENDBRANCH   2   8
TORSDOF 4
ENDMDL
MODEL       85
REMARK 921   NORMALIZED FREE ENERGY PREDICTED BY IDOCK:   -4.31 KCAL/MOL
REMARK 922        TOTAL FREE ENERGY PREDICTED BY IDOCK:   -6.33 KCAL/MOL
REMARK 923 INTER-LIGAND FREE ENERGY PREDICTED BY IDOCK:   -5.63 KCAL/MOL
REMARK 924 INTRA-LIGAND FREE ENERGY PREDICTED BY IDOCK:   -0.70 KCAL/MOL
REMARK 927      BINDING AFFINITY PREDICTED BY RF-SCORE:    0.00 PKD
ROOT
HETATM    1  K   UNL     1     -11.481  13.233  71.285  1.00  0.00    -0.467 K  
HETATM    2  C   UNL     2     -13.008   9.940  71.355  1.00  0.00    -0.407 C  
HETATM    3  H   UNL     2     -13.114  11.913  71.331  1.00  0.00     0.000 HD 
HETATM    4  O   UNL     2     -13.108  11.238  71.998  1.00  0.00    -0.495 OA 
ENDROOT
BRANCH   2   5
HETATM    5  C   UNL     2     -13.000   8.850  72.429  1.00  0.00    -0.404 C  
HETATM    6  O   UNL     2     -14.181   8.982  73.228  1.00  0.00    -1.192 OA 
HETATM    7  H   UNL     2     -14.176   8.307  73.895  1.00  0.00     0.000 HD 
ENDBRANCH   2   5
BRANCH   2   8
HETATM    8  C   UNL     2     -11.820   9.852  70.362  1.00  0.00    -0.234 C  
HETATM    9  O   UNL     2     -11.262  11.185  70.310  1.00  0.00    -0.467 OA 
HETATM   10  H   UNL     2     -10.535  11.131  69.702  1.00  0.00     0.000 HD 
BRANCH   8  11
HETATM   11  C   UNL     2     -10.745   8.779  70.707  1.00  0.00    -0.228 C  
HETATM   12  O   UNL     2      -9.483   9.388  71.040  1.00  0.00    -0.254 OA 
HETATM   13  H   UNL     2      -8.827   8.733  71.250  1.00  0.00     0.000 HD 
BRANCH  11  14
HETATM   14  C   UNL     2     -10.536   7.708  69.622  1.00  0.00    -0.243 C  
HETATM   15  C   UNL     2     -10.177   8.343  68.249  1.00  0.00    -0.205 C  
HETATM   16  O   UNL     2     -11.692   6.858  69.504  1.00  0.00    -0.585 OA 
HETATM   17  H   UNL     2     -11.562   6.197  68.834  1.00  0.00     0.000 HD 
HETATM   18  O   UNL     2      -9.450   9.381  68.326  1.00  0.00    -0.137 OA 
HETATM   19  O   UNL     2     -10.735   7.791  67.258  1.00  0.00    -0.307 OA 
ENDBRANCH  11  14
ENDBRANCH   8  11
ENDBRANCH   2   8
TORSDOF 4
ENDMDL
MODEL       86
REMARK 921   NORMALIZED FREE ENERGY PREDICTED BY IDOCK:   -4.31 KCAL/MOL
REMARK 922        TOTAL FREE ENERGY PREDICTED BY IDOCK:   -6.32 KCAL/MOL
REMARK 923 INTER-LIGAND FREE ENERGY PREDICTED BY IDOCK:   -5.46 KCAL/MOL
REMARK 924 INTRA-LIGAND FREE ENERGY PREDICTED BY IDOCK:   -0.86 KCAL/MOL
REMARK 927      BINDING AFFINITY PREDICTED BY RF-SCORE:    0.00 PKD
ROOT
HETATM    1  K   UNL     1     -13.185  14.673  69.083  1.00  0.00    -0.545 K  
HETATM    2  C   UNL     2     -10.349  16.241  67.446  1.00  0.00    -0.285 C  
HETATM    3  H   UNL     2     -11.357  15.705  69.060  1.00  0.00     0.000 HD 
HETATM    4  O   UNL     2     -11.302  16.481  68.515  1.00  0.00    -0.356 OA 
ENDROOT
BRANCH   2   5
HETATM    5  C   UNL     2     -10.260  17.491  66.568  1.00  0.00    -0.342 C  
HETATM    6  O   UNL     2     -10.091  17.086  65.206  1.00  0.00    -0.558 OA 
HETATM    7  H   UNL     2     -10.036  17.861  64.661  1.00  0.00     0.000 HD 
ENDBRANCH   2   5
BRANCH   2   8
HETATM    8  C   UNL     2     -10.647  14.940  66.658  1.00  0.00    -0.305 C  
HETATM    9  O   UNL     2     -10.075  13.872  67.446  1.00  0.00    -0.240 OA 
HETATM   10  H   UNL     2     -10.257  13.075  66.963  1.00  0.00     0.000 HD 
BRANCH   8  11
HETATM   11  C   UNL     2     -12.150  14.690  66.332  1.00  0.00    -0.212 C  
HETATM   12  O   UNL     2     -12.726  13.719  67.226  1.00  0.00    -0.280 OA 
HETATM   13  H   UNL     2     -13.643  13.567  67.027  1.00  0.00     0.000 HD 
BRANCH  11  14
HETATM   14  C   UNL     2     -12.432  14.287  64.875  1.00  0.00    -0.390 C  
HETATM   15  C   UNL     2     -11.705  12.968  64.490  1.00  0.00    -0.369 C  
HETATM   16  O   UNL     2     -12.078  15.347  63.966  1.00  0.00    -0.909 OA 
HETATM   17  H   UNL     2     -12.253  15.097  63.066  1.00  0.00     0.000 HD 
HETATM   18  O   UNL     2     -11.638  12.114  65.429  1.00  0.00    -0.350 OA 
HETATM   19  O   UNL     2     -11.203  12.967  63.331  1.00  0.00    -0.321 OA 
ENDBRANCH  11  14
ENDBRANCH   8  11
ENDBRANCH   2   8
TORSDOF 4
ENDMDL
MODEL       87
REMARK 921   NORMALIZED FREE ENERGY PREDICTED BY IDOCK:   -4.30 KCAL/MOL
REMARK 922        TOTAL FREE ENERGY PREDICTED BY IDOCK:   -6.31 KCAL/MOL
REMARK 923 INTER-LIGAND FREE ENERGY PREDICTED BY IDOCK:   -5.38 KCAL/MOL
REMARK 924 INTRA-LIGAND FREE ENERGY PREDICTED BY IDOCK:   -0.93 KCAL/MOL
REMARK 927      BINDING AFFINITY PREDICTED BY RF-SCORE:    0.00 PKD
ROOT
HETATM    1  K   UNL     1     -12.274  13.337  68.709  1.00  0.00    -0.279 K  
HETATM    2  C   UNL     2      -9.788  15.516  67.207  1.00  0.00    -0.224 C  
HETATM    3  H   UNL     2     -10.325  13.846  68.118  1.00  0.00     0.000 HD 
HETATM    4  O   UNL     2      -9.996  14.695  68.387  1.00  0.00    -0.214 OA 
ENDROOT
BRANCH   2   5
HETATM    5  C   UNL     2      -9.258  16.885  67.639  1.00  0.00    -0.228 C  
HETATM    6  O   UNL     2      -8.517  17.455  66.555  1.00  0.00    -0.236 OA 
HETATM    7  H   UNL     2      -8.188  18.304  66.824  1.00  0.00     0.000 HD 
ENDBRANCH   2   5
BRANCH   2   8
HETATM    8  C   UNL     2     -11.042  15.587  66.297  1.00  0.00    -0.177 C  
HETATM    9  O   UNL     2     -10.635  16.350  65.139  1.00  0.00    -0.610 OA 
HETATM   10  H   UNL     2     -11.403  16.393  64.582  1.00  0.00     0.000 HD 
BRANCH   8  11
HETATM   11  C   UNL     2     -11.657  14.210  65.907  1.00  0.00    -0.348 C  
HETATM   12  O   UNL     2     -11.219  13.167  66.799  1.00  0.00    -0.282 OA 
HETATM   13  H   UNL     2     -11.594  12.327  66.561  1.00  0.00     0.000 HD 
BRANCH  11  14
HETATM   14  C   UNL     2     -11.407  13.785  64.449  1.00  0.00    -0.360 C  
HETATM   15  C   UNL     2     -12.221  12.515  64.072  1.00  0.00    -0.480 C  
HETATM   16  O   UNL     2     -10.004  13.583  64.202  1.00  0.00    -0.766 OA 
HETATM   17  H   UNL     2      -9.850  13.321  63.302  1.00  0.00     0.000 HD 
HETATM   18  O   UNL     2     -13.370  12.450  64.609  1.00  0.00    -0.778 OA 
HETATM   19  O   UNL     2     -11.589  11.684  63.360  1.00  0.00    -0.395 OA 
ENDBRANCH  11  14
ENDBRANCH   8  11
ENDBRANCH   2   8
TORSDOF 4
ENDMDL
MODEL       88
REMARK 921   NORMALIZED FREE ENERGY PREDICTED BY IDOCK:   -4.30 KCAL/MOL
REMARK 922        TOTAL FREE ENERGY PREDICTED BY IDOCK:   -6.31 KCAL/MOL
REMARK 923 INTER-LIGAND FREE ENERGY PREDICTED BY IDOCK:   -5.80 KCAL/MOL
REMARK 924 INTRA-LIGAND FREE ENERGY PREDICTED BY IDOCK:   -0.51 KCAL/MOL
REMARK 927      BINDING AFFINITY PREDICTED BY RF-SCORE:    0.00 PKD
ROOT
HETATM    1  K   UNL     1      -9.821  18.190  68.338  1.00  0.00    -0.260 K  
HETATM    2  C   UNL     2     -11.595  15.026  68.502  1.00  0.00    -0.326 C  
HETATM    3  H   UNL     2     -11.517  16.967  68.140  1.00  0.00     0.000 HD 
HETATM    4  O   UNL     2     -11.747  16.419  68.880  1.00  0.00    -0.261 OA 
ENDROOT
BRANCH   2   5
HETATM    5  C   UNL     2     -11.967  14.142  69.695  1.00  0.00    -0.336 C  
HETATM    6  O   UNL     2     -11.212  14.567  70.836  1.00  0.00    -0.516 OA 
HETATM    7  H   UNL     2     -11.442  14.019  71.576  1.00  0.00     0.000 HD 
ENDBRANCH   2   5
BRANCH   2   8
HETATM    8  C   UNL     2     -10.199  14.716  67.902  1.00  0.00    -0.226 C  
HETATM    9  O   UNL     2      -9.662  13.644  68.709  1.00  0.00    -0.375 OA 
HETATM   10  H   UNL     2      -8.807  13.454  68.342  1.00  0.00     0.000 HD 
BRANCH   8  11
HETATM   11  C   UNL     2     -10.191  14.370  66.384  1.00  0.00    -0.289 C  
HETATM   12  O   UNL     2      -8.925  14.694  65.778  1.00  0.00    -0.419 OA 
HETATM   13  H   UNL     2      -8.920  14.483  64.851  1.00  0.00     0.000 HD 
BRANCH  11  14
HETATM   14  C   UNL     2     -11.333  15.008  65.574  1.00  0.00    -0.312 C  
HETATM   15  C   UNL     2     -12.307  13.937  65.008  1.00  0.00    -0.430 C  
HETATM   16  O   UNL     2     -10.816  15.836  64.515  1.00  0.00    -0.760 OA 
HETATM   17  H   UNL     2     -11.522  16.231  64.016  1.00  0.00     0.000 HD 
HETATM   18  O   UNL     2     -12.495  12.943  65.776  1.00  0.00    -0.531 OA 
HETATM   19  O   UNL     2     -12.701  14.161  63.829  1.00  0.00    -0.761 OA 
ENDBRANCH  11  14
ENDBRANCH   8  11
ENDBRANCH   2   8
TORSDOF 4
ENDMDL
MODEL       89
REMARK 921   NORMALIZED FREE ENERGY PREDICTED BY IDOCK:   -4.29 KCAL/MOL
REMARK 922        TOTAL FREE ENERGY PREDICTED BY IDOCK:   -6.30 KCAL/MOL
REMARK 923 INTER-LIGAND FREE ENERGY PREDICTED BY IDOCK:   -5.21 KCAL/MOL
REMARK 924 INTRA-LIGAND FREE ENERGY PREDICTED BY IDOCK:   -1.09 KCAL/MOL
REMARK 927      BINDING AFFINITY PREDICTED BY RF-SCORE:    0.00 PKD
ROOT
HETATM    1  K   UNL     1      -9.655  16.772  68.078  1.00  0.00    -0.210 K  
HETATM    2  C   UNL     2     -10.938  15.220  65.056  1.00  0.00    -0.437 C  
HETATM    3  H   UNL     2      -9.569  16.245  66.048  1.00  0.00     0.000 HD 
HETATM    4  O   UNL     2     -10.323  16.455  65.511  1.00  0.00    -0.472 OA 
ENDROOT
BRANCH   2   5
HETATM    5  C   UNL     2     -12.154  15.559  64.191  1.00  0.00    -0.045 C  
HETATM    6  O   UNL     2     -12.504  14.406  63.417  1.00  0.00    -1.109 OA 
HETATM    7  H   UNL     2     -13.258  14.616  62.880  1.00  0.00     0.000 HD 
ENDBRANCH   2   5
BRANCH   2   8
HETATM    8  C   UNL     2     -11.248  14.242  66.218  1.00  0.00    -0.337 C  
HETATM    9  O   UNL     2     -12.681  14.295  66.397  1.00  0.00    -0.524 OA 
HETATM   10  H   UNL     2     -12.870  13.696  67.108  1.00  0.00     0.000 HD 
BRANCH   8  11
HETATM   11  C   UNL     2     -10.735  12.785  66.013  1.00  0.00    -0.272 C  
HETATM   12  O   UNL     2     -11.466  12.113  64.969  1.00  0.00    -0.325 OA 
HETATM   13  H   UNL     2     -11.154  11.225  64.844  1.00  0.00     0.000 HD 
BRANCH  11  14
HETATM   14  C   UNL     2     -10.734  11.920  67.286  1.00  0.00    -0.236 C  
HETATM   15  C   UNL     2     -10.080  10.531  67.038  1.00  0.00    -0.213 C  
HETATM   16  O   UNL     2     -12.067  11.768  67.810  1.00  0.00    -0.595 OA 
HETATM   17  H   UNL     2     -12.066  11.235  68.596  1.00  0.00     0.000 HD 
HETATM   18  O   UNL     2      -9.099  10.551  66.231  1.00  0.00    -0.157 OA 
HETATM   19  O   UNL     2     -10.673   9.568  67.600  1.00  0.00    -0.274 OA 
ENDBRANCH  11  14
ENDBRANCH   8  11
ENDBRANCH   2   8
TORSDOF 4
ENDMDL
MODEL       90
REMARK 921   NORMALIZED FREE ENERGY PREDICTED BY IDOCK:   -4.28 KCAL/MOL
REMARK 922        TOTAL FREE ENERGY PREDICTED BY IDOCK:   -6.30 KCAL/MOL
REMARK 923 INTER-LIGAND FREE ENERGY PREDICTED BY IDOCK:   -5.95 KCAL/MOL
REMARK 924 INTRA-LIGAND FREE ENERGY PREDICTED BY IDOCK:   -0.34 KCAL/MOL
REMARK 927      BINDING AFFINITY PREDICTED BY RF-SCORE:    0.00 PKD
ROOT
HETATM    1  K   UNL     1      -9.155  13.102  65.753  1.00  0.00    -0.361 K  
HETATM    2  C   UNL     2     -10.902  12.794  68.921  1.00  0.00    -0.196 C  
HETATM    3  H   UNL     2      -9.262  13.055  67.849  1.00  0.00     0.000 HD 
HETATM    4  O   UNL     2      -9.709  12.317  68.246  1.00  0.00    -0.214 OA 
ENDROOT
BRANCH   2   5
HETATM    5  C   UNL     2     -11.622  11.605  69.560  1.00  0.00    -0.331 C  
HETATM    6  O   UNL     2     -12.515  11.035  68.597  1.00  0.00    -0.723 OA 
HETATM    7  H   UNL     2     -12.962  10.297  68.994  1.00  0.00     0.000 HD 
ENDBRANCH   2   5
BRANCH   2   8
HETATM    8  C   UNL     2     -11.807  13.655  68.002  1.00  0.00    -0.362 C  
HETATM    9  O   UNL     2     -12.777  14.268  68.880  1.00  0.00    -0.429 OA 
HETATM   10  H   UNL     2     -13.331  14.796  68.318  1.00  0.00     0.000 HD 
BRANCH   8  11
HETATM   11  C   UNL     2     -11.058  14.706  67.129  1.00  0.00    -0.326 C  
HETATM   12  O   UNL     2     -11.301  16.047  67.598  1.00  0.00    -0.244 OA 
HETATM   13  H   UNL     2     -10.844  16.688  67.065  1.00  0.00     0.000 HD 
BRANCH  11  14
HETATM   14  C   UNL     2     -11.357  14.621  65.623  1.00  0.00    -0.338 C  
HETATM   15  C   UNL     2     -11.018  15.950  64.891  1.00  0.00    -0.411 C  
HETATM   16  O   UNL     2     -12.727  14.245  65.388  1.00  0.00    -0.507 OA 
HETATM   17  H   UNL     2     -12.911  14.192  64.457  1.00  0.00     0.000 HD 
HETATM   18  O   UNL     2      -9.997  16.552  65.346  1.00  0.00    -0.552 OA 
HETATM   19  O   UNL     2     -11.859  16.290  64.011  1.00  0.00    -0.958 OA 
ENDBRANCH  11  14
ENDBRANCH   8  11
ENDBRANCH   2   8
TORSDOF 4
ENDMDL
MODEL       91
REMARK 921   NORMALIZED FREE ENERGY PREDICTED BY IDOCK:   -4.28 KCAL/MOL
REMARK 922        TOTAL FREE ENERGY PREDICTED BY IDOCK:   -6.29 KCAL/MOL
REMARK 923 INTER-LIGAND FREE ENERGY PREDICTED BY IDOCK:   -5.39 KCAL/MOL
REMARK 924 INTRA-LIGAND FREE ENERGY PREDICTED BY IDOCK:   -0.90 KCAL/MOL
REMARK 927      BINDING AFFINITY PREDICTED BY RF-SCORE:    0.00 PKD
ROOT
HETATM    1  K   UNL     1      -9.102  11.864  65.006  1.00  0.00    -0.285 K  
HETATM    2  C   UNL     2     -11.375  14.684  65.271  1.00  0.00    -0.354 C  
HETATM    3  H   UNL     2     -10.756  13.014  64.413  1.00  0.00     0.000 HD 
HETATM    4  O   UNL     2     -10.615  13.943  64.279  1.00  0.00    -0.328 OA 
ENDROOT
BRANCH   2   5
HETATM    5  C   UNL     2     -11.148  16.182  65.055  1.00  0.00    -0.294 C  
HETATM    6  O   UNL     2     -11.607  16.533  63.745  1.00  0.00    -1.617 OA 
HETATM    7  H   UNL     2     -11.466  17.463  63.612  1.00  0.00     0.000 HD 
ENDBRANCH   2   5
BRANCH   2   8
HETATM    8  C   UNL     2     -11.094  14.208  66.720  1.00  0.00    -0.310 C  
HETATM    9  O   UNL     2     -12.388  14.132  67.358  1.00  0.00    -0.567 OA 
HETATM   10  H   UNL     2     -12.216  13.841  68.245  1.00  0.00     0.000 HD 
BRANCH   8  11
HETATM   11  C   UNL     2     -10.301  12.872  66.838  1.00  0.00    -0.243 C  
HETATM   12  O   UNL     2     -11.083  11.755  66.375  1.00  0.00    -0.287 OA 
HETATM   13  H   UNL     2     -10.599  10.940  66.448  1.00  0.00     0.000 HD 
BRANCH  11  14
HETATM   14  C   UNL     2      -9.750  12.575  68.243  1.00  0.00    -0.220 C  
HETATM   15  C   UNL     2      -8.997  11.216  68.291  1.00  0.00    -0.166 C  
HETATM   16  O   UNL     2     -10.799  12.611  69.229  1.00  0.00    -0.419 OA 
HETATM   17  H   UNL     2     -10.459  12.428  70.096  1.00  0.00     0.000 HD 
HETATM   18  O   UNL     2      -8.346  10.940  67.236  1.00  0.00    -0.120 OA 
HETATM   19  O   UNL     2      -9.214  10.536  69.334  1.00  0.00    -0.184 OA 
ENDBRANCH  11  14
ENDBRANCH   8  11
ENDBRANCH   2   8
TORSDOF 4
ENDMDL
MODEL       92
REMARK 921   NORMALIZED FREE ENERGY PREDICTED BY IDOCK:   -4.28 KCAL/MOL
REMARK 922        TOTAL FREE ENERGY PREDICTED BY IDOCK:   -6.29 KCAL/MOL
REMARK 923 INTER-LIGAND FREE ENERGY PREDICTED BY IDOCK:   -5.37 KCAL/MOL
REMARK 924 INTRA-LIGAND FREE ENERGY PREDICTED BY IDOCK:   -0.92 KCAL/MOL
REMARK 927      BINDING AFFINITY PREDICTED BY RF-SCORE:    0.00 PKD
ROOT
HETATM    1  K   UNL     1     -10.546  14.315  70.728  1.00  0.00    -0.454 K  
HETATM    2  C   UNL     2     -12.591  11.323  70.510  1.00  0.00    -0.246 C  
HETATM    3  H   UNL     2     -12.365  13.286  70.524  1.00  0.00     0.000 HD 
HETATM    4  O   UNL     2     -12.561  12.617  71.168  1.00  0.00    -0.366 OA 
ENDROOT
BRANCH   2   5
HETATM    5  C   UNL     2     -12.908  10.244  71.548  1.00  0.00    -0.452 C  
HETATM    6  O   UNL     2     -13.518   9.132  70.884  1.00  0.00    -0.562 OA 
HETATM    7  H   UNL     2     -13.715   8.462  71.528  1.00  0.00     0.000 HD 
ENDBRANCH   2   5
BRANCH   2   8
HETATM    8  C   UNL     2     -11.311  11.041  69.682  1.00  0.00    -0.292 C  
HETATM    9  O   UNL     2     -11.512   9.737  69.091  1.00  0.00    -0.457 OA 
HETATM   10  H   UNL     2     -10.729   9.565  68.585  1.00  0.00     0.000 HD 
BRANCH   8  11
HETATM   11  C   UNL     2     -10.959  12.121  68.616  1.00  0.00    -0.245 C  
HETATM   12  O   UNL     2      -9.929  13.010  69.089  1.00  0.00    -0.400 OA 
HETATM   13  H   UNL     2      -9.715  13.669  68.438  1.00  0.00     0.000 HD 
BRANCH  11  14
HETATM   14  C   UNL     2     -12.160  12.940  68.111  1.00  0.00    -0.136 C  
HETATM   15  C   UNL     2     -12.187  13.026  66.559  1.00  0.00    -0.246 C  
HETATM   16  O   UNL     2     -12.171  14.256  68.695  1.00  0.00    -0.529 OA 
HETATM   17  H   UNL     2     -12.913  14.761  68.383  1.00  0.00     0.000 HD 
HETATM   18  O   UNL     2     -11.788  11.975  65.969  1.00  0.00    -0.522 OA 
HETATM   19  O   UNL     2     -12.513  14.160  66.106  1.00  0.00    -0.466 OA 
ENDBRANCH  11  14
ENDBRANCH   8  11
ENDBRANCH   2   8
TORSDOF 4
ENDMDL
MODEL       93
REMARK 921   NORMALIZED FREE ENERGY PREDICTED BY IDOCK:   -4.27 KCAL/MOL
REMARK 922        TOTAL FREE ENERGY PREDICTED BY IDOCK:   -6.28 KCAL/MOL
REMARK 923 INTER-LIGAND FREE ENERGY PREDICTED BY IDOCK:   -5.30 KCAL/MOL
REMARK 924 INTRA-LIGAND FREE ENERGY PREDICTED BY IDOCK:   -0.98 KCAL/MOL
REMARK 927      BINDING AFFINITY PREDICTED BY RF-SCORE:    0.00 PKD
ROOT
HETATM    1  K   UNL     1      -7.969  12.671  65.784  1.00  0.00    -0.247 K  
HETATM    2  C   UNL     2     -11.476  13.324  65.110  1.00  0.00    -0.295 C  
HETATM    3  H   UNL     2      -9.852  12.206  64.980  1.00  0.00     0.000 HD 
HETATM    4  O   UNL     2     -10.271  12.867  64.443  1.00  0.00    -0.362 OA 
ENDROOT
BRANCH   2   5
HETATM    5  C   UNL     2     -12.152  14.390  64.244  1.00  0.00    -0.436 C  
HETATM    6  O   UNL     2     -11.390  15.599  64.324  1.00  0.00    -0.731 OA 
HETATM    7  H   UNL     2     -11.809  16.260  63.787  1.00  0.00     0.000 HD 
ENDBRANCH   2   5
BRANCH   2   8
HETATM    8  C   UNL     2     -11.218  13.774  66.572  1.00  0.00    -0.312 C  
HETATM    9  O   UNL     2     -12.456  14.374  67.015  1.00  0.00    -0.579 OA 
HETATM   10  H   UNL     2     -12.298  14.650  67.910  1.00  0.00     0.000 HD 
BRANCH   8  11
HETATM   11  C   UNL     2     -10.732  12.651  67.536  1.00  0.00    -0.225 C  
HETATM   12  O   UNL     2      -9.863  11.720  66.862  1.00  0.00    -0.199 OA 
HETATM   13  H   UNL     2      -9.567  11.035  67.450  1.00  0.00     0.000 HD 
BRANCH  11  14
HETATM   14  C   UNL     2     -11.859  11.885  68.250  1.00  0.00    -0.277 C  
HETATM   15  C   UNL     2     -11.945  12.258  69.757  1.00  0.00    -0.295 C  
HETATM   16  O   UNL     2     -11.705  10.463  68.085  1.00  0.00    -0.714 OA 
HETATM   17  H   UNL     2     -12.401   9.991  68.525  1.00  0.00     0.000 HD 
HETATM   18  O   UNL     2     -11.686  13.475  70.010  1.00  0.00    -0.286 OA 
HETATM   19  O   UNL     2     -12.167  11.279  70.524  1.00  0.00    -0.337 OA 
ENDBRANCH  11  14
ENDBRANCH   8  11
ENDBRANCH   2   8
TORSDOF 4
ENDMDL
MODEL       94
REMARK 921   NORMALIZED FREE ENERGY PREDICTED BY IDOCK:   -4.24 KCAL/MOL
REMARK 922        TOTAL FREE ENERGY PREDICTED BY IDOCK:   -6.24 KCAL/MOL
REMARK 923 INTER-LIGAND FREE ENERGY PREDICTED BY IDOCK:   -5.17 KCAL/MOL
REMARK 924 INTRA-LIGAND FREE ENERGY PREDICTED BY IDOCK:   -1.07 KCAL/MOL
REMARK 927      BINDING AFFINITY PREDICTED BY RF-SCORE:    0.00 PKD
ROOT
HETATM    1  K   UNL     1     -10.604  11.667  64.914  1.00  0.00    -0.237 K  
HETATM    2  C   UNL     2     -11.997  13.730  67.557  1.00  0.00    -0.376 C  
HETATM    3  H   UNL     2     -12.131  12.780  65.829  1.00  0.00     0.000 HD 
HETATM    4  O   UNL     2     -11.919  13.662  66.108  1.00  0.00    -0.370 OA 
ENDROOT
BRANCH   2   5
HETATM    5  C   UNL     2     -11.656  15.152  68.008  1.00  0.00    -0.328 C  
HETATM    6  O   UNL     2     -12.263  15.389  69.283  1.00  0.00    -0.537 OA 
HETATM    7  H   UNL     2     -12.052  16.271  69.563  1.00  0.00     0.000 HD 
ENDBRANCH   2   5
BRANCH   2   8
HETATM    8  C   UNL     2     -11.156  12.630  68.255  1.00  0.00    -0.261 C  
HETATM    9  O   UNL     2      -9.965  13.298  68.728  1.00  0.00    -0.394 OA 
HETATM   10  H   UNL     2      -9.450  12.625  69.156  1.00  0.00     0.000 HD 
BRANCH   8  11
HETATM   11  C   UNL     2     -11.888  11.857  69.393  1.00  0.00    -0.327 C  
HETATM   12  O   UNL     2     -11.991  12.656  70.588  1.00  0.00    -0.510 OA 
HETATM   13  H   UNL     2     -12.437  12.184  71.282  1.00  0.00     0.000 HD 
BRANCH  11  14
HETATM   14  C   UNL     2     -11.276  10.488  69.734  1.00  0.00    -0.298 C  
HETATM   15  C   UNL     2     -11.941   9.857  70.990  1.00  0.00    -0.365 C  
HETATM   16  O   UNL     2      -9.850  10.586  69.908  1.00  0.00    -0.420 OA 
HETATM   17  H   UNL     2      -9.473   9.740  70.119  1.00  0.00     0.000 HD 
HETATM   18  O   UNL     2     -13.185  10.089  71.096  1.00  0.00    -0.384 OA 
HETATM   19  O   UNL     2     -11.134   9.283  71.774  1.00  0.00    -0.364 OA 
ENDBRANCH  11  14
ENDBRANCH   8  11
ENDBRANCH   2   8
TORSDOF 4
ENDMDL
MODEL       95
REMARK 921   NORMALIZED FREE ENERGY PREDICTED BY IDOCK:   -4.23 KCAL/MOL
REMARK 922        TOTAL FREE ENERGY PREDICTED BY IDOCK:   -6.23 KCAL/MOL
REMARK 923 INTER-LIGAND FREE ENERGY PREDICTED BY IDOCK:   -5.36 KCAL/MOL
REMARK 924 INTRA-LIGAND FREE ENERGY PREDICTED BY IDOCK:   -0.87 KCAL/MOL
REMARK 927      BINDING AFFINITY PREDICTED BY RF-SCORE:    0.00 PKD
ROOT
HETATM    1  K   UNL     1     -11.610  11.371  68.315  1.00  0.00    -0.192 K  
HETATM    2  C   UNL     2     -12.473  13.500  65.504  1.00  0.00    -0.491 C  
HETATM    3  H   UNL     2     -12.767  11.918  66.651  1.00  0.00     0.000 HD 
HETATM    4  O   UNL     2     -12.307  12.097  65.841  1.00  0.00    -0.561 OA 
ENDROOT
BRANCH   2   5
HETATM    5  C   UNL     2     -11.731  13.790  64.197  1.00  0.00    -0.364 C  
HETATM    6  O   UNL     2     -12.691  13.930  63.144  1.00  0.00    -0.924 OA 
HETATM    7  H   UNL     2     -12.231  14.110  62.333  1.00  0.00     0.000 HD 
ENDBRANCH   2   5
BRANCH   2   8
HETATM    8  C   UNL     2     -12.086  14.447  66.669  1.00  0.00    -0.367 C  
HETATM    9  O   UNL     2     -12.240  13.660  67.872  1.00  0.00    -0.358 OA 
HETATM   10  H   UNL     2     -12.003  14.240  68.586  1.00  0.00     0.000 HD 
BRANCH   8  11
HETATM   11  C   UNL     2     -10.669  15.086  66.562  1.00  0.00    -0.312 C  
HETATM   12  O   UNL     2      -9.641  14.152  66.947  1.00  0.00    -0.250 OA 
HETATM   13  H   UNL     2      -8.777  14.542  66.882  1.00  0.00     0.000 HD 
BRANCH  11  14
HETATM   14  C   UNL     2     -10.497  16.399  67.344  1.00  0.00    -0.309 C  
HETATM   15  C   UNL     2      -9.099  17.036  67.101  1.00  0.00    -0.223 C  
HETATM   16  O   UNL     2     -10.726  16.198  68.751  1.00  0.00    -0.259 OA 
HETATM   17  H   UNL     2     -10.620  17.009  69.234  1.00  0.00     0.000 HD 
HETATM   18  O   UNL     2      -8.655  16.887  65.920  1.00  0.00    -0.514 OA 
HETATM   19  O   UNL     2      -8.564  17.529  68.133  1.00  0.00    -0.242 OA 
ENDBRANCH  11  14
ENDBRANCH   8  11
ENDBRANCH   2   8
TORSDOF 4
ENDMDL
MODEL       96
REMARK 921   NORMALIZED FREE ENERGY PREDICTED BY IDOCK:   -4.23 KCAL/MOL
REMARK 922        TOTAL FREE ENERGY PREDICTED BY IDOCK:   -6.23 KCAL/MOL
REMARK 923 INTER-LIGAND FREE ENERGY PREDICTED BY IDOCK:   -5.37 KCAL/MOL
REMARK 924 INTRA-LIGAND FREE ENERGY PREDICTED BY IDOCK:   -0.86 KCAL/MOL
REMARK 927      BINDING AFFINITY PREDICTED BY RF-SCORE:    0.00 PKD
ROOT
HETATM    1  K   UNL     1      -8.255  14.437  65.956  1.00  0.00    -0.373 K  
HETATM    2  C   UNL     2     -11.397  12.825  65.111  1.00  0.00    -0.311 C  
HETATM    3  H   UNL     2      -9.493  12.771  65.639  1.00  0.00     0.000 HD 
HETATM    4  O   UNL     2      -9.977  12.737  64.823  1.00  0.00    -0.231 OA 
ENDROOT
BRANCH   2   5
HETATM    5  C   UNL     2     -12.177  12.769  63.796  1.00  0.00    -0.489 C  
HETATM    6  O   UNL     2     -12.484  14.106  63.386  1.00  0.00    -1.122 OA 
HETATM    7  H   UNL     2     -12.968  14.072  62.570  1.00  0.00     0.000 HD 
ENDBRANCH   2   5
BRANCH   2   8
HETATM    8  C   UNL     2     -11.754  14.043  66.002  1.00  0.00    -0.369 C  
HETATM    9  O   UNL     2     -13.184  13.970  66.200  1.00  0.00    -0.415 OA 
HETATM   10  H   UNL     2     -13.402  14.716  66.745  1.00  0.00     0.000 HD 
BRANCH   8  11
HETATM   11  C   UNL     2     -10.977  14.130  67.350  1.00  0.00    -0.299 C  
HETATM   12  O   UNL     2     -11.300  13.023  68.214  1.00  0.00    -0.251 OA 
HETATM   13  H   UNL     2     -10.827  13.076  69.036  1.00  0.00     0.000 HD 
BRANCH  11  14
HETATM   14  C   UNL     2     -11.160  15.454  68.112  1.00  0.00    -0.309 C  
HETATM   15  C   UNL     2     -10.151  15.586  69.287  1.00  0.00    -0.256 C  
HETATM   16  O   UNL     2     -12.513  15.598  68.583  1.00  0.00    -0.483 OA 
HETATM   17  H   UNL     2     -12.625  16.416  69.053  1.00  0.00     0.000 HD 
HETATM   18  O   UNL     2      -9.005  15.092  69.052  1.00  0.00    -0.197 OA 
HETATM   19  O   UNL     2     -10.641  16.081  70.341  1.00  0.00    -0.262 OA 
ENDBRANCH  11  14
ENDBRANCH   8  11
ENDBRANCH   2   8
TORSDOF 4
ENDMDL
MODEL       97
REMARK 921   NORMALIZED FREE ENERGY PREDICTED BY IDOCK:   -4.22 KCAL/MOL
REMARK 922        TOTAL FREE ENERGY PREDICTED BY IDOCK:   -6.22 KCAL/MOL
REMARK 923 INTER-LIGAND FREE ENERGY PREDICTED BY IDOCK:   -5.49 KCAL/MOL
REMARK 924 INTRA-LIGAND FREE ENERGY PREDICTED BY IDOCK:   -0.73 KCAL/MOL
REMARK 927      BINDING AFFINITY PREDICTED BY RF-SCORE:    0.00 PKD
ROOT
HETATM    1  K   UNL     1     -10.037  11.517  67.208  1.00  0.00    -0.182 K  
HETATM    2  C   UNL     2     -12.004  13.535  64.918  1.00  0.00    -0.379 C  
HETATM    3  H   UNL     2     -11.819  12.381  66.512  1.00  0.00     0.000 HD 
HETATM    4  O   UNL     2     -12.037  12.252  65.597  1.00  0.00    -0.557 OA 
ENDROOT
BRANCH   2   5
HETATM    5  C   UNL     2     -12.355  13.328  63.443  1.00  0.00    -0.324 C  
HETATM    6  O   UNL     2     -12.265  11.932  63.140  1.00  0.00    -0.792 OA 
HETATM    7  H   UNL     2     -12.483  11.803  62.225  1.00  0.00     0.000 HD 
ENDBRANCH   2   5
BRANCH   2   8
HETATM    8  C   UNL     2     -10.673  14.299  65.146  1.00  0.00    -0.394 C  
HETATM    9  O   UNL     2     -10.801  15.528  64.395  1.00  0.00    -0.674 OA 
HETATM   10  H   UNL     2      -9.986  15.995  64.534  1.00  0.00     0.000 HD 
BRANCH   8  11
HETATM   11  C   UNL     2     -10.302  14.557  66.636  1.00  0.00    -0.274 C  
HETATM   12  O   UNL     2      -9.309  13.621  67.100  1.00  0.00    -0.222 OA 
HETATM   13  H   UNL     2      -9.083  13.779  68.009  1.00  0.00     0.000 HD 
BRANCH  11  14
HETATM   14  C   UNL     2     -11.499  14.565  67.603  1.00  0.00    -0.353 C  
HETATM   15  C   UNL     2     -11.457  15.790  68.560  1.00  0.00    -0.379 C  
HETATM   16  O   UNL     2     -11.569  13.337  68.351  1.00  0.00    -0.292 OA 
HETATM   17  H   UNL     2     -12.308  13.342  68.948  1.00  0.00     0.000 HD 
HETATM   18  O   UNL     2     -11.006  16.853  68.031  1.00  0.00    -0.354 OA 
HETATM   19  O   UNL     2     -11.790  15.532  69.751  1.00  0.00    -0.316 OA 
ENDBRANCH  11  14
ENDBRANCH   8  11
ENDBRANCH   2   8
TORSDOF 4
ENDMDL
MODEL       98
REMARK 921   NORMALIZED FREE ENERGY PREDICTED BY IDOCK:   -4.21 KCAL/MOL
REMARK 922        TOTAL FREE ENERGY PREDICTED BY IDOCK:   -6.21 KCAL/MOL
REMARK 923 INTER-LIGAND FREE ENERGY PREDICTED BY IDOCK:   -5.14 KCAL/MOL
REMARK 924 INTRA-LIGAND FREE ENERGY PREDICTED BY IDOCK:   -1.07 KCAL/MOL
REMARK 927      BINDING AFFINITY PREDICTED BY RF-SCORE:    0.00 PKD
ROOT
HETATM    1  K   UNL     1      -8.251  11.721  65.015  1.00  0.00    -0.362 K  
HETATM    2  C   UNL     2     -11.698  12.837  64.786  1.00  0.00    -0.352 C  
HETATM    3  H   UNL     2     -10.211  11.642  64.268  1.00  0.00     0.000 HD 
HETATM    4  O   UNL     2     -10.585  12.450  63.938  1.00  0.00    -0.370 OA 
ENDROOT
BRANCH   2   5
HETATM    5  C   UNL     2     -12.300  14.139  64.254  1.00  0.00    -0.365 C  
HETATM    6  O   UNL     2     -12.499  14.011  62.842  1.00  0.00    -1.028 OA 
HETATM    7  H   UNL     2     -12.873  14.820  62.512  1.00  0.00     0.000 HD 
ENDBRANCH   2   5
BRANCH   2   8
HETATM    8  C   UNL     2     -11.319  12.888  66.289  1.00  0.00    -0.323 C  
HETATM    9  O   UNL     2     -10.766  11.587  66.592  1.00  0.00    -0.245 OA 
HETATM   10  H   UNL     2     -10.534  11.618  67.511  1.00  0.00     0.000 HD 
BRANCH   8  11
HETATM   11  C   UNL     2     -10.355  14.044  66.691  1.00  0.00    -0.278 C  
HETATM   12  O   UNL     2      -9.059  13.882  66.083  1.00  0.00    -0.485 OA 
HETATM   13  H   UNL     2      -8.471  14.587  66.328  1.00  0.00     0.000 HD 
BRANCH  11  14
HETATM   14  C   UNL     2     -10.195  14.248  68.207  1.00  0.00    -0.244 C  
HETATM   15  C   UNL     2      -9.435  15.564  68.534  1.00  0.00    -0.200 C  
HETATM   16  O   UNL     2      -9.543  13.119  68.816  1.00  0.00    -0.399 OA 
HETATM   17  H   UNL     2      -9.445  13.245  69.753  1.00  0.00     0.000 HD 
HETATM   18  O   UNL     2      -9.688  16.526  67.744  1.00  0.00    -0.231 OA 
HETATM   19  O   UNL     2      -8.605  15.465  69.481  1.00  0.00    -0.257 OA 
ENDBRANCH  11  14
ENDBRANCH   8  11
ENDBRANCH   2   8
TORSDOF 4
ENDMDL
MODEL       99
REMARK 921   NORMALIZED FREE ENERGY PREDICTED BY IDOCK:   -4.20 KCAL/MOL
REMARK 922        TOTAL FREE ENERGY PREDICTED BY IDOCK:   -6.19 KCAL/MOL
REMARK 923 INTER-LIGAND FREE ENERGY PREDICTED BY IDOCK:   -5.52 KCAL/MOL
REMARK 924 INTRA-LIGAND FREE ENERGY PREDICTED BY IDOCK:   -0.68 KCAL/MOL
REMARK 927      BINDING AFFINITY PREDICTED BY RF-SCORE:    0.00 PKD
ROOT
HETATM    1  K   UNL     1      -7.904  11.233  64.499  1.00  0.00    -0.352 K  
HETATM    2  C   UNL     2     -11.465  11.900  64.743  1.00  0.00    -0.260 C  
HETATM    3  H   UNL     2      -9.914  10.675  64.742  1.00  0.00     0.000 HD 
HETATM    4  O   UNL     2     -10.534  10.991  64.097  1.00  0.00    -0.345 OA 
ENDROOT
BRANCH   2   5
HETATM    5  C   UNL     2     -12.466  12.410  63.704  1.00  0.00    -0.508 C  
HETATM    6  O   UNL     2     -12.673  11.386  62.724  1.00  0.00    -0.927 OA 
HETATM    7  H   UNL     2     -13.294  11.703  62.079  1.00  0.00     0.000 HD 
ENDBRANCH   2   5
BRANCH   2   8
HETATM    8  C   UNL     2     -10.751  13.027  65.534  1.00  0.00    -0.281 C  
HETATM    9  O   UNL     2      -9.414  13.093  64.989  1.00  0.00    -0.422 OA 
HETATM   10  H   UNL     2      -8.977  13.783  65.473  1.00  0.00     0.000 HD 
BRANCH   8  11
HETATM   11  C   UNL     2     -11.465  14.411  65.507  1.00  0.00    -0.340 C  
HETATM   12  O   UNL     2     -10.871  15.290  64.532  1.00  0.00    -0.634 OA 
HETATM   13  H   UNL     2     -11.306  16.135  64.516  1.00  0.00     0.000 HD 
BRANCH  11  14
HETATM   14  C   UNL     2     -11.541  15.121  66.869  1.00  0.00    -0.156 C  
HETATM   15  C   UNL     2     -10.129  15.344  67.482  1.00  0.00    -0.233 C  
HETATM   16  O   UNL     2     -12.384  14.398  67.784  1.00  0.00    -0.620 OA 
HETATM   17  H   UNL     2     -12.431  14.837  68.626  1.00  0.00     0.000 HD 
HETATM   18  O   UNL     2      -9.224  15.606  66.630  1.00  0.00    -0.225 OA 
HETATM   19  O   UNL     2     -10.063  15.141  68.727  1.00  0.00    -0.212 OA 
ENDBRANCH  11  14
ENDBRANCH   8  11
ENDBRANCH   2   8
TORSDOF 4
ENDMDL
MODEL      100
REMARK 921   NORMALIZED FREE ENERGY PREDICTED BY IDOCK:   -4.20 KCAL/MOL
REMARK 922        TOTAL FREE ENERGY PREDICTED BY IDOCK:   -6.19 KCAL/MOL
REMARK 923 INTER-LIGAND FREE ENERGY PREDICTED BY IDOCK:   -5.11 KCAL/MOL
REMARK 924 INTRA-LIGAND FREE ENERGY PREDICTED BY IDOCK:   -1.08 KCAL/MOL
REMARK 927      BINDING AFFINITY PREDICTED BY RF-SCORE:    0.00 PKD
ROOT
HETATM    1  K   UNL     1     -10.222   6.216  70.477  1.00  0.00    -0.167 K  
HETATM    2  C   UNL     2     -12.166   8.592  72.417  1.00  0.00    -0.366 C  
HETATM    3  H   UNL     2     -11.261   6.850  72.188  1.00  0.00     0.000 HD 
HETATM    4  O   UNL     2     -12.141   7.184  72.064  1.00  0.00    -0.299 OA 
ENDROOT
BRANCH   2   5
HETATM    5  C   UNL     2     -13.584   9.131  72.218  1.00  0.00    -0.489 C  
HETATM    6  O   UNL     2     -14.353   8.848  73.392  1.00  0.00    -1.192 OA 
HETATM    7  H   UNL     2     -15.233   9.182  73.269  1.00  0.00     0.000 HD 
ENDBRANCH   2   5
BRANCH   2   8
HETATM    8  C   UNL     2     -11.073   9.413  71.683  1.00  0.00    -0.339 C  
HETATM    9  O   UNL     2      -9.820   8.778  72.023  1.00  0.00    -0.300 OA 
HETATM   10  H   UNL     2      -9.152   9.280  71.575  1.00  0.00     0.000 HD 
BRANCH   8  11
HETATM   11  C   UNL     2     -11.266   9.546  70.143  1.00  0.00    -0.234 C  
HETATM   12  O   UNL     2     -11.120   8.274  69.484  1.00  0.00    -0.433 OA 
HETATM   13  H   UNL     2     -11.237   8.355  68.544  1.00  0.00     0.000 HD 
BRANCH  11  14
HETATM   14  C   UNL     2     -10.354  10.587  69.471  1.00  0.00    -0.221 C  
HETATM   15  C   UNL     2     -10.761  10.839  67.991  1.00  0.00    -0.228 C  
HETATM   16  O   UNL     2      -8.971  10.199  69.559  1.00  0.00    -0.192 OA 
HETATM   17  H   UNL     2      -8.408  10.842  69.144  1.00  0.00     0.000 HD 
HETATM   18  O   UNL     2     -12.012  10.795  67.777  1.00  0.00    -0.470 OA 
HETATM   19  O   UNL     2      -9.787  10.959  67.196  1.00  0.00    -0.179 OA 
ENDBRANCH  11  14
ENDBRANCH   8  11
ENDBRANCH   2   8
TORSDOF 4
ENDMDL
MODEL      101
REMARK 921   NORMALIZED FREE ENERGY PREDICTED BY IDOCK:   -4.20 KCAL/MOL
REMARK 922        TOTAL FREE ENERGY PREDICTED BY IDOCK:   -6.19 KCAL/MOL
REMARK 923 INTER-LIGAND FREE ENERGY PREDICTED BY IDOCK:   -5.62 KCAL/MOL
REMARK 924 INTRA-LIGAND FREE ENERGY PREDICTED BY IDOCK:   -0.57 KCAL/MOL
REMARK 927      BINDING AFFINITY PREDICTED BY RF-SCORE:    0.00 PKD
ROOT
HETATM    1  K   UNL     1     -11.213  17.502  70.584  1.00  0.00    -0.555 K  
HETATM    2  C   UNL     2      -9.590  18.866  67.636  1.00  0.00    -0.308 C  
HETATM    3  H   UNL     2      -9.967  18.859  69.576  1.00  0.00     0.000 HD 
HETATM    4  O   UNL     2     -10.325  19.295  68.813  1.00  0.00    -0.345 OA 
ENDROOT
BRANCH   2   5
HETATM    5  C   UNL     2     -10.168  19.569  66.405  1.00  0.00    -0.479 C  
HETATM    6  O   UNL     2      -9.364  20.717  66.112  1.00  0.00    -0.601 OA 
HETATM    7  H   UNL     2      -9.722  21.153  65.348  1.00  0.00     0.000 HD 
ENDBRANCH   2   5
BRANCH   2   8
HETATM    8  C   UNL     2      -9.519  17.323  67.503  1.00  0.00    -0.245 C  
HETATM    9  O   UNL     2      -8.800  16.867  68.671  1.00  0.00    -0.248 OA 
HETATM   10  H   UNL     2      -8.756  15.923  68.589  1.00  0.00     0.000 HD 
BRANCH   8  11
HETATM   11  C   UNL     2     -10.894  16.607  67.343  1.00  0.00    -0.186 C  
HETATM   12  O   UNL     2     -11.473  16.289  68.623  1.00  0.00    -0.367 OA 
HETATM   13  H   UNL     2     -12.311  15.852  68.525  1.00  0.00     0.000 HD 
BRANCH  11  14
HETATM   14  C   UNL     2     -10.862  15.347  66.460  1.00  0.00    -0.298 C  
HETATM   15  C   UNL     2     -11.326  15.649  65.007  1.00  0.00    -0.253 C  
HETATM   16  O   UNL     2     -11.650  14.290  67.038  1.00  0.00    -0.349 OA 
HETATM   17  H   UNL     2     -11.630  13.512  66.493  1.00  0.00     0.000 HD 
HETATM   18  O   UNL     2     -10.977  16.790  64.573  1.00  0.00    -0.921 OA 
HETATM   19  O   UNL     2     -12.063  14.757  64.500  1.00  0.00    -0.461 OA 
ENDBRANCH  11  14
ENDBRANCH   8  11
ENDBRANCH   2   8
TORSDOF 4
ENDMDL
MODEL      102
REMARK 921   NORMALIZED FREE ENERGY PREDICTED BY IDOCK:   -4.19 KCAL/MOL
REMARK 922        TOTAL FREE ENERGY PREDICTED BY IDOCK:   -6.18 KCAL/MOL
REMARK 923 INTER-LIGAND FREE ENERGY PREDICTED BY IDOCK:   -5.51 KCAL/MOL
REMARK 924 INTRA-LIGAND FREE ENERGY PREDICTED BY IDOCK:   -0.68 KCAL/MOL
REMARK 927      BINDING AFFINITY PREDICTED BY RF-SCORE:    0.00 PKD
ROOT
HETATM    1  K   UNL     1     -10.795   7.974  66.025  1.00  0.00    -0.432 K  
HETATM    2  C   UNL     2      -9.812  11.222  67.316  1.00  0.00    -0.182 C  
HETATM    3  H   UNL     2      -9.406   9.374  66.745  1.00  0.00     0.000 HD 
HETATM    4  O   UNL     2      -9.609   9.806  67.566  1.00  0.00    -0.145 OA 
ENDROOT
BRANCH   2   5
HETATM    5  C   UNL     2     -10.139  11.919  68.638  1.00  0.00    -0.177 C  
HETATM    6  O   UNL     2      -9.846  13.315  68.507  1.00  0.00    -0.285 OA 
HETATM    7  H   UNL     2     -10.049  13.748  69.328  1.00  0.00     0.000 HD 
ENDBRANCH   2   5
BRANCH   2   8
HETATM    8  C   UNL     2     -10.846  11.491  66.192  1.00  0.00    -0.278 C  
HETATM    9  O   UNL     2     -12.027  11.983  66.864  1.00  0.00    -0.612 OA 
HETATM   10  H   UNL     2     -12.660  12.147  66.176  1.00  0.00     0.000 HD 
BRANCH   8  11
HETATM   11  C   UNL     2     -10.366  12.453  65.065  1.00  0.00    -0.293 C  
HETATM   12  O   UNL     2     -10.426  13.829  65.489  1.00  0.00    -0.295 OA 
HETATM   13  H   UNL     2     -10.134  14.416  64.801  1.00  0.00     0.000 HD 
BRANCH  11  14
HETATM   14  C   UNL     2     -11.104  12.290  63.725  1.00  0.00    -0.442 C  
HETATM   15  C   UNL     2     -12.631  12.546  63.873  1.00  0.00    -0.387 C  
HETATM   16  O   UNL     2     -10.858  10.992  63.153  1.00  0.00    -0.772 OA 
HETATM   17  H   UNL     2     -11.314  10.892  62.325  1.00  0.00     0.000 HD 
HETATM   18  O   UNL     2     -12.931  13.457  64.705  1.00  0.00    -0.696 OA 
HETATM   19  O   UNL     2     -13.359  11.750  63.215  1.00  0.00    -0.510 OA 
ENDBRANCH  11  14
ENDBRANCH   8  11
ENDBRANCH   2   8
TORSDOF 4
ENDMDL
MODEL      103
REMARK 921   NORMALIZED FREE ENERGY PREDICTED BY IDOCK:   -4.19 KCAL/MOL
REMARK 922        TOTAL FREE ENERGY PREDICTED BY IDOCK:   -6.18 KCAL/MOL
REMARK 923 INTER-LIGAND FREE ENERGY PREDICTED BY IDOCK:   -5.55 KCAL/MOL
REMARK 924 INTRA-LIGAND FREE ENERGY PREDICTED BY IDOCK:   -0.63 KCAL/MOL
REMARK 927      BINDING AFFINITY PREDICTED BY RF-SCORE:    0.00 PKD
ROOT
HETATM    1  K   UNL     1     -12.212  14.691  62.818  1.00  0.00    -0.867 K  
HETATM    2  C   UNL     2     -10.744  16.337  65.703  1.00  0.00    -0.286 C  
HETATM    3  H   UNL     2     -12.087  16.214  64.258  1.00  0.00     0.000 HD 
HETATM    4  O   UNL     2     -11.245  16.636  64.373  1.00  0.00    -1.033 OA 
ENDROOT
BRANCH   2   5
HETATM    5  C   UNL     2      -9.386  17.017  65.889  1.00  0.00    -0.060 C  
HETATM    6  O   UNL     2      -9.110  17.118  67.290  1.00  0.00    -0.218 OA 
HETATM    7  H   UNL     2      -8.267  17.540  67.405  1.00  0.00     0.000 HD 
ENDBRANCH   2   5
BRANCH   2   8
HETATM    8  C   UNL     2     -10.733  14.817  66.010  1.00  0.00    -0.312 C  
HETATM    9  O   UNL     2      -9.420  14.355  65.621  1.00  0.00    -0.526 OA 
HETATM   10  H   UNL     2      -9.413  13.424  65.809  1.00  0.00     0.000 HD 
BRANCH   8  11
HETATM   11  C   UNL     2     -11.078  14.435  67.481  1.00  0.00    -0.302 C  
HETATM   12  O   UNL     2      -9.898  14.057  68.216  1.00  0.00    -0.221 OA 
HETATM   13  H   UNL     2     -10.108  13.823  69.112  1.00  0.00     0.000 HD 
BRANCH  11  14
HETATM   14  C   UNL     2     -12.152  13.344  67.625  1.00  0.00    -0.269 C  
HETATM   15  C   UNL     2     -12.142  12.709  69.044  1.00  0.00    -0.139 C  
HETATM   16  O   UNL     2     -12.000  12.331  66.613  1.00  0.00    -0.598 OA 
HETATM   17  H   UNL     2     -12.664  11.657  66.702  1.00  0.00     0.000 HD 
HETATM   18  O   UNL     2     -11.874  13.524  69.981  1.00  0.00    -0.308 OA 
HETATM   19  O   UNL     2     -12.308  11.457  69.057  1.00  0.00    -0.407 OA 
ENDBRANCH  11  14
ENDBRANCH   8  11
ENDBRANCH   2   8
TORSDOF 4
ENDMDL
MODEL      104
REMARK 921   NORMALIZED FREE ENERGY PREDICTED BY IDOCK:   -4.18 KCAL/MOL
REMARK 922        TOTAL FREE ENERGY PREDICTED BY IDOCK:   -6.17 KCAL/MOL
REMARK 923 INTER-LIGAND FREE ENERGY PREDICTED BY IDOCK:   -5.30 KCAL/MOL
REMARK 924 INTRA-LIGAND FREE ENERGY PREDICTED BY IDOCK:   -0.87 KCAL/MOL
REMARK 927      BINDING AFFINITY PREDICTED BY RF-SCORE:    0.00 PKD
ROOT
HETATM    1  K   UNL     1     -11.152  17.719  70.161  1.00  0.00    -0.477 K  
HETATM    2  C   UNL     2     -10.577  15.816  67.123  1.00  0.00    -0.313 C  
HETATM    3  H   UNL     2     -11.761  16.558  68.522  1.00  0.00     0.000 HD 
HETATM    4  O   UNL     2     -11.306  15.737  68.376  1.00  0.00    -0.344 OA 
ENDROOT
BRANCH   2   5
HETATM    5  C   UNL     2      -9.844  14.494  66.888  1.00  0.00    -0.262 C  
HETATM    6  O   UNL     2      -9.783  14.244  65.480  1.00  0.00    -0.500 OA 
HETATM    7  H   UNL     2      -9.328  13.424  65.334  1.00  0.00     0.000 HD 
ENDBRANCH   2   5
BRANCH   2   8
HETATM    8  C   UNL     2      -9.662  17.065  67.039  1.00  0.00    -0.263 C  
HETATM    9  O   UNL     2      -8.853  16.872  65.857  1.00  0.00    -0.516 OA 
HETATM   10  H   UNL     2      -8.293  17.636  65.805  1.00  0.00     0.000 HD 
BRANCH   8  11
HETATM   11  C   UNL     2     -10.407  18.434  67.023  1.00  0.00    -0.393 C  
HETATM   12  O   UNL     2     -10.676  18.869  65.677  1.00  0.00    -0.532 OA 
HETATM   13  H   UNL     2     -11.130  19.704  65.667  1.00  0.00     0.000 HD 
BRANCH  11  14
HETATM   14  C   UNL     2      -9.701  19.557  67.801  1.00  0.00    -0.354 C  
HETATM   15  C   UNL     2      -8.292  19.864  67.219  1.00  0.00    -0.322 C  
HETATM   16  O   UNL     2      -9.615  19.241  69.203  1.00  0.00    -0.374 OA 
HETATM   17  H   UNL     2      -9.179  19.936  69.683  1.00  0.00     0.000 HD 
HETATM   18  O   UNL     2      -8.214  19.762  65.955  1.00  0.00    -0.354 OA 
HETATM   19  O   UNL     2      -7.403  20.079  68.091  1.00  0.00    -0.294 OA 
ENDBRANCH  11  14
ENDBRANCH   8  11
ENDBRANCH   2   8
TORSDOF 4
ENDMDL
MODEL      105
REMARK 921   NORMALIZED FREE ENERGY PREDICTED BY IDOCK:   -4.17 KCAL/MOL
REMARK 922        TOTAL FREE ENERGY PREDICTED BY IDOCK:   -6.16 KCAL/MOL
REMARK 923 INTER-LIGAND FREE ENERGY PREDICTED BY IDOCK:   -5.40 KCAL/MOL
REMARK 924 INTRA-LIGAND FREE ENERGY PREDICTED BY IDOCK:   -0.76 KCAL/MOL
REMARK 927      BINDING AFFINITY PREDICTED BY RF-SCORE:    0.00 PKD
ROOT
HETATM    1  K   UNL     1      -9.058  19.511  65.435  1.00  0.00    -0.250 K  
HETATM    2  C   UNL     2     -10.732  17.586  68.018  1.00  0.00    -0.341 C  
HETATM    3  H   UNL     2     -10.428  19.255  67.005  1.00  0.00     0.000 HD 
HETATM    4  O   UNL     2     -10.100  18.877  67.812  1.00  0.00    -0.333 OA 
ENDROOT
BRANCH   2   5
HETATM    5  C   UNL     2     -10.204  16.975  69.318  1.00  0.00    -0.246 C  
HETATM    6  O   UNL     2     -11.311  16.470  70.073  1.00  0.00    -0.407 OA 
HETATM    7  H   UNL     2     -10.984  16.092  70.879  1.00  0.00     0.000 HD 
ENDBRANCH   2   5
BRANCH   2   8
HETATM    8  C   UNL     2     -10.603  16.651  66.788  1.00  0.00    -0.214 C  
HETATM    9  O   UNL     2      -9.619  17.274  65.931  1.00  0.00    -0.500 OA 
HETATM   10  H   UNL     2      -9.540  16.702  65.178  1.00  0.00     0.000 HD 
BRANCH   8  11
HETATM   11  C   UNL     2     -10.246  15.170  67.113  1.00  0.00    -0.247 C  
HETATM   12  O   UNL     2      -9.146  14.706  66.307  1.00  0.00    -0.429 OA 
HETATM   13  H   UNL     2      -8.928  13.803  66.505  1.00  0.00     0.000 HD 
BRANCH  11  14
HETATM   14  C   UNL     2     -11.423  14.186  67.001  1.00  0.00    -0.352 C  
HETATM   15  C   UNL     2     -11.986  14.124  65.553  1.00  0.00    -0.391 C  
HETATM   16  O   UNL     2     -12.464  14.516  67.939  1.00  0.00    -0.599 OA 
HETATM   17  H   UNL     2     -13.191  13.908  67.870  1.00  0.00     0.000 HD 
HETATM   18  O   UNL     2     -11.106  14.234  64.644  1.00  0.00    -0.379 OA 
HETATM   19  O   UNL     2     -13.246  14.066  65.486  1.00  0.00    -0.710 OA 
ENDBRANCH  11  14
ENDBRANCH   8  11
ENDBRANCH   2   8
TORSDOF 4
ENDMDL
MODEL      106
REMARK 921   NORMALIZED FREE ENERGY PREDICTED BY IDOCK:   -4.16 KCAL/MOL
REMARK 922        TOTAL FREE ENERGY PREDICTED BY IDOCK:   -6.15 KCAL/MOL
REMARK 923 INTER-LIGAND FREE ENERGY PREDICTED BY IDOCK:   -5.20 KCAL/MOL
REMARK 924 INTRA-LIGAND FREE ENERGY PREDICTED BY IDOCK:   -0.94 KCAL/MOL
REMARK 927      BINDING AFFINITY PREDICTED BY RF-SCORE:    0.00 PKD
ROOT
HETATM    1  K   UNL     1      -9.592  14.208  64.572  1.00  0.00    -0.511 K  
HETATM    2  C   UNL     2     -10.231  15.489  67.909  1.00  0.00    -0.238 C  
HETATM    3  H   UNL     2      -9.664  14.061  66.665  1.00  0.00     0.000 HD 
HETATM    4  O   UNL     2     -10.474  14.313  67.092  1.00  0.00    -0.264 OA 
ENDROOT
BRANCH   2   5
HETATM    5  C   UNL     2     -11.536  15.896  68.597  1.00  0.00    -0.380 C  
HETATM    6  O   UNL     2     -11.221  16.599  69.804  1.00  0.00    -0.370 OA 
HETATM    7  H   UNL     2     -12.030  16.851  70.230  1.00  0.00     0.000 HD 
ENDBRANCH   2   5
BRANCH   2   8
HETATM    8  C   UNL     2      -9.552  16.638  67.120  1.00  0.00    -0.241 C  
HETATM    9  O   UNL     2      -8.876  15.999  66.013  1.00  0.00    -0.333 OA 
HETATM   10  H   UNL     2      -8.460  16.703  65.530  1.00  0.00     0.000 HD 
BRANCH   8  11
HETATM   11  C   UNL     2     -10.508  17.774  66.647  1.00  0.00    -0.300 C  
HETATM   12  O   UNL     2     -10.607  17.813  65.210  1.00  0.00    -0.651 OA 
HETATM   13  H   UNL     2     -11.190  18.506  64.922  1.00  0.00     0.000 HD 
BRANCH  11  14
HETATM   14  C   UNL     2     -10.157  19.173  67.182  1.00  0.00    -0.373 C  
HETATM   15  C   UNL     2      -8.664  19.528  66.930  1.00  0.00    -0.311 C  
HETATM   16  O   UNL     2     -10.479  19.288  68.580  1.00  0.00    -0.480 OA 
HETATM   17  H   UNL     2     -10.262  20.152  68.910  1.00  0.00     0.000 HD 
HETATM   18  O   UNL     2      -8.198  19.084  65.835  1.00  0.00    -0.465 OA 
HETATM   19  O   UNL     2      -8.101  20.126  67.890  1.00  0.00    -0.288 OA 
ENDBRANCH  11  14
ENDBRANCH   8  11
ENDBRANCH   2   8
TORSDOF 4
ENDMDL
MODEL      107
REMARK 921   NORMALIZED FREE ENERGY PREDICTED BY IDOCK:   -4.16 KCAL/MOL
REMARK 922        TOTAL FREE ENERGY PREDICTED BY IDOCK:   -6.14 KCAL/MOL
REMARK 923 INTER-LIGAND FREE ENERGY PREDICTED BY IDOCK:   -5.05 KCAL/MOL
REMARK 924 INTRA-LIGAND FREE ENERGY PREDICTED BY IDOCK:   -1.10 KCAL/MOL
REMARK 927      BINDING AFFINITY PREDICTED BY RF-SCORE:    0.00 PKD
ROOT
HETATM    1  K   UNL     1      -9.090  11.590  68.287  1.00  0.00    -0.136 K  
HETATM    2  C   UNL     2     -11.262  11.983  65.403  1.00  0.00    -0.322 C  
HETATM    3  H   UNL     2      -9.985  10.946  66.500  1.00  0.00     0.000 HD 
HETATM    4  O   UNL     2      -9.928  11.526  65.750  1.00  0.00    -0.216 OA 
ENDROOT
BRANCH   2   5
HETATM    5  C   UNL     2     -11.169  12.917  64.195  1.00  0.00    -0.389 C  
HETATM    6  O   UNL     2      -9.789  13.193  63.930  1.00  0.00    -0.735 OA 
HETATM    7  H   UNL     2      -9.732  13.773  63.181  1.00  0.00     0.000 HD 
ENDBRANCH   2   5
BRANCH   2   8
HETATM    8  C   UNL     2     -12.021  12.590  66.611  1.00  0.00    -0.281 C  
HETATM    9  O   UNL     2     -12.141  11.517  67.571  1.00  0.00    -0.614 OA 
HETATM   10  H   UNL     2     -12.605  11.889  68.311  1.00  0.00     0.000 HD 
BRANCH   8  11
HETATM   11  C   UNL     2     -11.371  13.864  67.231  1.00  0.00    -0.323 C  
HETATM   12  O   UNL     2      -9.948  13.888  67.008  1.00  0.00    -0.248 OA 
HETATM   13  H   UNL     2      -9.552  14.665  67.386  1.00  0.00     0.000 HD 
BRANCH  11  14
HETATM   14  C   UNL     2     -11.666  14.072  68.726  1.00  0.00    -0.353 C  
HETATM   15  C   UNL     2     -11.205  15.474  69.215  1.00  0.00    -0.310 C  
HETATM   16  O   UNL     2     -11.068  13.032  69.522  1.00  0.00    -0.437 OA 
HETATM   17  H   UNL     2     -11.250  13.161  70.445  1.00  0.00     0.000 HD 
HETATM   18  O   UNL     2     -11.352  16.401  68.360  1.00  0.00    -0.366 OA 
HETATM   19  O   UNL     2     -10.664  15.476  70.357  1.00  0.00    -0.316 OA 
ENDBRANCH  11  14
ENDBRANCH   8  11
ENDBRANCH   2   8
TORSDOF 4
ENDMDL
MODEL      108
REMARK 921   NORMALIZED FREE ENERGY PREDICTED BY IDOCK:   -4.16 KCAL/MOL
REMARK 922        TOTAL FREE ENERGY PREDICTED BY IDOCK:   -6.14 KCAL/MOL
REMARK 923 INTER-LIGAND FREE ENERGY PREDICTED BY IDOCK:   -5.53 KCAL/MOL
REMARK 924 INTRA-LIGAND FREE ENERGY PREDICTED BY IDOCK:   -0.61 KCAL/MOL
REMARK 927      BINDING AFFINITY PREDICTED BY RF-SCORE:    0.00 PKD
ROOT
HETATM    1  K   UNL     1      -7.556  11.964  65.657  1.00  0.00    -0.348 K  
HETATM    2  C   UNL     2     -11.064  11.750  64.746  1.00  0.00    -0.296 C  
HETATM    3  H   UNL     2      -9.381  10.956  65.411  1.00  0.00     0.000 HD 
HETATM    4  O   UNL     2      -9.813  11.035  64.569  1.00  0.00    -0.243 OA 
ENDROOT
BRANCH   2   5
HETATM    5  C   UNL     2     -11.760  11.878  63.389  1.00  0.00    -0.403 C  
HETATM    6  O   UNL     2     -13.105  12.320  63.601  1.00  0.00    -0.780 OA 
HETATM    7  H   UNL     2     -13.537  12.399  62.759  1.00  0.00     0.000 HD 
ENDBRANCH   2   5
BRANCH   2   8
HETATM    8  C   UNL     2     -10.885  13.098  65.489  1.00  0.00    -0.283 C  
HETATM    9  O   UNL     2     -10.794  14.102  64.452  1.00  0.00    -0.581 OA 
HETATM   10  H   UNL     2     -10.684  14.927  64.908  1.00  0.00     0.000 HD 
BRANCH   8  11
HETATM   11  C   UNL     2     -11.991  13.432  66.534  1.00  0.00    -0.400 C  
HETATM   12  O   UNL     2     -12.993  14.305  65.978  1.00  0.00    -0.470 OA 
HETATM   13  H   UNL     2     -13.667  14.509  66.616  1.00  0.00     0.000 HD 
BRANCH  11  14
HETATM   14  C   UNL     2     -11.468  14.018  67.857  1.00  0.00    -0.316 C  
HETATM   15  C   UNL     2     -11.705  13.050  69.050  1.00  0.00    -0.329 C  
HETATM   16  O   UNL     2     -12.056  15.305  68.122  1.00  0.00    -0.499 OA 
HETATM   17  H   UNL     2     -11.733  15.667  68.938  1.00  0.00     0.000 HD 
HETATM   18  O   UNL     2     -11.582  11.820  68.758  1.00  0.00    -0.255 OA 
HETATM   19  O   UNL     2     -12.077  13.617  70.116  1.00  0.00    -0.327 OA 
ENDBRANCH  11  14
ENDBRANCH   8  11
ENDBRANCH   2   8
TORSDOF 4
ENDMDL
MODEL      109
REMARK 921   NORMALIZED FREE ENERGY PREDICTED BY IDOCK:   -4.14 KCAL/MOL
REMARK 922        TOTAL FREE ENERGY PREDICTED BY IDOCK:   -6.12 KCAL/MOL
REMARK 923 INTER-LIGAND FREE ENERGY PREDICTED BY IDOCK:   -6.02 KCAL/MOL
REMARK 924 INTRA-LIGAND FREE ENERGY PREDICTED BY IDOCK:   -0.10 KCAL/MOL
REMARK 927      BINDING AFFINITY PREDICTED BY RF-SCORE:    0.00 PKD
ROOT
HETATM    1  K   UNL     1     -12.167  10.172  68.256  1.00  0.00    -0.522 K  
HETATM    2  C   UNL     2     -10.331  12.990  66.887  1.00  0.00    -0.245 C  
HETATM    3  H   UNL     2     -10.640  11.051  67.113  1.00  0.00     0.000 HD 
HETATM    4  O   UNL     2     -10.105  11.711  67.536  1.00  0.00    -0.188 OA 
ENDROOT
BRANCH   2   5
HETATM    5  C   UNL     2      -9.468  14.054  67.568  1.00  0.00    -0.221 C  
HETATM    6  O   UNL     2      -8.657  14.693  66.577  1.00  0.00    -0.431 OA 
HETATM    7  H   UNL     2      -8.121  15.353  66.999  1.00  0.00     0.000 HD 
ENDBRANCH   2   5
BRANCH   2   8
HETATM    8  C   UNL     2     -11.834  13.361  66.801  1.00  0.00    -0.403 C  
HETATM    9  O   UNL     2     -12.175  13.895  68.101  1.00  0.00    -0.476 OA 
HETATM   10  H   UNL     2     -13.095  14.123  68.048  1.00  0.00     0.000 HD 
BRANCH   8  11
HETATM   11  C   UNL     2     -12.212  14.337  65.647  1.00  0.00    -0.400 C  
HETATM   12  O   UNL     2     -13.637  14.534  65.572  1.00  0.00    -0.468 OA 
HETATM   13  H   UNL     2     -13.868  15.129  64.868  1.00  0.00     0.000 HD 
BRANCH  11  14
HETATM   14  C   UNL     2     -11.669  13.936  64.265  1.00  0.00    -0.380 C  
HETATM   15  C   UNL     2     -12.124  12.505  63.860  1.00  0.00    -0.498 C  
HETATM   16  O   UNL     2     -10.235  14.047  64.220  1.00  0.00    -0.674 OA 
HETATM   17  H   UNL     2      -9.900  13.800  63.366  1.00  0.00     0.000 HD 
HETATM   18  O   UNL     2     -13.296  12.200  64.242  1.00  0.00    -0.761 OA 
HETATM   19  O   UNL     2     -11.231  11.817  63.290  1.00  0.00    -0.356 OA 
ENDBRANCH  11  14
ENDBRANCH   8  11
ENDBRANCH   2   8
TORSDOF 4
ENDMDL
MODEL      110
REMARK 921   NORMALIZED FREE ENERGY PREDICTED BY IDOCK:   -4.14 KCAL/MOL
REMARK 922        TOTAL FREE ENERGY PREDICTED BY IDOCK:   -6.11 KCAL/MOL
REMARK 923 INTER-LIGAND FREE ENERGY PREDICTED BY IDOCK:   -5.29 KCAL/MOL
REMARK 924 INTRA-LIGAND FREE ENERGY PREDICTED BY IDOCK:   -0.82 KCAL/MOL
REMARK 927      BINDING AFFINITY PREDICTED BY RF-SCORE:    0.00 PKD
ROOT
HETATM    1  K   UNL     1     -13.134  11.107  69.475  1.00  0.00    -0.200 K  
HETATM    2  C   UNL     2     -12.949  13.960  71.712  1.00  0.00    -0.358 C  
HETATM    3  H   UNL     2     -12.538  12.087  71.233  1.00  0.00     0.000 HD 
HETATM    4  O   UNL     2     -13.212  12.533  71.733  1.00  0.00    -0.435 OA 
ENDROOT
BRANCH   2   5
HETATM    5  C   UNL     2     -14.034  14.678  72.518  1.00  0.00    -0.417 C  
HETATM    6  O   UNL     2     -13.433  15.761  73.238  1.00  0.00    -0.593 OA 
HETATM    7  H   UNL     2     -14.106  16.206  73.738  1.00  0.00     0.000 HD 
ENDBRANCH   2   5
BRANCH   2   8
HETATM    8  C   UNL     2     -12.762  14.515  70.276  1.00  0.00    -0.272 C  
HETATM    9  O   UNL     2     -12.149  15.814  70.441  1.00  0.00    -0.378 OA 
HETATM   10  H   UNL     2     -12.035  16.153  69.562  1.00  0.00     0.000 HD 
BRANCH   8  11
HETATM   11  C   UNL     2     -11.950  13.600  69.312  1.00  0.00    -0.336 C  
HETATM   12  O   UNL     2     -10.553  13.577  69.662  1.00  0.00    -0.417 OA 
HETATM   13  H   UNL     2     -10.058  13.019  69.073  1.00  0.00     0.000 HD 
BRANCH  11  14
HETATM   14  C   UNL     2     -12.106  13.942  67.820  1.00  0.00    -0.293 C  
HETATM   15  C   UNL     2     -11.743  12.734  66.911  1.00  0.00    -0.380 C  
HETATM   16  O   UNL     2     -11.322  15.097  67.469  1.00  0.00    -0.327 OA 
HETATM   17  H   UNL     2     -11.419  15.308  66.547  1.00  0.00     0.000 HD 
HETATM   18  O   UNL     2     -12.075  11.603  67.386  1.00  0.00    -0.605 OA 
HETATM   19  O   UNL     2     -11.088  13.039  65.875  1.00  0.00    -0.276 OA 
ENDBRANCH  11  14
ENDBRANCH   8  11
ENDBRANCH   2   8
TORSDOF 4
ENDMDL
MODEL      111
REMARK 921   NORMALIZED FREE ENERGY PREDICTED BY IDOCK:   -4.14 KCAL/MOL
REMARK 922        TOTAL FREE ENERGY PREDICTED BY IDOCK:   -6.11 KCAL/MOL
REMARK 923 INTER-LIGAND FREE ENERGY PREDICTED BY IDOCK:   -5.52 KCAL/MOL
REMARK 924 INTRA-LIGAND FREE ENERGY PREDICTED BY IDOCK:   -0.59 KCAL/MOL
REMARK 927      BINDING AFFINITY PREDICTED BY RF-SCORE:    0.00 PKD
ROOT
HETATM    1  K   UNL     1     -12.024  16.344  63.796  1.00  0.00    -0.610 K  
HETATM    2  C   UNL     2     -10.851  15.269  67.060  1.00  0.00    -0.321 C  
HETATM    3  H   UNL     2     -11.846  16.505  65.882  1.00  0.00     0.000 HD 
HETATM    4  O   UNL     2     -10.972  16.467  66.249  1.00  0.00    -0.104 OA 
ENDROOT
BRANCH   2   5
HETATM    5  C   UNL     2      -9.441  15.207  67.652  1.00  0.00    -0.201 C  
HETATM    6  O   UNL     2      -8.897  16.532  67.683  1.00  0.00    -0.190 OA 
HETATM    7  H   UNL     2      -8.022  16.494  68.050  1.00  0.00     0.000 HD 
ENDBRANCH   2   5
BRANCH   2   8
HETATM    8  C   UNL     2     -11.269  13.985  66.298  1.00  0.00    -0.320 C  
HETATM    9  O   UNL     2     -12.659  14.176  65.953  1.00  0.00    -0.486 OA 
HETATM   10  H   UNL     2     -12.915  13.390  65.486  1.00  0.00     0.000 HD 
BRANCH   8  11
HETATM   11  C   UNL     2     -10.397  13.637  65.055  1.00  0.00    -0.374 C  
HETATM   12  O   UNL     2     -10.178  14.796  64.227  1.00  0.00    -0.330 OA 
HETATM   13  H   UNL     2      -9.647  14.584  63.468  1.00  0.00     0.000 HD 
BRANCH  11  14
HETATM   14  C   UNL     2     -10.935  12.480  64.196  1.00  0.00    -0.381 C  
HETATM   15  C   UNL     2     -12.320  12.817  63.577  1.00  0.00    -0.467 C  
HETATM   16  O   UNL     2     -11.001  11.259  64.957  1.00  0.00    -0.248 OA 
HETATM   17  H   UNL     2     -11.333  10.544  64.426  1.00  0.00     0.000 HD 
HETATM   18  O   UNL     2     -12.460  14.034  63.239  1.00  0.00    -0.795 OA 
HETATM   19  O   UNL     2     -13.142  11.858  63.583  1.00  0.00    -0.696 OA 
ENDBRANCH  11  14
ENDBRANCH   8  11
ENDBRANCH   2   8
TORSDOF 4
ENDMDL
MODEL      112
REMARK 921   NORMALIZED FREE ENERGY PREDICTED BY IDOCK:   -4.13 KCAL/MOL
REMARK 922        TOTAL FREE ENERGY PREDICTED BY IDOCK:   -6.10 KCAL/MOL
REMARK 923 INTER-LIGAND FREE ENERGY PREDICTED BY IDOCK:   -5.27 KCAL/MOL
REMARK 924 INTRA-LIGAND FREE ENERGY PREDICTED BY IDOCK:   -0.84 KCAL/MOL
REMARK 927      BINDING AFFINITY PREDICTED BY RF-SCORE:    0.00 PKD
ROOT
HETATM    1  K   UNL     1      -9.516  11.360  69.126  1.00  0.00    -0.177 K  
HETATM    2  C   UNL     2     -11.844  13.068  66.924  1.00  0.00    -0.380 C  
HETATM    3  H   UNL     2     -11.419  12.040  68.558  1.00  0.00     0.000 HD 
HETATM    4  O   UNL     2     -11.711  11.835  67.679  1.00  0.00    -0.487 OA 
ENDROOT
BRANCH   2   5
HETATM    5  C   UNL     2     -12.314  12.737  65.506  1.00  0.00    -0.434 C  
HETATM    6  O   UNL     2     -13.107  13.825  65.018  1.00  0.00    -0.751 OA 
HETATM    7  H   UNL     2     -13.399  13.619  64.138  1.00  0.00     0.000 HD 
ENDBRANCH   2   5
BRANCH   2   8
HETATM    8  C   UNL     2     -10.564  13.942  66.974  1.00  0.00    -0.279 C  
HETATM    9  O   UNL     2     -10.825  15.059  66.093  1.00  0.00    -0.317 OA 
HETATM   10  H   UNL     2     -10.042  15.593  66.123  1.00  0.00     0.000 HD 
BRANCH   8  11
HETATM   11  C   UNL     2     -10.131  14.405  68.396  1.00  0.00    -0.244 C  
HETATM   12  O   UNL     2      -9.010  13.639  68.879  1.00  0.00    -0.377 OA 
HETATM   13  H   UNL     2      -8.746  13.922  69.747  1.00  0.00     0.000 HD 
BRANCH  11  14
HETATM   14  C   UNL     2     -11.256  14.395  69.445  1.00  0.00    -0.281 C  
HETATM   15  C   UNL     2     -11.116  15.572  70.452  1.00  0.00    -0.337 C  
HETATM   16  O   UNL     2     -11.307  13.135  70.139  1.00  0.00    -0.502 OA 
HETATM   17  H   UNL     2     -12.002  13.129  70.786  1.00  0.00     0.000 HD 
HETATM   18  O   UNL     2     -10.674  16.648  69.942  1.00  0.00    -0.309 OA 
HETATM   19  O   UNL     2     -11.372  15.266  71.650  1.00  0.00    -0.390 OA 
ENDBRANCH  11  14
ENDBRANCH   8  11
ENDBRANCH   2   8
TORSDOF 4
ENDMDL
MODEL      113
REMARK 921   NORMALIZED FREE ENERGY PREDICTED BY IDOCK:   -4.12 KCAL/MOL
REMARK 922        TOTAL FREE ENERGY PREDICTED BY IDOCK:   -6.10 KCAL/MOL
REMARK 923 INTER-LIGAND FREE ENERGY PREDICTED BY IDOCK:   -4.97 KCAL/MOL
REMARK 924 INTRA-LIGAND FREE ENERGY PREDICTED BY IDOCK:   -1.12 KCAL/MOL
REMARK 927      BINDING AFFINITY PREDICTED BY RF-SCORE:    0.00 PKD
ROOT
HETATM    1  K   UNL     1     -13.237  14.231  68.061  1.00  0.00    -0.394 K  
HETATM    2  C   UNL     2     -12.148  13.245  64.740  1.00  0.00    -0.409 C  
HETATM    3  H   UNL     2     -12.843  14.574  66.027  1.00  0.00     0.000 HD 
HETATM    4  O   UNL     2     -13.220  13.967  65.402  1.00  0.00    -0.761 OA 
ENDROOT
BRANCH   2   5
HETATM    5  C   UNL     2     -12.755  12.267  63.732  1.00  0.00    -0.405 C  
HETATM    6  O   UNL     2     -11.779  11.979  62.724  1.00  0.00    -0.431 OA 
HETATM    7  H   UNL     2     -12.156  11.372  62.099  1.00  0.00     0.000 HD 
ENDBRANCH   2   5
BRANCH   2   8
HETATM    8  C   UNL     2     -11.162  12.587  65.739  1.00  0.00    -0.320 C  
HETATM    9  O   UNL     2     -10.713  11.373  65.095  1.00  0.00    -0.289 OA 
HETATM   10  H   UNL     2     -10.109  10.970  65.707  1.00  0.00     0.000 HD 
BRANCH   8  11
HETATM   11  C   UNL     2      -9.973  13.487  66.190  1.00  0.00    -0.304 C  
HETATM   12  O   UNL     2      -8.730  12.759  66.181  1.00  0.00    -0.408 OA 
HETATM   13  H   UNL     2      -8.005  13.309  66.456  1.00  0.00     0.000 HD 
BRANCH  11  14
HETATM   14  C   UNL     2     -10.166  14.170  67.555  1.00  0.00    -0.241 C  
HETATM   15  C   UNL     2     -10.462  13.136  68.679  1.00  0.00    -0.227 C  
HETATM   16  O   UNL     2     -11.204  15.166  67.494  1.00  0.00    -0.318 OA 
HETATM   17  H   UNL     2     -11.322  15.587  68.337  1.00  0.00     0.000 HD 
HETATM   18  O   UNL     2      -9.843  12.035  68.553  1.00  0.00    -0.209 OA 
HETATM   19  O   UNL     2     -11.345  13.503  69.504  1.00  0.00    -0.257 OA 
ENDBRANCH  11  14
ENDBRANCH   8  11
ENDBRANCH   2   8
TORSDOF 4
ENDMDL
MODEL      114
REMARK 921   NORMALIZED FREE ENERGY PREDICTED BY IDOCK:   -4.12 KCAL/MOL
REMARK 922        TOTAL FREE ENERGY PREDICTED BY IDOCK:   -6.09 KCAL/MOL
REMARK 923 INTER-LIGAND FREE ENERGY PREDICTED BY IDOCK:   -4.91 KCAL/MOL
REMARK 924 INTRA-LIGAND FREE ENERGY PREDICTED BY IDOCK:   -1.18 KCAL/MOL
REMARK 927      BINDING AFFINITY PREDICTED BY RF-SCORE:    0.00 PKD
ROOT
HETATM    1  K   UNL     1      -8.903  15.280  67.675  1.00  0.00    -0.156 K  
HETATM    2  C   UNL     2     -10.957  14.035  64.951  1.00  0.00    -0.392 C  
HETATM    3  H   UNL     2      -9.248  14.703  65.685  1.00  0.00     0.000 HD 
HETATM    4  O   UNL     2      -9.997  15.084  65.245  1.00  0.00    -0.341 OA 
ENDROOT
BRANCH   2   5
HETATM    5  C   UNL     2     -12.165  14.651  64.240  1.00  0.00    -0.408 C  
HETATM    6  O   UNL     2     -12.490  13.843  63.103  1.00  0.00    -1.121 OA 
HETATM    7  H   UNL     2     -13.239  14.225  62.662  1.00  0.00     0.000 HD 
ENDBRANCH   2   5
BRANCH   2   8
HETATM    8  C   UNL     2     -11.325  13.193  66.199  1.00  0.00    -0.312 C  
HETATM    9  O   UNL     2     -12.351  12.275  65.757  1.00  0.00    -0.622 OA 
HETATM   10  H   UNL     2     -12.576  11.759  66.521  1.00  0.00     0.000 HD 
BRANCH   8  11
HETATM   11  C   UNL     2     -10.132  12.457  66.879  1.00  0.00    -0.219 C  
HETATM   12  O   UNL     2      -8.869  12.905  66.350  1.00  0.00    -0.420 OA 
HETATM   13  H   UNL     2      -8.141  12.456  66.764  1.00  0.00     0.000 HD 
BRANCH  11  14
HETATM   14  C   UNL     2     -10.205  10.921  66.816  1.00  0.00    -0.231 C  
HETATM   15  C   UNL     2      -9.014  10.256  67.562  1.00  0.00    -0.134 C  
HETATM   16  O   UNL     2     -10.274  10.461  65.454  1.00  0.00    -0.292 OA 
HETATM   17  H   UNL     2     -10.320   9.513  65.416  1.00  0.00     0.000 HD 
HETATM   18  O   UNL     2      -8.639  10.875  68.606  1.00  0.00    -0.140 OA 
HETATM   19  O   UNL     2      -8.528   9.249  66.975  1.00  0.00    -0.122 OA 
ENDBRANCH  11  14
ENDBRANCH   8  11
ENDBRANCH   2   8
TORSDOF 4
ENDMDL
MODEL      115
REMARK 921   NORMALIZED FREE ENERGY PREDICTED BY IDOCK:   -4.11 KCAL/MOL
REMARK 922        TOTAL FREE ENERGY PREDICTED BY IDOCK:   -6.08 KCAL/MOL
REMARK 923 INTER-LIGAND FREE ENERGY PREDICTED BY IDOCK:   -5.40 KCAL/MOL
REMARK 924 INTRA-LIGAND FREE ENERGY PREDICTED BY IDOCK:   -0.68 KCAL/MOL
REMARK 927      BINDING AFFINITY PREDICTED BY RF-SCORE:    0.00 PKD
ROOT
HETATM    1  K   UNL     1      -7.975  14.808  67.701  1.00  0.00    -0.112 K  
HETATM    2  C   UNL     2     -10.441  14.710  65.038  1.00  0.00    -0.421 C  
HETATM    3  H   UNL     2      -8.636  15.117  65.732  1.00  0.00     0.000 HD 
HETATM    4  O   UNL     2      -9.447  15.597  65.616  1.00  0.00    -0.320 OA 
ENDROOT
BRANCH   2   5
HETATM    5  C   UNL     2     -11.748  15.482  64.849  1.00  0.00    -0.118 C  
HETATM    6  O   UNL     2     -11.591  16.393  63.755  1.00  0.00    -1.605 OA 
HETATM    7  H   UNL     2     -12.402  16.872  63.638  1.00  0.00     0.000 HD 
ENDBRANCH   2   5
BRANCH   2   8
HETATM    8  C   UNL     2     -10.601  13.389  65.834  1.00  0.00    -0.283 C  
HETATM    9  O   UNL     2      -9.306  12.749  65.785  1.00  0.00    -0.453 OA 
HETATM   10  H   UNL     2      -9.404  11.941  66.273  1.00  0.00     0.000 HD 
BRANCH   8  11
HETATM   11  C   UNL     2     -11.121  13.552  67.293  1.00  0.00    -0.286 C  
HETATM   12  O   UNL     2     -10.038  13.784  68.214  1.00  0.00    -0.227 OA 
HETATM   13  H   UNL     2     -10.355  13.883  69.104  1.00  0.00     0.000 HD 
BRANCH  11  14
HETATM   14  C   UNL     2     -11.993  12.390  67.798  1.00  0.00    -0.186 C  
HETATM   15  C   UNL     2     -11.838  12.177  69.330  1.00  0.00    -0.309 C  
HETATM   16  O   UNL     2     -11.700  11.175  67.083  1.00  0.00    -0.501 OA 
HETATM   17  H   UNL     2     -12.238  10.457  67.395  1.00  0.00     0.000 HD 
HETATM   18  O   UNL     2     -11.687  13.249  69.995  1.00  0.00    -0.287 OA 
HETATM   19  O   UNL     2     -11.792  10.966  69.687  1.00  0.00    -0.291 OA 
ENDBRANCH  11  14
ENDBRANCH   8  11
ENDBRANCH   2   8
TORSDOF 4
ENDMDL
MODEL      116
REMARK 921   NORMALIZED FREE ENERGY PREDICTED BY IDOCK:   -4.11 KCAL/MOL
REMARK 922        TOTAL FREE ENERGY PREDICTED BY IDOCK:   -6.08 KCAL/MOL
REMARK 923 INTER-LIGAND FREE ENERGY PREDICTED BY IDOCK:   -4.96 KCAL/MOL
REMARK 924 INTRA-LIGAND FREE ENERGY PREDICTED BY IDOCK:   -1.12 KCAL/MOL
REMARK 927      BINDING AFFINITY PREDICTED BY RF-SCORE:    0.00 PKD
ROOT
HETATM    1  K   UNL     1      -9.633   9.274  72.283  1.00  0.00    -0.272 K  
HETATM    2  C   UNL     2     -13.067   8.730  71.233  1.00  0.00    -0.177 C  
HETATM    3  H   UNL     2     -11.457   9.861  71.424  1.00  0.00     0.000 HD 
HETATM    4  O   UNL     2     -12.246   9.705  71.929  1.00  0.00    -0.376 OA 
ENDROOT
BRANCH   2   5
HETATM    5  C   UNL     2     -14.339   8.478  72.046  1.00  0.00    -0.447 C  
HETATM    6  O   UNL     2     -14.120   8.919  73.391  1.00  0.00    -1.256 OA 
HETATM    7  H   UNL     2     -14.909   8.763  73.895  1.00  0.00     0.000 HD 
ENDBRANCH   2   5
BRANCH   2   8
HETATM    8  C   UNL     2     -12.287   7.439  70.872  1.00  0.00    -0.201 C  
HETATM    9  O   UNL     2     -11.203   7.869  70.018  1.00  0.00    -0.394 OA 
HETATM   10  H   UNL     2     -10.726   7.080  69.796  1.00  0.00     0.000 HD 
BRANCH   8  11
HETATM   11  C   UNL     2     -11.782   6.606  72.087  1.00  0.00    -0.304 C  
HETATM   12  O   UNL     2     -11.405   7.457  73.187  1.00  0.00    -0.562 OA 
HETATM   13  H   UNL     2     -11.097   6.949  73.928  1.00  0.00     0.000 HD 
BRANCH  11  14
HETATM   14  C   UNL     2     -10.634   5.633  71.767  1.00  0.00    -0.238 C  
HETATM   15  C   UNL     2     -10.410   4.609  72.914  1.00  0.00    -0.187 C  
HETATM   16  O   UNL     2      -9.418   6.345  71.475  1.00  0.00    -0.155 OA 
HETATM   17  H   UNL     2      -8.709   5.744  71.276  1.00  0.00     0.000 HD 
HETATM   18  O   UNL     2     -11.474   4.233  73.496  1.00  0.00    -0.271 OA 
HETATM   19  O   UNL     2      -9.196   4.366  73.167  1.00  0.00    -0.117 OA 
ENDBRANCH  11  14
ENDBRANCH   8  11
ENDBRANCH   2   8
TORSDOF 4
ENDMDL
MODEL      117
REMARK 921   NORMALIZED FREE ENERGY PREDICTED BY IDOCK:   -4.10 KCAL/MOL
REMARK 922        TOTAL FREE ENERGY PREDICTED BY IDOCK:   -6.06 KCAL/MOL
REMARK 923 INTER-LIGAND FREE ENERGY PREDICTED BY IDOCK:   -5.13 KCAL/MOL
REMARK 924 INTRA-LIGAND FREE ENERGY PREDICTED BY IDOCK:   -0.93 KCAL/MOL
REMARK 927      BINDING AFFINITY PREDICTED BY RF-SCORE:    0.00 PKD
ROOT
HETATM    1  K   UNL     1     -12.996  14.761  68.882  1.00  0.00    -0.538 K  
HETATM    2  C   UNL     2     -10.112  15.875  66.978  1.00  0.00    -0.268 C  
HETATM    3  H   UNL     2     -11.076  15.586  68.679  1.00  0.00     0.000 HD 
HETATM    4  O   UNL     2     -10.973  16.304  68.066  1.00  0.00    -0.334 OA 
ENDROOT
BRANCH   2   5
HETATM    5  C   UNL     2      -9.946  17.031  65.990  1.00  0.00    -0.269 C  
HETATM    6  O   UNL     2     -10.693  16.735  64.805  1.00  0.00    -0.726 OA 
HETATM    7  H   UNL     2     -10.590  17.452  64.192  1.00  0.00     0.000 HD 
ENDBRANCH   2   5
BRANCH   2   8
HETATM    8  C   UNL     2     -10.587  14.552  66.323  1.00  0.00    -0.304 C  
HETATM    9  O   UNL     2      -9.593  14.239  65.322  1.00  0.00    -0.550 OA 
HETATM   10  H   UNL     2      -9.883  13.430  64.921  1.00  0.00     0.000 HD 
BRANCH   8  11
HETATM   11  C   UNL     2     -10.820  13.369  67.310  1.00  0.00    -0.269 C  
HETATM   12  O   UNL     2      -9.796  13.321  68.323  1.00  0.00    -0.225 OA 
HETATM   13  H   UNL     2      -9.938  12.599  68.924  1.00  0.00     0.000 HD 
BRANCH  11  14
HETATM   14  C   UNL     2     -10.952  11.991  66.639  1.00  0.00    -0.287 C  
HETATM   15  C   UNL     2     -11.389  10.896  67.654  1.00  0.00    -0.270 C  
HETATM   16  O   UNL     2      -9.728  11.616  65.981  1.00  0.00    -0.219 OA 
HETATM   17  H   UNL     2      -9.810  10.765  65.567  1.00  0.00     0.000 HD 
HETATM   18  O   UNL     2     -12.204  11.300  68.540  1.00  0.00    -0.588 OA 
HETATM   19  O   UNL     2     -10.802   9.787  67.509  1.00  0.00    -0.283 OA 
ENDBRANCH  11  14
ENDBRANCH   8  11
ENDBRANCH   2   8
TORSDOF 4
ENDMDL
MODEL      118
REMARK 921   NORMALIZED FREE ENERGY PREDICTED BY IDOCK:   -4.09 KCAL/MOL
REMARK 922        TOTAL FREE ENERGY PREDICTED BY IDOCK:   -6.06 KCAL/MOL
REMARK 923 INTER-LIGAND FREE ENERGY PREDICTED BY IDOCK:   -5.07 KCAL/MOL
REMARK 924 INTRA-LIGAND FREE ENERGY PREDICTED BY IDOCK:   -0.99 KCAL/MOL
REMARK 927      BINDING AFFINITY PREDICTED BY RF-SCORE:    0.00 PKD
ROOT
HETATM    1  K   UNL     1      -9.154  14.891  66.658  1.00  0.00    -0.184 K  
HETATM    2  C   UNL     2     -10.822  12.661  64.328  1.00  0.00    -0.379 C  
HETATM    3  H   UNL     2      -9.706  14.239  64.740  1.00  0.00     0.000 HD 
HETATM    4  O   UNL     2     -10.628  14.077  64.584  1.00  0.00    -0.419 OA 
ENDROOT
BRANCH   2   5
HETATM    5  C   UNL     2     -12.309  12.399  64.076  1.00  0.00    -0.488 C  
HETATM    6  O   UNL     2     -12.437  11.505  62.966  1.00  0.00    -0.982 OA 
HETATM    7  H   UNL     2     -13.359  11.343  62.809  1.00  0.00     0.000 HD 
ENDBRANCH   2   5
BRANCH   2   8
HETATM    8  C   UNL     2     -10.204  11.763  65.431  1.00  0.00    -0.261 C  
HETATM    9  O   UNL     2      -8.922  12.354  65.737  1.00  0.00    -0.426 OA 
HETATM   10  H   UNL     2      -8.544  11.805  66.412  1.00  0.00     0.000 HD 
BRANCH   8  11
HETATM   11  C   UNL     2     -11.084  11.575  66.703  1.00  0.00    -0.295 C  
HETATM   12  O   UNL     2     -11.195  12.801  67.450  1.00  0.00    -0.266 OA 
HETATM   13  H   UNL     2     -11.731  12.687  68.227  1.00  0.00     0.000 HD 
BRANCH  11  14
HETATM   14  C   UNL     2     -10.629  10.439  67.636  1.00  0.00    -0.257 C  
HETATM   15  C   UNL     2     -11.267  10.562  69.048  1.00  0.00    -0.259 C  
HETATM   16  O   UNL     2      -9.193  10.388  67.728  1.00  0.00    -0.141 OA 
HETATM   17  H   UNL     2      -8.912   9.686  68.304  1.00  0.00     0.000 HD 
HETATM   18  O   UNL     2     -12.458  11.002  69.048  1.00  0.00    -0.449 OA 
HETATM   19  O   UNL     2     -10.480  10.296  70.000  1.00  0.00    -0.268 OA 
ENDBRANCH  11  14
ENDBRANCH   8  11
ENDBRANCH   2   8
TORSDOF 4
ENDMDL
MODEL      119
REMARK 921   NORMALIZED FREE ENERGY PREDICTED BY IDOCK:   -4.09 KCAL/MOL
REMARK 922        TOTAL FREE ENERGY PREDICTED BY IDOCK:   -6.06 KCAL/MOL
REMARK 923 INTER-LIGAND FREE ENERGY PREDICTED BY IDOCK:   -5.28 KCAL/MOL
REMARK 924 INTRA-LIGAND FREE ENERGY PREDICTED BY IDOCK:   -0.78 KCAL/MOL
REMARK 927      BINDING AFFINITY PREDICTED BY RF-SCORE:    0.00 PKD
ROOT
HETATM    1  K   UNL     1     -11.215  16.090  63.467  1.00  0.00    -0.678 K  
HETATM    2  C   UNL     2     -10.222  17.837  66.492  1.00  0.00    -0.358 C  
HETATM    3  H   UNL     2     -11.575  17.267  65.169  1.00  0.00     0.000 HD 
HETATM    4  O   UNL     2     -11.023  18.028  65.296  1.00  0.00    -0.575 OA 
ENDROOT
BRANCH   2   5
HETATM    5  C   UNL     2      -9.332  19.065  66.697  1.00  0.00    -0.332 C  
HETATM    6  O   UNL     2      -8.266  19.026  65.742  1.00  0.00    -0.449 OA 
HETATM    7  H   UNL     2      -7.714  19.787  65.870  1.00  0.00     0.000 HD 
ENDBRANCH   2   5
BRANCH   2   8
HETATM    8  C   UNL     2      -9.447  16.494  66.486  1.00  0.00    -0.273 C  
HETATM    9  O   UNL     2      -8.159  16.788  67.072  1.00  0.00    -0.168 OA 
HETATM   10  H   UNL     2      -7.685  15.966  67.068  1.00  0.00     0.000 HD 
BRANCH   8  11
HETATM   11  C   UNL     2     -10.163  15.311  67.204  1.00  0.00    -0.252 C  
HETATM   12  O   UNL     2      -9.232  14.268  67.553  1.00  0.00    -0.186 OA 
HETATM   13  H   UNL     2      -9.669  13.547  67.991  1.00  0.00     0.000 HD 
BRANCH  11  14
HETATM   14  C   UNL     2     -11.348  14.711  66.428  1.00  0.00    -0.348 C  
HETATM   15  C   UNL     2     -11.944  13.472  67.153  1.00  0.00    -0.381 C  
HETATM   16  O   UNL     2     -10.969  14.379  65.080  1.00  0.00    -0.345 OA 
HETATM   17  H   UNL     2     -11.701  14.009  64.601  1.00  0.00     0.000 HD 
HETATM   18  O   UNL     2     -11.935  13.552  68.421  1.00  0.00    -0.354 OA 
HETATM   19  O   UNL     2     -12.266  12.523  66.384  1.00  0.00    -0.584 OA 
ENDBRANCH  11  14
ENDBRANCH   8  11
ENDBRANCH   2   8
TORSDOF 4
ENDMDL
MODEL      120
REMARK 921   NORMALIZED FREE ENERGY PREDICTED BY IDOCK:   -4.08 KCAL/MOL
REMARK 922        TOTAL FREE ENERGY PREDICTED BY IDOCK:   -6.04 KCAL/MOL
REMARK 923 INTER-LIGAND FREE ENERGY PREDICTED BY IDOCK:   -5.22 KCAL/MOL
REMARK 924 INTRA-LIGAND FREE ENERGY PREDICTED BY IDOCK:   -0.82 KCAL/MOL
REMARK 927      BINDING AFFINITY PREDICTED BY RF-SCORE:    0.00 PKD
ROOT
HETATM    1  K   UNL     1      -9.109  11.927  69.407  1.00  0.00    -0.369 K  
HETATM    2  C   UNL     2      -8.849  14.546  66.905  1.00  0.00    -0.234 C  
HETATM    3  H   UNL     2      -8.088  13.062  67.965  1.00  0.00     0.000 HD 
HETATM    4  O   UNL     2      -8.129  14.007  68.045  1.00  0.00    -0.128 OA 
ENDROOT
BRANCH   2   5
HETATM    5  C   UNL     2      -8.916  16.070  67.034  1.00  0.00    -0.214 C  
HETATM    6  O   UNL     2      -9.113  16.407  68.412  1.00  0.00    -0.201 OA 
HETATM    7  H   UNL     2      -9.155  17.352  68.491  1.00  0.00     0.000 HD 
ENDBRANCH   2   5
BRANCH   2   8
HETATM    8  C   UNL     2     -10.230  13.872  66.695  1.00  0.00    -0.276 C  
HETATM    9  O   UNL     2     -11.205  14.919  66.899  1.00  0.00    -0.335 OA 
HETATM   10  H   UNL     2     -12.050  14.507  66.770  1.00  0.00     0.000 HD 
BRANCH   8  11
HETATM   11  C   UNL     2     -10.416  13.155  65.325  1.00  0.00    -0.307 C  
HETATM   12  O   UNL     2     -10.059  14.017  64.227  1.00  0.00    -0.697 OA 
HETATM   13  H   UNL     2     -10.173  13.580  63.391  1.00  0.00     0.000 HD 
BRANCH  11  14
HETATM   14  C   UNL     2     -11.820  12.571  65.091  1.00  0.00    -0.405 C  
HETATM   15  C   UNL     2     -11.899  11.776  63.757  1.00  0.00    -0.380 C  
HETATM   16  O   UNL     2     -12.823  13.603  65.129  1.00  0.00    -0.687 OA 
HETATM   17  H   UNL     2     -13.690  13.242  64.986  1.00  0.00     0.000 HD 
HETATM   18  O   UNL     2     -10.841  11.135  63.466  1.00  0.00    -0.352 OA 
HETATM   19  O   UNL     2     -12.967  11.953  63.107  1.00  0.00    -0.640 OA 
ENDBRANCH  11  14
ENDBRANCH   8  11
ENDBRANCH   2   8
TORSDOF 4
ENDMDL
MODEL      121
REMARK 921   NORMALIZED FREE ENERGY PREDICTED BY IDOCK:   -4.01 KCAL/MOL
REMARK 922        TOTAL FREE ENERGY PREDICTED BY IDOCK:   -5.95 KCAL/MOL
REMARK 923 INTER-LIGAND FREE ENERGY PREDICTED BY IDOCK:   -5.74 KCAL/MOL
REMARK 924 INTRA-LIGAND FREE ENERGY PREDICTED BY IDOCK:   -0.21 KCAL/MOL
REMARK 927      BINDING AFFINITY PREDICTED BY RF-SCORE:    0.00 PKD
ROOT
HETATM    1  K   UNL     1     -12.109  14.981  63.313  1.00  0.00    -0.810 K  
HETATM    2  C   UNL     2     -11.346  14.676  66.849  1.00  0.00    -0.356 C  
HETATM    3  H   UNL     2     -11.814  15.737  65.249  1.00  0.00     0.000 HD 
HETATM    4  O   UNL     2     -11.013  15.491  65.695  1.00  0.00    -0.333 OA 
ENDROOT
BRANCH   2   5
HETATM    5  C   UNL     2     -10.054  14.280  67.569  1.00  0.00    -0.236 C  
HETATM    6  O   UNL     2     -10.335  14.119  68.964  1.00  0.00    -0.313 OA 
HETATM    7  H   UNL     2      -9.534  13.873  69.410  1.00  0.00     0.000 HD 
ENDBRANCH   2   5
BRANCH   2   8
HETATM    8  C   UNL     2     -12.259  13.475  66.492  1.00  0.00    -0.380 C  
HETATM    9  O   UNL     2     -13.142  13.958  65.454  1.00  0.00    -0.752 OA 
HETATM   10  H   UNL     2     -13.701  13.223  65.235  1.00  0.00     0.000 HD 
BRANCH   8  11
HETATM   11  C   UNL     2     -11.511  12.175  66.069  1.00  0.00    -0.370 C  
HETATM   12  O   UNL     2     -10.877  11.544  67.198  1.00  0.00    -0.239 OA 
HETATM   13  H   UNL     2     -10.421  10.751  66.939  1.00  0.00     0.000 HD 
BRANCH  11  14
HETATM   14  C   UNL     2     -10.488  12.363  64.936  1.00  0.00    -0.298 C  
HETATM   15  C   UNL     2     -11.002  11.778  63.591  1.00  0.00    -0.439 C  
HETATM   16  O   UNL     2      -9.215  11.789  65.287  1.00  0.00    -0.403 OA 
HETATM   17  H   UNL     2      -8.583  11.906  64.588  1.00  0.00     0.000 HD 
HETATM   18  O   UNL     2     -12.252  11.913  63.405  1.00  0.00    -0.531 OA 
HETATM   19  O   UNL     2     -10.124  11.169  62.917  1.00  0.00    -0.283 OA 
ENDBRANCH  11  14
ENDBRANCH   8  11
ENDBRANCH   2   8
TORSDOF 4
ENDMDL
MODEL      122
REMARK 921   NORMALIZED FREE ENERGY PREDICTED BY IDOCK:   -4.00 KCAL/MOL
REMARK 922        TOTAL FREE ENERGY PREDICTED BY IDOCK:   -5.95 KCAL/MOL
REMARK 923 INTER-LIGAND FREE ENERGY PREDICTED BY IDOCK:   -5.07 KCAL/MOL
REMARK 924 INTRA-LIGAND FREE ENERGY PREDICTED BY IDOCK:   -0.88 KCAL/MOL
REMARK 927      BINDING AFFINITY PREDICTED BY RF-SCORE:    0.00 PKD
ROOT
HETATM    1  K   UNL     1     -10.502  15.244  64.051  1.00  0.00    -0.561 K  
HETATM    2  C   UNL     2     -10.336  17.492  66.898  1.00  0.00    -0.315 C  
HETATM    3  H   UNL     2     -11.237  16.769  65.294  1.00  0.00     0.000 HD 
HETATM    4  O   UNL     2     -10.655  17.496  65.481  1.00  0.00    -0.612 OA 
ENDROOT
BRANCH   2   5
HETATM    5  C   UNL     2      -9.399  18.664  67.201  1.00  0.00    -0.290 C  
HETATM    6  O   UNL     2      -9.763  19.229  68.465  1.00  0.00    -0.361 OA 
HETATM    7  H   UNL     2      -9.182  19.956  68.652  1.00  0.00     0.000 HD 
ENDBRANCH   2   5
BRANCH   2   8
HETATM    8  C   UNL     2      -9.806  16.120  67.389  1.00  0.00    -0.238 C  
HETATM    9  O   UNL     2      -9.447  16.319  68.775  1.00  0.00    -0.217 OA 
HETATM   10  H   UNL     2      -9.123  15.480  69.076  1.00  0.00     0.000 HD 
BRANCH   8  11
HETATM   11  C   UNL     2     -10.785  14.924  67.201  1.00  0.00    -0.296 C  
HETATM   12  O   UNL     2     -11.957  15.070  68.027  1.00  0.00    -0.500 OA 
HETATM   13  H   UNL     2     -12.554  14.339  67.913  1.00  0.00     0.000 HD 
BRANCH  11  14
HETATM   14  C   UNL     2     -10.157  13.538  67.431  1.00  0.00    -0.237 C  
HETATM   15  C   UNL     2     -11.199  12.397  67.256  1.00  0.00    -0.303 C  
HETATM   16  O   UNL     2      -9.531  13.461  68.725  1.00  0.00    -0.394 OA 
HETATM   17  H   UNL     2      -9.143  12.606  68.866  1.00  0.00     0.000 HD 
HETATM   18  O   UNL     2     -12.059  12.609  66.346  1.00  0.00    -0.530 OA 
HETATM   19  O   UNL     2     -11.099  11.466  68.103  1.00  0.00    -0.211 OA 
ENDBRANCH  11  14
ENDBRANCH   8  11
ENDBRANCH   2   8
TORSDOF 4
ENDMDL
MODEL      123
REMARK 921   NORMALIZED FREE ENERGY PREDICTED BY IDOCK:   -4.00 KCAL/MOL
REMARK 922        TOTAL FREE ENERGY PREDICTED BY IDOCK:   -5.95 KCAL/MOL
REMARK 923 INTER-LIGAND FREE ENERGY PREDICTED BY IDOCK:   -5.56 KCAL/MOL
REMARK 924 INTRA-LIGAND FREE ENERGY PREDICTED BY IDOCK:   -0.39 KCAL/MOL
REMARK 927      BINDING AFFINITY PREDICTED BY RF-SCORE:    0.00 PKD
ROOT
HETATM    1  K   UNL     1     -12.497  15.010  63.070  1.00  0.00    -0.820 K  
HETATM    2  C   UNL     2     -10.633  15.353  66.167  1.00  0.00    -0.316 C  
HETATM    3  H   UNL     2     -11.694  16.099  64.676  1.00  0.00     0.000 HD 
HETATM    4  O   UNL     2     -10.771  15.979  64.865  1.00  0.00    -0.576 OA 
ENDROOT
BRANCH   2   5
HETATM    5  C   UNL     2      -9.146  15.160  66.472  1.00  0.00    -0.294 C  
HETATM    6  O   UNL     2      -8.784  16.017  67.560  1.00  0.00    -0.177 OA 
HETATM    7  H   UNL     2      -7.861  15.897  67.749  1.00  0.00     0.000 HD 
ENDBRANCH   2   5
BRANCH   2   8
HETATM    8  C   UNL     2     -11.475  14.058  66.302  1.00  0.00    -0.351 C  
HETATM    9  O   UNL     2     -10.628  12.995  65.809  1.00  0.00    -0.269 OA 
HETATM   10  H   UNL     2     -11.144  12.202  65.892  1.00  0.00     0.000 HD 
BRANCH   8  11
HETATM   11  C   UNL     2     -12.015  13.763  67.733  1.00  0.00    -0.356 C  
HETATM   12  O   UNL     2     -12.515  14.959  68.362  1.00  0.00    -0.559 OA 
HETATM   13  H   UNL     2     -12.844  14.779  69.235  1.00  0.00     0.000 HD 
BRANCH  11  14
HETATM   14  C   UNL     2     -11.011  13.066  68.667  1.00  0.00    -0.265 C  
HETATM   15  C   UNL     2     -11.512  11.662  69.107  1.00  0.00    -0.300 C  
HETATM   16  O   UNL     2     -10.717  13.885  69.815  1.00  0.00    -0.447 OA 
HETATM   17  H   UNL     2     -10.097  13.454  70.391  1.00  0.00     0.000 HD 
HETATM   18  O   UNL     2     -12.155  11.031  68.211  1.00  0.00    -0.604 OA 
HETATM   19  O   UNL     2     -11.290  11.385  70.320  1.00  0.00    -0.223 OA 
ENDBRANCH  11  14
ENDBRANCH   8  11
ENDBRANCH   2   8
TORSDOF 4
ENDMDL
MODEL      124
REMARK 921   NORMALIZED FREE ENERGY PREDICTED BY IDOCK:   -3.99 KCAL/MOL
REMARK 922        TOTAL FREE ENERGY PREDICTED BY IDOCK:   -5.93 KCAL/MOL
REMARK 923 INTER-LIGAND FREE ENERGY PREDICTED BY IDOCK:   -4.99 KCAL/MOL
REMARK 924 INTRA-LIGAND FREE ENERGY PREDICTED BY IDOCK:   -0.94 KCAL/MOL
REMARK 927      BINDING AFFINITY PREDICTED BY RF-SCORE:    0.00 PKD
ROOT
HETATM    1  K   UNL     1     -11.592  19.570  67.129  1.00  0.00    -0.444 K  
HETATM    2  C   UNL     2      -8.418  17.809  67.218  1.00  0.00    -0.231 C  
HETATM    3  H   UNL     2      -9.550  19.386  67.585  1.00  0.00     0.000 HD 
HETATM    4  O   UNL     2      -8.971  19.109  66.886  1.00  0.00    -0.286 OA 
ENDROOT
BRANCH   2   5
HETATM    5  C   UNL     2      -7.483  17.362  66.091  1.00  0.00    -0.296 C  
HETATM    6  O   UNL     2      -6.493  16.483  66.635  1.00  0.00    -0.258 OA 
HETATM    7  H   UNL     2      -5.914  16.206  65.936  1.00  0.00     0.000 HD 
ENDBRANCH   2   5
BRANCH   2   8
HETATM    8  C   UNL     2      -9.508  16.767  67.579  1.00  0.00    -0.237 C  
HETATM    9  O   UNL     2     -10.547  17.514  68.251  1.00  0.00    -0.372 OA 
HETATM   10  H   UNL     2     -11.215  16.877  68.472  1.00  0.00     0.000 HD 
BRANCH   8  11
HETATM   11  C   UNL     2     -10.061  15.942  66.379  1.00  0.00    -0.292 C  
HETATM   12  O   UNL     2     -10.707  16.791  65.411  1.00  0.00    -0.507 OA 
HETATM   13  H   UNL     2     -11.044  16.287  64.679  1.00  0.00     0.000 HD 
BRANCH  11  14
HETATM   14  C   UNL     2     -11.004  14.791  66.771  1.00  0.00    -0.327 C  
HETATM   15  C   UNL     2     -11.698  14.166  65.529  1.00  0.00    -0.344 C  
HETATM   16  O   UNL     2     -11.980  15.228  67.735  1.00  0.00    -0.412 OA 
HETATM   17  H   UNL     2     -12.562  14.517  67.977  1.00  0.00     0.000 HD 
HETATM   18  O   UNL     2     -10.970  14.121  64.489  1.00  0.00    -0.385 OA 
HETATM   19  O   UNL     2     -12.916  13.878  65.702  1.00  0.00    -0.599 OA 
ENDBRANCH  11  14
ENDBRANCH   8  11
ENDBRANCH   2   8
TORSDOF 4
ENDMDL
MODEL      125
REMARK 921   NORMALIZED FREE ENERGY PREDICTED BY IDOCK:   -3.98 KCAL/MOL
REMARK 922        TOTAL FREE ENERGY PREDICTED BY IDOCK:   -5.91 KCAL/MOL
REMARK 923 INTER-LIGAND FREE ENERGY PREDICTED BY IDOCK:   -5.10 KCAL/MOL
REMARK 924 INTRA-LIGAND FREE ENERGY PREDICTED BY IDOCK:   -0.82 KCAL/MOL
REMARK 927      BINDING AFFINITY PREDICTED BY RF-SCORE:    0.00 PKD
ROOT
HETATM    1  K   UNL     1     -14.258   7.394  70.572  1.00  0.00    -0.627 K  
HETATM    2  C   UNL     2     -12.200  10.367  70.899  1.00  0.00    -0.383 C  
HETATM    3  H   UNL     2     -13.803   9.297  71.334  1.00  0.00     0.000 HD 
HETATM    4  O   UNL     2     -13.585   9.976  70.707  1.00  0.00    -0.252 OA 
ENDROOT
BRANCH   2   5
HETATM    5  C   UNL     2     -11.847  11.462  69.889  1.00  0.00    -0.359 C  
HETATM    6  O   UNL     2     -12.355  11.085  68.605  1.00  0.00    -0.753 OA 
HETATM    7  H   UNL     2     -12.136  11.763  67.978  1.00  0.00     0.000 HD 
ENDBRANCH   2   5
BRANCH   2   8
HETATM    8  C   UNL     2     -11.227   9.160  70.881  1.00  0.00    -0.295 C  
HETATM    9  O   UNL     2      -9.923   9.711  71.170  1.00  0.00    -0.270 OA 
HETATM   10  H   UNL     2      -9.327   8.971  71.159  1.00  0.00     0.000 HD 
BRANCH   8  11
HETATM   11  C   UNL     2     -11.599   7.993  71.844  1.00  0.00    -0.298 C  
HETATM   12  O   UNL     2     -12.514   8.430  72.868  1.00  0.00    -0.616 OA 
HETATM   13  H   UNL     2     -12.741   7.718  73.456  1.00  0.00     0.000 HD 
BRANCH  11  14
HETATM   14  C   UNL     2     -10.396   7.285  72.489  1.00  0.00    -0.218 C  
HETATM   15  C   UNL     2     -10.821   5.984  73.227  1.00  0.00    -0.252 C  
HETATM   16  O   UNL     2      -9.692   8.170  73.381  1.00  0.00    -0.248 OA 
HETATM   17  H   UNL     2      -8.949   7.732  73.779  1.00  0.00     0.000 HD 
HETATM   18  O   UNL     2     -11.760   5.344  72.660  1.00  0.00    -0.271 OA 
HETATM   19  O   UNL     2     -10.237   5.797  74.332  1.00  0.00    -0.255 OA 
ENDBRANCH  11  14
ENDBRANCH   8  11
ENDBRANCH   2   8
TORSDOF 4
ENDMDL
MODEL      126
REMARK 921   NORMALIZED FREE ENERGY PREDICTED BY IDOCK:   -3.97 KCAL/MOL
REMARK 922        TOTAL FREE ENERGY PREDICTED BY IDOCK:   -5.91 KCAL/MOL
REMARK 923 INTER-LIGAND FREE ENERGY PREDICTED BY IDOCK:   -5.37 KCAL/MOL
REMARK 924 INTRA-LIGAND FREE ENERGY PREDICTED BY IDOCK:   -0.54 KCAL/MOL
REMARK 927      BINDING AFFINITY PREDICTED BY RF-SCORE:    0.00 PKD
ROOT
HETATM    1  K   UNL     1     -13.440  14.457  66.398  1.00  0.00    -0.582 K  
HETATM    2  C   UNL     2     -10.647  14.978  68.659  1.00  0.00    -0.237 C  
HETATM    3  H   UNL     2     -12.579  14.978  68.241  1.00  0.00     0.000 HD 
HETATM    4  O   UNL     2     -11.877  15.618  68.228  1.00  0.00    -0.318 OA 
ENDROOT
BRANCH   2   5
HETATM    5  C   UNL     2      -9.516  16.009  68.639  1.00  0.00    -0.224 C  
HETATM    6  O   UNL     2      -9.397  16.535  67.313  1.00  0.00    -0.218 OA 
HETATM    7  H   UNL     2      -8.695  17.174  67.300  1.00  0.00     0.000 HD 
ENDBRANCH   2   5
BRANCH   2   8
HETATM    8  C   UNL     2     -10.333  13.685  67.864  1.00  0.00    -0.249 C  
HETATM    9  O   UNL     2     -10.328  12.621  68.842  1.00  0.00    -0.393 OA 
HETATM   10  H   UNL     2     -10.135  11.830  68.355  1.00  0.00     0.000 HD 
BRANCH   8  11
HETATM   11  C   UNL     2     -11.296  13.386  66.676  1.00  0.00    -0.323 C  
HETATM   12  O   UNL     2     -12.033  12.167  66.892  1.00  0.00    -0.603 OA 
HETATM   13  H   UNL     2     -12.620  11.984  66.167  1.00  0.00     0.000 HD 
BRANCH  11  14
HETATM   14  C   UNL     2     -10.619  13.346  65.295  1.00  0.00    -0.325 C  
HETATM   15  C   UNL     2     -11.621  12.954  64.173  1.00  0.00    -0.398 C  
HETATM   16  O   UNL     2      -9.486  12.457  65.299  1.00  0.00    -0.448 OA 
HETATM   17  H   UNL     2      -9.068  12.433  64.447  1.00  0.00     0.000 HD 
HETATM   18  O   UNL     2     -12.796  13.408  64.339  1.00  0.00    -0.644 OA 
HETATM   19  O   UNL     2     -11.151  12.166  63.306  1.00  0.00    -0.410 OA 
ENDBRANCH  11  14
ENDBRANCH   8  11
ENDBRANCH   2   8
TORSDOF 4
ENDMDL
MODEL      127
REMARK 921   NORMALIZED FREE ENERGY PREDICTED BY IDOCK:   -3.96 KCAL/MOL
REMARK 922        TOTAL FREE ENERGY PREDICTED BY IDOCK:   -5.90 KCAL/MOL
REMARK 923 INTER-LIGAND FREE ENERGY PREDICTED BY IDOCK:   -4.85 KCAL/MOL
REMARK 924 INTRA-LIGAND FREE ENERGY PREDICTED BY IDOCK:   -1.05 KCAL/MOL
REMARK 927      BINDING AFFINITY PREDICTED BY RF-SCORE:    0.00 PKD
ROOT
HETATM    1  K   UNL     1     -11.998   6.689  68.250  1.00  0.00    -0.539 K  
HETATM    2  C   UNL     2      -9.370   9.191  68.388  1.00  0.00    -0.135 C  
HETATM    3  H   UNL     2     -10.384   7.773  67.457  1.00  0.00     0.000 HD 
HETATM    4  O   UNL     2      -9.591   7.816  67.976  1.00  0.00    -0.146 OA 
ENDROOT
BRANCH   2   5
HETATM    5  C   UNL     2      -8.091   9.261  69.226  1.00  0.00    -0.106 C  
HETATM    6  O   UNL     2      -7.913  10.606  69.681  1.00  0.00    -0.327 OA 
HETATM    7  H   UNL     2      -7.119  10.649  70.201  1.00  0.00     0.000 HD 
ENDBRANCH   2   5
BRANCH   2   8
HETATM    8  C   UNL     2     -10.609   9.816  69.079  1.00  0.00    -0.219 C  
HETATM    9  O   UNL     2     -11.640   9.849  68.067  1.00  0.00    -0.602 OA 
HETATM   10  H   UNL     2     -12.399  10.232  68.490  1.00  0.00     0.000 HD 
BRANCH   8  11
HETATM   11  C   UNL     2     -11.081   9.093  70.376  1.00  0.00    -0.253 C  
HETATM   12  O   UNL     2     -11.514   7.748  70.099  1.00  0.00    -0.453 OA 
HETATM   13  H   UNL     2     -11.802   7.307  70.890  1.00  0.00     0.000 HD 
BRANCH  11  14
HETATM   14  C   UNL     2     -12.172   9.838  71.165  1.00  0.00    -0.362 C  
HETATM   15  C   UNL     2     -12.835   8.924  72.234  1.00  0.00    -0.411 C  
HETATM   16  O   UNL     2     -13.164  10.391  70.281  1.00  0.00    -0.488 OA 
HETATM   17  H   UNL     2     -13.837  10.851  70.768  1.00  0.00     0.000 HD 
HETATM   18  O   UNL     2     -12.039   8.103  72.787  1.00  0.00    -0.337 OA 
HETATM   19  O   UNL     2     -14.086   9.063  72.334  1.00  0.00    -0.469 OA 
ENDBRANCH  11  14
ENDBRANCH   8  11
ENDBRANCH   2   8
TORSDOF 4
ENDMDL
MODEL      128
REMARK 921   NORMALIZED FREE ENERGY PREDICTED BY IDOCK:   -3.96 KCAL/MOL
REMARK 922        TOTAL FREE ENERGY PREDICTED BY IDOCK:   -5.89 KCAL/MOL
REMARK 923 INTER-LIGAND FREE ENERGY PREDICTED BY IDOCK:   -5.15 KCAL/MOL
REMARK 924 INTRA-LIGAND FREE ENERGY PREDICTED BY IDOCK:   -0.74 KCAL/MOL
REMARK 927      BINDING AFFINITY PREDICTED BY RF-SCORE:    0.00 PKD
ROOT
HETATM    1  K   UNL     1     -10.171   9.149  64.640  1.00  0.00    -0.390 K  
HETATM    2  C   UNL     2      -9.888  10.925  67.794  1.00  0.00    -0.175 C  
HETATM    3  H   UNL     2      -9.103  10.087  66.185  1.00  0.00     0.000 HD 
HETATM    4  O   UNL     2      -9.293   9.813  67.074  1.00  0.00    -0.143 OA 
ENDROOT
BRANCH   2   5
HETATM    5  C   UNL     2     -10.194  10.483  69.227  1.00  0.00    -0.225 C  
HETATM    6  O   UNL     2     -11.500   9.896  69.260  1.00  0.00    -0.430 OA 
HETATM    7  H   UNL     2     -11.689   9.623  70.149  1.00  0.00     0.000 HD 
ENDBRANCH   2   5
BRANCH   2   8
HETATM    8  C   UNL     2     -11.105  11.536  67.053  1.00  0.00    -0.307 C  
HETATM    9  O   UNL     2     -11.716  12.444  67.997  1.00  0.00    -0.329 OA 
HETATM   10  H   UNL     2     -12.461  12.818  67.544  1.00  0.00     0.000 HD 
BRANCH   8  11
HETATM   11  C   UNL     2     -10.776  12.232  65.698  1.00  0.00    -0.267 C  
HETATM   12  O   UNL     2      -9.405  12.010  65.314  1.00  0.00    -0.423 OA 
HETATM   13  H   UNL     2      -9.205  12.435  64.487  1.00  0.00     0.000 HD 
BRANCH  11  14
HETATM   14  C   UNL     2     -11.090  13.737  65.657  1.00  0.00    -0.295 C  
HETATM   15  C   UNL     2     -12.332  14.043  64.773  1.00  0.00    -0.413 C  
HETATM   16  O   UNL     2      -9.948  14.492  65.210  1.00  0.00    -0.444 OA 
HETATM   17  H   UNL     2     -10.142  15.422  65.185  1.00  0.00     0.000 HD 
HETATM   18  O   UNL     2     -13.245  13.162  64.831  1.00  0.00    -0.705 OA 
HETATM   19  O   UNL     2     -12.218  15.075  64.054  1.00  0.00    -0.607 OA 
ENDBRANCH  11  14
ENDBRANCH   8  11
ENDBRANCH   2   8
TORSDOF 4
ENDMDL
MODEL      129
REMARK 921   NORMALIZED FREE ENERGY PREDICTED BY IDOCK:   -3.95 KCAL/MOL
REMARK 922        TOTAL FREE ENERGY PREDICTED BY IDOCK:   -5.88 KCAL/MOL
REMARK 923 INTER-LIGAND FREE ENERGY PREDICTED BY IDOCK:   -4.82 KCAL/MOL
REMARK 924 INTRA-LIGAND FREE ENERGY PREDICTED BY IDOCK:   -1.06 KCAL/MOL
REMARK 927      BINDING AFFINITY PREDICTED BY RF-SCORE:    0.00 PKD
ROOT
HETATM    1  K   UNL     1     -10.008  13.094  66.933  1.00  0.00    -0.214 K  
HETATM    2  C   UNL     2     -10.850  16.586  67.464  1.00  0.00    -0.237 C  
HETATM    3  H   UNL     2     -11.099  14.848  66.557  1.00  0.00     0.000 HD 
HETATM    4  O   UNL     2     -10.605  15.641  66.389  1.00  0.00    -0.301 OA 
ENDROOT
BRANCH   2   5
HETATM    5  C   UNL     2     -10.053  17.864  67.195  1.00  0.00    -0.340 C  
HETATM    6  O   UNL     2     -10.803  18.984  67.678  1.00  0.00    -0.438 OA 
HETATM    7  H   UNL     2     -10.309  19.778  67.511  1.00  0.00     0.000 HD 
ENDBRANCH   2   5
BRANCH   2   8
HETATM    8  C   UNL     2     -10.602  15.975  68.868  1.00  0.00    -0.257 C  
HETATM    9  O   UNL     2     -10.725  17.077  69.795  1.00  0.00    -0.346 OA 
HETATM   10  H   UNL     2     -10.574  16.704  70.654  1.00  0.00     0.000 HD 
BRANCH   8  11
HETATM   11  C   UNL     2     -11.530  14.782  69.246  1.00  0.00    -0.296 C  
HETATM   12  O   UNL     2     -12.491  14.514  68.206  1.00  0.00    -0.592 OA 
HETATM   13  H   UNL     2     -13.057  13.787  68.437  1.00  0.00     0.000 HD 
BRANCH  11  14
HETATM   14  C   UNL     2     -12.253  14.934  70.595  1.00  0.00    -0.318 C  
HETATM   15  C   UNL     2     -12.959  13.617  71.022  1.00  0.00    -0.232 C  
HETATM   16  O   UNL     2     -13.191  16.026  70.560  1.00  0.00    -0.657 OA 
HETATM   17  H   UNL     2     -13.637  16.120  71.393  1.00  0.00     0.000 HD 
HETATM   18  O   UNL     2     -12.330  12.559  70.706  1.00  0.00    -0.377 OA 
HETATM   19  O   UNL     2     -14.100  13.780  71.539  1.00  0.00    -0.215 OA 
ENDBRANCH  11  14
ENDBRANCH   8  11
ENDBRANCH   2   8
TORSDOF 4
ENDMDL
MODEL      130
REMARK 921   NORMALIZED FREE ENERGY PREDICTED BY IDOCK:   -3.91 KCAL/MOL
REMARK 922        TOTAL FREE ENERGY PREDICTED BY IDOCK:   -5.83 KCAL/MOL
REMARK 923 INTER-LIGAND FREE ENERGY PREDICTED BY IDOCK:   -4.98 KCAL/MOL
REMARK 924 INTRA-LIGAND FREE ENERGY PREDICTED BY IDOCK:   -0.84 KCAL/MOL
REMARK 927      BINDING AFFINITY PREDICTED BY RF-SCORE:    0.00 PKD
ROOT
HETATM    1  K   UNL     1      -8.603  14.460  65.553  1.00  0.00    -0.401 K  
HETATM    2  C   UNL     2     -11.016  12.019  64.370  1.00  0.00    -0.333 C  
HETATM    3  H   UNL     2      -9.359  13.077  64.166  1.00  0.00     0.000 HD 
HETATM    4  O   UNL     2     -10.267  13.173  63.906  1.00  0.00    -0.365 OA 
ENDROOT
BRANCH   2   5
HETATM    5  C   UNL     2     -12.480  12.174  63.950  1.00  0.00    -0.478 C  
HETATM    6  O   UNL     2     -12.722  11.344  62.809  1.00  0.00    -0.927 OA 
HETATM    7  H   UNL     2     -13.630  11.440  62.548  1.00  0.00     0.000 HD 
ENDBRANCH   2   5
BRANCH   2   8
HETATM    8  C   UNL     2     -10.823  11.747  65.884  1.00  0.00    -0.291 C  
HETATM    9  O   UNL     2      -9.459  11.289  66.022  1.00  0.00    -0.201 OA 
HETATM   10  H   UNL     2      -9.340  11.122  66.949  1.00  0.00     0.000 HD 
BRANCH   8  11
HETATM   11  C   UNL     2     -11.135  12.953  66.820  1.00  0.00    -0.281 C  
HETATM   12  O   UNL     2      -9.936  13.674  67.165  1.00  0.00    -0.239 OA 
HETATM   13  H   UNL     2     -10.126  14.409  67.737  1.00  0.00     0.000 HD 
BRANCH  11  14
HETATM   14  C   UNL     2     -11.909  12.589  68.099  1.00  0.00    -0.317 C  
HETATM   15  C   UNL     2     -12.006  13.795  69.076  1.00  0.00    -0.360 C  
HETATM   16  O   UNL     2     -11.322  11.449  68.753  1.00  0.00    -0.220 OA 
HETATM   17  H   UNL     2     -11.800  11.225  69.542  1.00  0.00     0.000 HD 
HETATM   18  O   UNL     2     -12.131  14.923  68.506  1.00  0.00    -0.263 OA 
HETATM   19  O   UNL     2     -11.853  13.492  70.293  1.00  0.00    -0.309 OA 
ENDBRANCH  11  14
ENDBRANCH   8  11
ENDBRANCH   2   8
TORSDOF 4
ENDMDL
MODEL      131
REMARK 921   NORMALIZED FREE ENERGY PREDICTED BY IDOCK:   -3.90 KCAL/MOL
REMARK 922        TOTAL FREE ENERGY PREDICTED BY IDOCK:   -5.82 KCAL/MOL
REMARK 923 INTER-LIGAND FREE ENERGY PREDICTED BY IDOCK:   -5.38 KCAL/MOL
REMARK 924 INTRA-LIGAND FREE ENERGY PREDICTED BY IDOCK:   -0.44 KCAL/MOL
REMARK 927      BINDING AFFINITY PREDICTED BY RF-SCORE:    0.00 PKD
ROOT
HETATM    1  K   UNL     1     -11.387  18.755  67.399  1.00  0.00    -0.425 K  
HETATM    2  C   UNL     2      -9.970  15.439  66.975  1.00  0.00    -0.238 C  
HETATM    3  H   UNL     2     -10.666  16.910  68.096  1.00  0.00     0.000 HD 
HETATM    4  O   UNL     2      -9.812  16.632  67.788  1.00  0.00    -0.244 OA 
ENDROOT
BRANCH   2   5
HETATM    5  C   UNL     2      -8.594  14.990  66.478  1.00  0.00    -0.144 C  
HETATM    6  O   UNL     2      -7.625  15.261  67.496  1.00  0.00    -0.152 OA 
HETATM    7  H   UNL     2      -6.771  14.982  67.188  1.00  0.00     0.000 HD 
ENDBRANCH   2   5
BRANCH   2   8
HETATM    8  C   UNL     2     -11.018  15.616  65.847  1.00  0.00    -0.231 C  
HETATM    9  O   UNL     2     -10.266  15.592  64.613  1.00  0.00    -0.505 OA 
HETATM   10  H   UNL     2     -10.907  15.701  63.923  1.00  0.00     0.000 HD 
BRANCH   8  11
HETATM   11  C   UNL     2     -12.177  14.575  65.848  1.00  0.00    -0.259 C  
HETATM   12  O   UNL     2     -12.650  14.317  67.185  1.00  0.00    -0.546 OA 
HETATM   13  H   UNL     2     -13.357  13.682  67.185  1.00  0.00     0.000 HD 
BRANCH  11  14
HETATM   14  C   UNL     2     -11.847  13.246  65.149  1.00  0.00    -0.348 C  
HETATM   15  C   UNL     2     -12.505  13.155  63.743  1.00  0.00    -0.288 C  
HETATM   16  O   UNL     2     -12.230  12.123  65.964  1.00  0.00    -0.609 OA 
HETATM   17  H   UNL     2     -12.025  11.302  65.531  1.00  0.00     0.000 HD 
HETATM   18  O   UNL     2     -12.553  14.258  63.115  1.00  0.00    -0.615 OA 
HETATM   19  O   UNL     2     -12.983  12.019  63.463  1.00  0.00    -0.774 OA 
ENDBRANCH  11  14
ENDBRANCH   8  11
ENDBRANCH   2   8
TORSDOF 4
ENDMDL
MODEL      132
REMARK 921   NORMALIZED FREE ENERGY PREDICTED BY IDOCK:   -3.89 KCAL/MOL
REMARK 922        TOTAL FREE ENERGY PREDICTED BY IDOCK:   -5.81 KCAL/MOL
REMARK 923 INTER-LIGAND FREE ENERGY PREDICTED BY IDOCK:   -4.75 KCAL/MOL
REMARK 924 INTRA-LIGAND FREE ENERGY PREDICTED BY IDOCK:   -1.06 KCAL/MOL
REMARK 927      BINDING AFFINITY PREDICTED BY RF-SCORE:    0.00 PKD
ROOT
HETATM    1  K   UNL     1      -8.035  13.710  66.485  1.00  0.00    -0.352 K  
HETATM    2  C   UNL     2     -10.908  15.612  67.631  1.00  0.00    -0.307 C  
HETATM    3  H   UNL     2      -9.206  15.446  66.640  1.00  0.00     0.000 HD 
HETATM    4  O   UNL     2      -9.465  15.720  67.511  1.00  0.00    -0.216 OA 
ENDROOT
BRANCH   2   5
HETATM    5  C   UNL     2     -11.325  16.054  69.035  1.00  0.00    -0.363 C  
HETATM    6  O   UNL     2     -12.563  15.417  69.369  1.00  0.00    -0.596 OA 
HETATM    7  H   UNL     2     -12.822  15.692  70.240  1.00  0.00     0.000 HD 
ENDBRANCH   2   5
BRANCH   2   8
HETATM    8  C   UNL     2     -11.439  14.212  67.229  1.00  0.00    -0.350 C  
HETATM    9  O   UNL     2     -12.754  14.443  66.675  1.00  0.00    -0.485 OA 
HETATM   10  H   UNL     2     -13.080  13.586  66.429  1.00  0.00     0.000 HD 
BRANCH   8  11
HETATM   11  C   UNL     2     -10.525  13.408  66.257  1.00  0.00    -0.289 C  
HETATM   12  O   UNL     2     -10.198  14.179  65.085  1.00  0.00    -0.376 OA 
HETATM   13  H   UNL     2      -9.640  13.689  64.492  1.00  0.00     0.000 HD 
BRANCH  11  14
HETATM   14  C   UNL     2     -11.082  12.037  65.838  1.00  0.00    -0.324 C  
HETATM   15  C   UNL     2      -9.976  11.124  65.237  1.00  0.00    -0.260 C  
HETATM   16  O   UNL     2     -12.178  12.184  64.915  1.00  0.00    -0.358 OA 
HETATM   17  H   UNL     2     -12.522  11.337  64.657  1.00  0.00     0.000 HD 
HETATM   18  O   UNL     2      -8.837  11.254  65.783  1.00  0.00    -0.196 OA 
HETATM   19  O   UNL     2     -10.343  10.452  64.233  1.00  0.00    -0.282 OA 
ENDBRANCH  11  14
ENDBRANCH   8  11
ENDBRANCH   2   8
TORSDOF 4
ENDMDL
MODEL      133
REMARK 921   NORMALIZED FREE ENERGY PREDICTED BY IDOCK:   -3.89 KCAL/MOL
REMARK 922        TOTAL FREE ENERGY PREDICTED BY IDOCK:   -5.81 KCAL/MOL
REMARK 923 INTER-LIGAND FREE ENERGY PREDICTED BY IDOCK:   -5.12 KCAL/MOL
REMARK 924 INTRA-LIGAND FREE ENERGY PREDICTED BY IDOCK:   -0.69 KCAL/MOL
REMARK 927      BINDING AFFINITY PREDICTED BY RF-SCORE:    0.00 PKD
ROOT
HETATM    1  K   UNL     1     -11.640  13.712  62.870  1.00  0.00    -0.650 K  
HETATM    2  C   UNL     2     -12.033  14.087  66.460  1.00  0.00    -0.444 C  
HETATM    3  H   UNL     2     -12.653  14.335  64.600  1.00  0.00     0.000 HD 
HETATM    4  O   UNL     2     -12.163  14.848  65.231  1.00  0.00    -0.211 OA 
ENDROOT
BRANCH   2   5
HETATM    5  C   UNL     2     -11.242  14.914  67.477  1.00  0.00    -0.328 C  
HETATM    6  O   UNL     2     -12.058  15.122  68.635  1.00  0.00    -0.550 OA 
HETATM    7  H   UNL     2     -11.568  15.635  69.266  1.00  0.00     0.000 HD 
ENDBRANCH   2   5
BRANCH   2   8
HETATM    8  C   UNL     2     -11.460  12.665  66.227  1.00  0.00    -0.364 C  
HETATM    9  O   UNL     2     -12.320  12.061  65.234  1.00  0.00    -0.442 OA 
HETATM   10  H   UNL     2     -11.970  11.190  65.092  1.00  0.00     0.000 HD 
BRANCH   8  11
HETATM   11  C   UNL     2      -9.959  12.613  65.813  1.00  0.00    -0.256 C  
HETATM   12  O   UNL     2      -9.789  12.912  64.414  1.00  0.00    -0.590 OA 
HETATM   13  H   UNL     2      -8.873  12.880  64.162  1.00  0.00     0.000 HD 
BRANCH  11  14
HETATM   14  C   UNL     2      -9.245  11.293  66.153  1.00  0.00    -0.206 C  
HETATM   15  C   UNL     2      -9.805  10.104  65.322  1.00  0.00    -0.319 C  
HETATM   16  O   UNL     2      -9.323  11.011  67.563  1.00  0.00    -0.157 OA 
HETATM   17  H   UNL     2      -8.882  10.196  67.772  1.00  0.00     0.000 HD 
HETATM   18  O   UNL     2     -10.140  10.408  64.135  1.00  0.00    -0.322 OA 
HETATM   19  O   UNL     2      -9.934   9.029  65.972  1.00  0.00    -0.283 OA 
ENDBRANCH  11  14
ENDBRANCH   8  11
ENDBRANCH   2   8
TORSDOF 4
ENDMDL
MODEL      134
REMARK 921   NORMALIZED FREE ENERGY PREDICTED BY IDOCK:   -3.89 KCAL/MOL
REMARK 922        TOTAL FREE ENERGY PREDICTED BY IDOCK:   -5.81 KCAL/MOL
REMARK 923 INTER-LIGAND FREE ENERGY PREDICTED BY IDOCK:   -4.90 KCAL/MOL
REMARK 924 INTRA-LIGAND FREE ENERGY PREDICTED BY IDOCK:   -0.90 KCAL/MOL
REMARK 927      BINDING AFFINITY PREDICTED BY RF-SCORE:    0.00 PKD
ROOT
HETATM    1  K   UNL     1      -9.146  12.830  65.352  1.00  0.00    -0.408 K  
HETATM    2  C   UNL     2     -11.669  14.637  67.236  1.00  0.00    -0.385 C  
HETATM    3  H   UNL     2     -10.561  14.357  65.624  1.00  0.00     0.000 HD 
HETATM    4  O   UNL     2     -10.495  14.876  66.417  1.00  0.00    -0.284 OA 
ENDROOT
BRANCH   2   5
HETATM    5  C   UNL     2     -11.563  15.473  68.514  1.00  0.00    -0.368 C  
HETATM    6  O   UNL     2     -12.693  15.187  69.346  1.00  0.00    -0.577 OA 
HETATM    7  H   UNL     2     -12.627  15.706  70.139  1.00  0.00     0.000 HD 
ENDBRANCH   2   5
BRANCH   2   8
HETATM    8  C   UNL     2     -11.926  13.130  67.492  1.00  0.00    -0.317 C  
HETATM    9  O   UNL     2     -12.190  12.558  66.191  1.00  0.00    -0.609 OA 
HETATM   10  H   UNL     2     -12.348  11.635  66.347  1.00  0.00     0.000 HD 
BRANCH   8  11
HETATM   11  C   UNL     2     -10.786  12.380  68.243  1.00  0.00    -0.237 C  
HETATM   12  O   UNL     2      -9.720  12.012  67.346  1.00  0.00    -0.180 OA 
HETATM   13  H   UNL     2      -9.025  11.555  67.805  1.00  0.00     0.000 HD 
BRANCH  11  14
HETATM   14  C   UNL     2     -11.245  11.145  69.038  1.00  0.00    -0.256 C  
HETATM   15  C   UNL     2     -10.091  10.120  69.227  1.00  0.00    -0.222 C  
HETATM   16  O   UNL     2     -12.383  10.522  68.415  1.00  0.00    -0.700 OA 
HETATM   17  H   UNL     2     -12.666   9.760  68.906  1.00  0.00     0.000 HD 
HETATM   18  O   UNL     2      -8.946  10.645  69.392  1.00  0.00    -0.139 OA 
HETATM   19  O   UNL     2     -10.440   8.913  69.098  1.00  0.00    -0.224 OA 
ENDBRANCH  11  14
ENDBRANCH   8  11
ENDBRANCH   2   8
TORSDOF 4
ENDMDL
MODEL      135
REMARK 921   NORMALIZED FREE ENERGY PREDICTED BY IDOCK:   -3.88 KCAL/MOL
REMARK 922        TOTAL FREE ENERGY PREDICTED BY IDOCK:   -5.80 KCAL/MOL
REMARK 923 INTER-LIGAND FREE ENERGY PREDICTED BY IDOCK:   -4.79 KCAL/MOL
REMARK 924 INTRA-LIGAND FREE ENERGY PREDICTED BY IDOCK:   -1.01 KCAL/MOL
REMARK 927      BINDING AFFINITY PREDICTED BY RF-SCORE:    0.00 PKD
ROOT
HETATM    1  K   UNL     1     -10.498   7.832  65.622  1.00  0.00    -0.407 K  
HETATM    2  C   UNL     2     -10.328   9.577  68.802  1.00  0.00    -0.208 C  
HETATM    3  H   UNL     2      -9.546   8.430  67.396  1.00  0.00     0.000 HD 
HETATM    4  O   UNL     2     -10.013   8.289  68.210  1.00  0.00    -0.177 OA 
ENDROOT
BRANCH   2   5
HETATM    5  C   UNL     2     -11.081   9.351  70.114  1.00  0.00    -0.242 C  
HETATM    6  O   UNL     2     -11.184  10.600  70.808  1.00  0.00    -0.392 OA 
HETATM    7  H   UNL     2     -11.652  10.459  71.622  1.00  0.00     0.000 HD 
ENDBRANCH   2   5
BRANCH   2   8
HETATM    8  C   UNL     2     -11.055  10.529  67.817  1.00  0.00    -0.317 C  
HETATM    9  O   UNL     2     -12.373  10.728  68.374  1.00  0.00    -0.813 OA 
HETATM   10  H   UNL     2     -12.818  11.311  67.771  1.00  0.00     0.000 HD 
BRANCH   8  11
HETATM   11  C   UNL     2     -10.325  11.876  67.536  1.00  0.00    -0.200 C  
HETATM   12  O   UNL     2     -10.340  12.733  68.694  1.00  0.00    -0.280 OA 
HETATM   13  H   UNL     2      -9.895  13.555  68.523  1.00  0.00     0.000 HD 
BRANCH  11  14
HETATM   14  C   UNL     2     -10.851  12.648  66.313  1.00  0.00    -0.273 C  
HETATM   15  C   UNL     2     -10.408  14.138  66.338  1.00  0.00    -0.287 C  
HETATM   16  O   UNL     2     -12.284  12.545  66.213  1.00  0.00    -0.600 OA 
HETATM   17  H   UNL     2     -12.608  13.021  65.457  1.00  0.00     0.000 HD 
HETATM   18  O   UNL     2      -9.245  14.330  66.812  1.00  0.00    -0.248 OA 
HETATM   19  O   UNL     2     -11.299  14.954  65.970  1.00  0.00    -0.342 OA 
ENDBRANCH  11  14
ENDBRANCH   8  11
ENDBRANCH   2   8
TORSDOF 4
ENDMDL
MODEL      136
REMARK 921   NORMALIZED FREE ENERGY PREDICTED BY IDOCK:   -3.87 KCAL/MOL
REMARK 922        TOTAL FREE ENERGY PREDICTED BY IDOCK:   -5.79 KCAL/MOL
REMARK 923 INTER-LIGAND FREE ENERGY PREDICTED BY IDOCK:   -4.96 KCAL/MOL
REMARK 924 INTRA-LIGAND FREE ENERGY PREDICTED BY IDOCK:   -0.83 KCAL/MOL
REMARK 927      BINDING AFFINITY PREDICTED BY RF-SCORE:    0.00 PKD
ROOT
HETATM    1  K   UNL     1     -13.447   7.414  70.352  1.00  0.00    -0.571 K  
HETATM    2  C   UNL     2     -12.564  10.680  71.671  1.00  0.00    -0.377 C  
HETATM    3  H   UNL     2     -13.209   8.824  71.889  1.00  0.00     0.000 HD 
HETATM    4  O   UNL     2     -13.609   9.676  71.765  1.00  0.00    -0.379 OA 
ENDROOT
BRANCH   2   5
HETATM    5  C   UNL     2     -13.209  12.053  71.471  1.00  0.00    -0.178 C  
HETATM    6  O   UNL     2     -13.542  12.597  72.753  1.00  0.00    -0.661 OA 
HETATM    7  H   UNL     2     -13.943  13.449  72.628  1.00  0.00     0.000 HD 
ENDBRANCH   2   5
BRANCH   2   8
HETATM    8  C   UNL     2     -11.490  10.329  70.610  1.00  0.00    -0.349 C  
HETATM    9  O   UNL     2     -11.728   8.947  70.261  1.00  0.00    -0.460 OA 
HETATM   10  H   UNL     2     -11.070   8.733  69.611  1.00  0.00     0.000 HD 
BRANCH   8  11
HETATM   11  C   UNL     2     -11.466  11.256  69.358  1.00  0.00    -0.301 C  
HETATM   12  O   UNL     2     -12.458  10.858  68.392  1.00  0.00    -0.659 OA 
HETATM   13  H   UNL     2     -12.444  11.424  67.628  1.00  0.00     0.000 HD 
BRANCH  11  14
HETATM   14  C   UNL     2     -10.094  11.376  68.674  1.00  0.00    -0.210 C  
HETATM   15  C   UNL     2     -10.158  12.275  67.406  1.00  0.00    -0.200 C  
HETATM   16  O   UNL     2      -9.560  10.079  68.352  1.00  0.00    -0.142 OA 
HETATM   17  H   UNL     2      -8.713  10.153  67.929  1.00  0.00     0.000 HD 
HETATM   18  O   UNL     2     -10.957  13.258  67.502  1.00  0.00    -0.255 OA 
HETATM   19  O   UNL     2      -9.480  11.848  66.430  1.00  0.00    -0.217 OA 
ENDBRANCH  11  14
ENDBRANCH   8  11
ENDBRANCH   2   8
TORSDOF 4
ENDMDL
MODEL      137
REMARK 921   NORMALIZED FREE ENERGY PREDICTED BY IDOCK:   -3.86 KCAL/MOL
REMARK 922        TOTAL FREE ENERGY PREDICTED BY IDOCK:   -5.77 KCAL/MOL
REMARK 923 INTER-LIGAND FREE ENERGY PREDICTED BY IDOCK:   -5.30 KCAL/MOL
REMARK 924 INTRA-LIGAND FREE ENERGY PREDICTED BY IDOCK:   -0.48 KCAL/MOL
REMARK 927      BINDING AFFINITY PREDICTED BY RF-SCORE:    0.00 PKD
ROOT
HETATM    1  K   UNL     1      -9.462  10.398  69.223  1.00  0.00    -0.144 K  
HETATM    2  C   UNL     2      -9.667   9.272  65.777  1.00  0.00    -0.269 C  
HETATM    3  H   UNL     2     -10.124   9.120  67.694  1.00  0.00     0.000 HD 
HETATM    4  O   UNL     2      -9.465   8.752  67.118  1.00  0.00    -0.150 OA 
ENDROOT
BRANCH   2   5
HETATM    5  C   UNL     2      -8.606   8.679  64.848  1.00  0.00    -0.135 C  
HETATM    6  O   UNL     2      -8.572   7.259  65.033  1.00  0.00    -0.337 OA 
HETATM    7  H   UNL     2      -7.914   6.892  64.457  1.00  0.00     0.000 HD 
ENDBRANCH   2   5
BRANCH   2   8
HETATM    8  C   UNL     2      -9.742  10.820  65.738  1.00  0.00    -0.228 C  
HETATM    9  O   UNL     2      -8.449  11.257  65.264  1.00  0.00    -0.385 OA 
HETATM   10  H   UNL     2      -8.494  12.205  65.241  1.00  0.00     0.000 HD 
BRANCH   8  11
HETATM   11  C   UNL     2     -10.909  11.407  64.889  1.00  0.00    -0.257 C  
HETATM   12  O   UNL     2     -10.895  10.885  63.546  1.00  0.00    -0.556 OA 
HETATM   13  H   UNL     2     -11.607  11.243  63.028  1.00  0.00     0.000 HD 
BRANCH  11  14
HETATM   14  C   UNL     2     -10.962  12.944  64.847  1.00  0.00    -0.301 C  
HETATM   15  C   UNL     2     -12.367  13.461  64.429  1.00  0.00    -0.341 C  
HETATM   16  O   UNL     2      -9.944  13.474  63.977  1.00  0.00    -0.734 OA 
HETATM   17  H   UNL     2      -9.977  14.423  63.952  1.00  0.00     0.000 HD 
HETATM   18  O   UNL     2     -13.333  12.761  64.865  1.00  0.00    -0.736 OA 
HETATM   19  O   UNL     2     -12.346  14.448  63.640  1.00  0.00    -0.722 OA 
ENDBRANCH  11  14
ENDBRANCH   8  11
ENDBRANCH   2   8
TORSDOF 4
ENDMDL
MODEL      138
REMARK 921   NORMALIZED FREE ENERGY PREDICTED BY IDOCK:   -3.85 KCAL/MOL
REMARK 922        TOTAL FREE ENERGY PREDICTED BY IDOCK:   -5.76 KCAL/MOL
REMARK 923 INTER-LIGAND FREE ENERGY PREDICTED BY IDOCK:   -4.90 KCAL/MOL
REMARK 924 INTRA-LIGAND FREE ENERGY PREDICTED BY IDOCK:   -0.86 KCAL/MOL
REMARK 927      BINDING AFFINITY PREDICTED BY RF-SCORE:    0.00 PKD
ROOT
HETATM    1  K   UNL     1     -11.970  11.199  67.994  1.00  0.00    -0.262 K  
HETATM    2  C   UNL     2     -10.009  10.837  64.960  1.00  0.00    -0.300 C  
HETATM    3  H   UNL     2     -11.430  10.249  66.202  1.00  0.00     0.000 HD 
HETATM    4  O   UNL     2     -10.510  10.052  66.074  1.00  0.00    -0.186 OA 
ENDROOT
BRANCH   2   5
HETATM    5  C   UNL     2      -8.526  10.519  64.753  1.00  0.00    -0.147 C  
HETATM    6  O   UNL     2      -8.162  10.873  63.414  1.00  0.00    -0.362 OA 
HETATM    7  H   UNL     2      -7.242  10.675  63.286  1.00  0.00     0.000 HD 
ENDBRANCH   2   5
BRANCH   2   8
HETATM    8  C   UNL     2     -10.312  12.351  65.110  1.00  0.00    -0.287 C  
HETATM    9  O   UNL     2      -9.850  12.960  63.882  1.00  0.00    -0.686 OA 
HETATM   10  H   UNL     2     -10.035  13.886  63.974  1.00  0.00     0.000 HD 
BRANCH   8  11
HETATM   11  C   UNL     2     -11.797  12.703  65.418  1.00  0.00    -0.427 C  
HETATM   12  O   UNL     2     -12.547  12.923  64.208  1.00  0.00    -0.604 OA 
HETATM   13  H   UNL     2     -13.453  13.138  64.396  1.00  0.00     0.000 HD 
BRANCH  11  14
HETATM   14  C   UNL     2     -11.990  13.895  66.372  1.00  0.00    -0.438 C  
HETATM   15  C   UNL     2     -11.329  15.189  65.818  1.00  0.00    -0.238 C  
HETATM   16  O   UNL     2     -11.490  13.591  67.687  1.00  0.00    -0.285 OA 
HETATM   17  H   UNL     2     -11.609  14.327  68.276  1.00  0.00     0.000 HD 
HETATM   18  O   UNL     2     -11.398  15.313  64.556  1.00  0.00    -0.366 OA 
HETATM   19  O   UNL     2     -10.737  15.886  66.689  1.00  0.00    -0.316 OA 
ENDBRANCH  11  14
ENDBRANCH   8  11
ENDBRANCH   2   8
TORSDOF 4
ENDMDL
MODEL      139
REMARK 921   NORMALIZED FREE ENERGY PREDICTED BY IDOCK:   -3.85 KCAL/MOL
REMARK 922        TOTAL FREE ENERGY PREDICTED BY IDOCK:   -5.76 KCAL/MOL
REMARK 923 INTER-LIGAND FREE ENERGY PREDICTED BY IDOCK:   -5.31 KCAL/MOL
REMARK 924 INTRA-LIGAND FREE ENERGY PREDICTED BY IDOCK:   -0.45 KCAL/MOL
REMARK 927      BINDING AFFINITY PREDICTED BY RF-SCORE:    0.00 PKD
ROOT
HETATM    1  K   UNL     1     -12.094   6.548  68.724  1.00  0.00    -0.561 K  
HETATM    2  C   UNL     2     -10.822   7.824  71.877  1.00  0.00    -0.235 C  
HETATM    3  H   UNL     2     -10.578   7.225  70.009  1.00  0.00     0.000 HD 
HETATM    4  O   UNL     2     -10.523   6.823  70.868  1.00  0.00    -0.209 OA 
ENDROOT
BRANCH   2   5
HETATM    5  C   UNL     2     -10.734   7.177  73.261  1.00  0.00    -0.361 C  
HETATM    6  O   UNL     2     -11.238   5.840  73.177  1.00  0.00    -0.378 OA 
HETATM    7  H   UNL     2     -11.184   5.439  74.036  1.00  0.00     0.000 HD 
ENDBRANCH   2   5
BRANCH   2   8
HETATM    8  C   UNL     2     -12.160   8.562  71.612  1.00  0.00    -0.321 C  
HETATM    9  O   UNL     2     -13.006   8.241  72.739  1.00  0.00    -0.609 OA 
HETATM   10  H   UNL     2     -13.825   8.693  72.577  1.00  0.00     0.000 HD 
BRANCH   8  11
HETATM   11  C   UNL     2     -12.037  10.098  71.387  1.00  0.00    -0.382 C  
HETATM   12  O   UNL     2     -13.325  10.742  71.443  1.00  0.00    -0.310 OA 
HETATM   13  H   UNL     2     -13.250  11.679  71.305  1.00  0.00     0.000 HD 
BRANCH  11  14
HETATM   14  C   UNL     2     -11.310  10.502  70.093  1.00  0.00    -0.323 C  
HETATM   15  C   UNL     2     -11.786  11.887  69.573  1.00  0.00    -0.345 C  
HETATM   16  O   UNL     2     -11.466   9.495  69.076  1.00  0.00    -0.452 OA 
HETATM   17  H   UNL     2     -11.017   9.744  68.277  1.00  0.00     0.000 HD 
HETATM   18  O   UNL     2     -12.056  12.726  70.488  1.00  0.00    -0.367 OA 
HETATM   19  O   UNL     2     -11.926  11.954  68.319  1.00  0.00    -0.456 OA 
ENDBRANCH  11  14
ENDBRANCH   8  11
ENDBRANCH   2   8
TORSDOF 4
ENDMDL
MODEL      140
REMARK 921   NORMALIZED FREE ENERGY PREDICTED BY IDOCK:   -3.83 KCAL/MOL
REMARK 922        TOTAL FREE ENERGY PREDICTED BY IDOCK:   -5.74 KCAL/MOL
REMARK 923 INTER-LIGAND FREE ENERGY PREDICTED BY IDOCK:   -5.38 KCAL/MOL
REMARK 924 INTRA-LIGAND FREE ENERGY PREDICTED BY IDOCK:   -0.36 KCAL/MOL
REMARK 927      BINDING AFFINITY PREDICTED BY RF-SCORE:    0.00 PKD
ROOT
HETATM    1  K   UNL     1     -12.670  15.299  67.961  1.00  0.00    -0.534 K  
HETATM    2  C   UNL     2     -12.407  14.517  64.425  1.00  0.00    -0.413 C  
HETATM    3  H   UNL     2     -13.402  15.186  65.997  1.00  0.00     0.000 HD 
HETATM    4  O   UNL     2     -13.315  14.355  65.546  1.00  0.00    -0.518 OA 
ENDROOT
BRANCH   2   5
HETATM    5  C   UNL     2     -12.267  13.178  63.699  1.00  0.00    -0.479 C  
HETATM    6  O   UNL     2     -12.962  12.174  64.447  1.00  0.00    -0.680 OA 
HETATM    7  H   UNL     2     -12.875  11.343  63.997  1.00  0.00     0.000 HD 
ENDBRANCH   2   5
BRANCH   2   8
HETATM    8  C   UNL     2     -11.054  15.154  64.837  1.00  0.00    -0.414 C  
HETATM    9  O   UNL     2     -11.278  16.581  64.821  1.00  0.00    -0.516 OA 
HETATM   10  H   UNL     2     -10.450  16.971  65.073  1.00  0.00     0.000 HD 
BRANCH   8  11
HETATM   11  C   UNL     2     -10.477  14.664  66.199  1.00  0.00    -0.302 C  
HETATM   12  O   UNL     2     -11.311  13.647  66.787  1.00  0.00    -0.310 OA 
HETATM   13  H   UNL     2     -10.960  13.349  67.618  1.00  0.00     0.000 HD 
BRANCH  11  14
HETATM   14  C   UNL     2     -10.219  15.781  67.224  1.00  0.00    -0.268 C  
HETATM   15  C   UNL     2      -8.793  16.384  67.073  1.00  0.00    -0.199 C  
HETATM   16  O   UNL     2     -10.432  15.310  68.568  1.00  0.00    -0.227 OA 
HETATM   17  H   UNL     2     -10.272  16.000  69.201  1.00  0.00     0.000 HD 
HETATM   18  O   UNL     2      -8.380  16.456  65.874  1.00  0.00    -0.334 OA 
HETATM   19  O   UNL     2      -8.212  16.630  68.167  1.00  0.00    -0.181 OA 
ENDBRANCH  11  14
ENDBRANCH   8  11
ENDBRANCH   2   8
TORSDOF 4
ENDMDL
MODEL      141
REMARK 921   NORMALIZED FREE ENERGY PREDICTED BY IDOCK:   -3.83 KCAL/MOL
REMARK 922        TOTAL FREE ENERGY PREDICTED BY IDOCK:   -5.73 KCAL/MOL
REMARK 923 INTER-LIGAND FREE ENERGY PREDICTED BY IDOCK:   -4.61 KCAL/MOL
REMARK 924 INTRA-LIGAND FREE ENERGY PREDICTED BY IDOCK:   -1.12 KCAL/MOL
REMARK 927      BINDING AFFINITY PREDICTED BY RF-SCORE:    0.00 PKD
ROOT
HETATM    1  K   UNL     1     -13.944   7.956  70.992  1.00  0.00    -0.378 K  
HETATM    2  C   UNL     2     -11.959  10.957  70.501  1.00  0.00    -0.371 C  
HETATM    3  H   UNL     2     -13.396   9.941  71.401  1.00  0.00     0.000 HD 
HETATM    4  O   UNL     2     -13.340  10.538  70.665  1.00  0.00    -0.245 OA 
ENDROOT
BRANCH   2   5
HETATM    5  C   UNL     2     -11.868  11.919  69.314  1.00  0.00    -0.318 C  
HETATM    6  O   UNL     2     -12.168  11.198  68.114  1.00  0.00    -0.708 OA 
HETATM    7  H   UNL     2     -12.111  11.795  67.378  1.00  0.00     0.000 HD 
ENDBRANCH   2   5
BRANCH   2   8
HETATM    8  C   UNL     2     -10.976   9.761  70.418  1.00  0.00    -0.312 C  
HETATM    9  O   UNL     2      -9.935  10.181  69.507  1.00  0.00    -0.214 OA 
HETATM   10  H   UNL     2      -9.333   9.449  69.456  1.00  0.00     0.000 HD 
BRANCH   8  11
HETATM   11  C   UNL     2     -10.402   9.277  71.783  1.00  0.00    -0.134 C  
HETATM   12  O   UNL     2      -9.016   8.903  71.667  1.00  0.00    -0.249 OA 
HETATM   13  H   UNL     2      -8.666   8.607  72.499  1.00  0.00     0.000 HD 
BRANCH  11  14
HETATM   14  C   UNL     2     -11.195   8.136  72.443  1.00  0.00    -0.386 C  
HETATM   15  C   UNL     2     -11.318   6.902  71.505  1.00  0.00    -0.266 C  
HETATM   16  O   UNL     2     -12.495   8.586  72.867  1.00  0.00    -0.585 OA 
HETATM   17  H   UNL     2     -12.984   7.881  73.275  1.00  0.00     0.000 HD 
HETATM   18  O   UNL     2     -10.295   6.688  70.785  1.00  0.00    -0.198 OA 
HETATM   19  O   UNL     2     -12.451   6.344  71.525  1.00  0.00    -0.246 OA 
ENDBRANCH  11  14
ENDBRANCH   8  11
ENDBRANCH   2   8
TORSDOF 4
ENDMDL
MODEL      142
REMARK 921   NORMALIZED FREE ENERGY PREDICTED BY IDOCK:   -3.83 KCAL/MOL
REMARK 922        TOTAL FREE ENERGY PREDICTED BY IDOCK:   -5.73 KCAL/MOL
REMARK 923 INTER-LIGAND FREE ENERGY PREDICTED BY IDOCK:   -5.23 KCAL/MOL
REMARK 924 INTRA-LIGAND FREE ENERGY PREDICTED BY IDOCK:   -0.50 KCAL/MOL
REMARK 927      BINDING AFFINITY PREDICTED BY RF-SCORE:    0.00 PKD
ROOT
HETATM    1  K   UNL     1      -6.749   9.632  66.494  1.00  0.00    -0.067 K  
HETATM    2  C   UNL     2      -9.263  10.019  63.903  1.00  0.00    -0.272 C  
HETATM    3  H   UNL     2      -8.105   8.913  65.061  1.00  0.00     0.000 HD 
HETATM    4  O   UNL     2      -8.048   9.277  64.186  1.00  0.00    -0.128 OA 
ENDROOT
BRANCH   2   5
HETATM    5  C   UNL     2      -9.171  10.605  62.492  1.00  0.00    -0.295 C  
HETATM    6  O   UNL     2      -8.097  11.552  62.456  1.00  0.00    -0.586 OA 
HETATM    7  H   UNL     2      -8.040  11.916  61.581  1.00  0.00     0.000 HD 
ENDBRANCH   2   5
BRANCH   2   8
HETATM    8  C   UNL     2      -9.595  11.066  64.997  1.00  0.00    -0.247 C  
HETATM    9  O   UNL     2      -8.318  11.550  65.469  1.00  0.00    -0.374 OA 
HETATM   10  H   UNL     2      -8.521  12.191  66.139  1.00  0.00     0.000 HD 
BRANCH   8  11
HETATM   11  C   UNL     2     -10.532  12.226  64.544  1.00  0.00    -0.309 C  
HETATM   12  O   UNL     2      -9.797  13.256  63.856  1.00  0.00    -0.716 OA 
HETATM   13  H   UNL     2     -10.369  13.964  63.580  1.00  0.00     0.000 HD 
BRANCH  11  14
HETATM   14  C   UNL     2     -11.371  12.851  65.672  1.00  0.00    -0.311 C  
HETATM   15  C   UNL     2     -12.816  13.179  65.201  1.00  0.00    -0.300 C  
HETATM   16  O   UNL     2     -10.730  14.025  66.204  1.00  0.00    -0.285 OA 
HETATM   17  H   UNL     2     -11.248  14.411  66.901  1.00  0.00     0.000 HD 
HETATM   18  O   UNL     2     -13.302  12.341  64.380  1.00  0.00    -0.786 OA 
HETATM   19  O   UNL     2     -13.267  14.279  65.629  1.00  0.00    -0.558 OA 
ENDBRANCH  11  14
ENDBRANCH   8  11
ENDBRANCH   2   8
TORSDOF 4
ENDMDL
MODEL      143
REMARK 921   NORMALIZED FREE ENERGY PREDICTED BY IDOCK:   -3.82 KCAL/MOL
REMARK 922        TOTAL FREE ENERGY PREDICTED BY IDOCK:   -5.73 KCAL/MOL
REMARK 923 INTER-LIGAND FREE ENERGY PREDICTED BY IDOCK:   -4.74 KCAL/MOL
REMARK 924 INTRA-LIGAND FREE ENERGY PREDICTED BY IDOCK:   -0.98 KCAL/MOL
REMARK 927      BINDING AFFINITY PREDICTED BY RF-SCORE:    0.00 PKD
ROOT
HETATM    1  K   UNL     1      -8.573  12.242  65.048  1.00  0.00    -0.366 K  
HETATM    2  C   UNL     2      -9.861  11.641  68.390  1.00  0.00    -0.202 C  
HETATM    3  H   UNL     2      -8.459  12.267  67.145  1.00  0.00     0.000 HD 
HETATM    4  O   UNL     2      -8.655  11.459  67.602  1.00  0.00    -0.125 OA 
ENDROOT
BRANCH   2   5
HETATM    5  C   UNL     2     -10.177  10.338  69.126  1.00  0.00    -0.218 C  
HETATM    6  O   UNL     2     -10.774  10.655  70.388  1.00  0.00    -0.445 OA 
HETATM    7  H   UNL     2     -10.970   9.846  70.845  1.00  0.00     0.000 HD 
ENDBRANCH   2   5
BRANCH   2   8
HETATM    8  C   UNL     2     -11.045  12.194  67.555  1.00  0.00    -0.275 C  
HETATM    9  O   UNL     2     -12.205  11.448  67.989  1.00  0.00    -0.607 OA 
HETATM   10  H   UNL     2     -12.929  11.786  67.478  1.00  0.00     0.000 HD 
BRANCH   8  11
HETATM   11  C   UNL     2     -11.266  13.733  67.655  1.00  0.00    -0.293 C  
HETATM   12  O   UNL     2     -12.492  14.130  67.011  1.00  0.00    -0.571 OA 
HETATM   13  H   UNL     2     -12.627  15.069  67.071  1.00  0.00     0.000 HD 
BRANCH  11  14
HETATM   14  C   UNL     2     -10.100  14.584  67.122  1.00  0.00    -0.252 C  
HETATM   15  C   UNL     2     -10.482  16.089  67.027  1.00  0.00    -0.307 C  
HETATM   16  O   UNL     2      -9.640  14.094  65.849  1.00  0.00    -0.446 OA 
HETATM   17  H   UNL     2      -8.920  14.620  65.521  1.00  0.00     0.000 HD 
HETATM   18  O   UNL     2     -11.249  16.494  67.955  1.00  0.00    -0.314 OA 
HETATM   19  O   UNL     2     -10.052  16.671  65.992  1.00  0.00    -0.322 OA 
ENDBRANCH  11  14
ENDBRANCH   8  11
ENDBRANCH   2   8
TORSDOF 4
ENDMDL
MODEL      144
REMARK 921   NORMALIZED FREE ENERGY PREDICTED BY IDOCK:   -3.82 KCAL/MOL
REMARK 922        TOTAL FREE ENERGY PREDICTED BY IDOCK:   -5.72 KCAL/MOL
REMARK 923 INTER-LIGAND FREE ENERGY PREDICTED BY IDOCK:   -4.85 KCAL/MOL
REMARK 924 INTRA-LIGAND FREE ENERGY PREDICTED BY IDOCK:   -0.88 KCAL/MOL
REMARK 927      BINDING AFFINITY PREDICTED BY RF-SCORE:    0.00 PKD
ROOT
HETATM    1  K   UNL     1     -10.466  10.355  65.196  1.00  0.00    -0.257 K  
HETATM    2  C   UNL     2     -11.799  13.088  67.181  1.00  0.00    -0.373 C  
HETATM    3  H   UNL     2     -11.994  11.638  65.853  1.00  0.00     0.000 HD 
HETATM    4  O   UNL     2     -11.821  12.571  65.824  1.00  0.00    -0.408 OA 
ENDROOT
BRANCH   2   5
HETATM    5  C   UNL     2     -11.521  14.593  67.135  1.00  0.00    -0.368 C  
HETATM    6  O   UNL     2     -12.228  15.224  68.208  1.00  0.00    -0.533 OA 
HETATM    7  H   UNL     2     -12.056  16.157  68.180  1.00  0.00     0.000 HD 
ENDBRANCH   2   5
BRANCH   2   8
HETATM    8  C   UNL     2     -10.838  12.300  68.108  1.00  0.00    -0.227 C  
HETATM    9  O   UNL     2     -10.999  12.886  69.419  1.00  0.00    -0.437 OA 
HETATM   10  H   UNL     2     -10.411  12.403  69.986  1.00  0.00     0.000 HD 
BRANCH   8  11
HETATM   11  C   UNL     2     -11.049  10.756  68.124  1.00  0.00    -0.280 C  
HETATM   12  O   UNL     2     -12.274  10.401  68.793  1.00  0.00    -0.750 OA 
HETATM   13  H   UNL     2     -12.403   9.459  68.803  1.00  0.00     0.000 HD 
BRANCH  11  14
HETATM   14  C   UNL     2      -9.879   9.955  68.721  1.00  0.00    -0.171 C  
HETATM   15  C   UNL     2     -10.076   8.424  68.535  1.00  0.00    -0.197 C  
HETATM   16  O   UNL     2      -9.685  10.279  70.110  1.00  0.00    -0.404 OA 
HETATM   17  H   UNL     2      -8.963   9.784  70.478  1.00  0.00     0.000 HD 
HETATM   18  O   UNL     2     -10.634   8.096  67.442  1.00  0.00    -0.279 OA 
HETATM   19  O   UNL     2      -9.739   7.730  69.536  1.00  0.00    -0.164 OA 
ENDBRANCH  11  14
ENDBRANCH   8  11
ENDBRANCH   2   8
TORSDOF 4
ENDMDL
MODEL      145
REMARK 921   NORMALIZED FREE ENERGY PREDICTED BY IDOCK:   -3.81 KCAL/MOL
REMARK 922        TOTAL FREE ENERGY PREDICTED BY IDOCK:   -5.72 KCAL/MOL
REMARK 923 INTER-LIGAND FREE ENERGY PREDICTED BY IDOCK:   -5.04 KCAL/MOL
REMARK 924 INTRA-LIGAND FREE ENERGY PREDICTED BY IDOCK:   -0.67 KCAL/MOL
REMARK 927      BINDING AFFINITY PREDICTED BY RF-SCORE:    0.00 PKD
ROOT
HETATM    1  K   UNL     1     -13.823   7.063  71.780  1.00  0.00    -0.306 K  
HETATM    2  C   UNL     2     -10.277   7.561  72.377  1.00  0.00    -0.212 C  
HETATM    3  H   UNL     2     -11.800   6.510  71.683  1.00  0.00     0.000 HD 
HETATM    4  O   UNL     2     -11.302   6.539  72.491  1.00  0.00    -0.264 OA 
ENDROOT
BRANCH   2   5
HETATM    5  C   UNL     2      -9.473   7.607  73.679  1.00  0.00    -0.282 C  
HETATM    6  O   UNL     2      -8.346   8.471  73.493  1.00  0.00    -0.381 OA 
HETATM    7  H   UNL     2      -7.848   8.500  74.301  1.00  0.00     0.000 HD 
ENDBRANCH   2   5
BRANCH   2   8
HETATM    8  C   UNL     2     -10.846   8.936  71.941  1.00  0.00    -0.363 C  
HETATM    9  O   UNL     2      -9.731   9.648  71.359  1.00  0.00    -0.260 OA 
HETATM   10  H   UNL     2     -10.079  10.490  71.093  1.00  0.00     0.000 HD 
BRANCH   8  11
HETATM   11  C   UNL     2     -12.069   8.873  70.979  1.00  0.00    -0.233 C  
HETATM   12  O   UNL     2     -11.679   9.130  69.616  1.00  0.00    -0.397 OA 
HETATM   13  H   UNL     2     -12.426   9.092  69.029  1.00  0.00     0.000 HD 
BRANCH  11  14
HETATM   14  C   UNL     2     -13.240   9.793  71.367  1.00  0.00    -0.398 C  
HETATM   15  C   UNL     2     -12.819  11.290  71.370  1.00  0.00    -0.410 C  
HETATM   16  O   UNL     2     -13.793   9.417  72.641  1.00  0.00    -0.703 OA 
HETATM   17  H   UNL     2     -14.516   9.985  72.881  1.00  0.00     0.000 HD 
HETATM   18  O   UNL     2     -11.984  11.601  70.465  1.00  0.00    -0.360 OA 
HETATM   19  O   UNL     2     -13.295  11.963  72.327  1.00  0.00    -0.471 OA 
ENDBRANCH  11  14
ENDBRANCH   8  11
ENDBRANCH   2   8
TORSDOF 4
ENDMDL
MODEL      146
REMARK 921   NORMALIZED FREE ENERGY PREDICTED BY IDOCK:   -3.81 KCAL/MOL
REMARK 922        TOTAL FREE ENERGY PREDICTED BY IDOCK:   -5.71 KCAL/MOL
REMARK 923 INTER-LIGAND FREE ENERGY PREDICTED BY IDOCK:   -4.92 KCAL/MOL
REMARK 924 INTRA-LIGAND FREE ENERGY PREDICTED BY IDOCK:   -0.79 KCAL/MOL
REMARK 927      BINDING AFFINITY PREDICTED BY RF-SCORE:    0.00 PKD
ROOT
HETATM    1  K   UNL     1     -12.044   6.822  67.515  1.00  0.00    -0.603 K  
HETATM    2  C   UNL     2      -9.464   8.799  69.135  1.00  0.00    -0.157 C  
HETATM    3  H   UNL     2     -10.088   7.177  68.192  1.00  0.00     0.000 HD 
HETATM    4  O   UNL     2      -9.982   7.443  69.097  1.00  0.00    -0.166 OA 
ENDROOT
BRANCH   2   5
HETATM    5  C   UNL     2      -9.293   9.227  70.594  1.00  0.00    -0.270 C  
HETATM    6  O   UNL     2      -8.042   9.908  70.730  1.00  0.00    -0.396 OA 
HETATM    7  H   UNL     2      -7.935  10.174  71.635  1.00  0.00     0.000 HD 
ENDBRANCH   2   5
BRANCH   2   8
HETATM    8  C   UNL     2     -10.306   9.786  68.285  1.00  0.00    -0.198 C  
HETATM    9  O   UNL     2     -11.242   8.963  67.553  1.00  0.00    -0.387 OA 
HETATM   10  H   UNL     2     -11.758   9.567  67.033  1.00  0.00     0.000 HD 
BRANCH   8  11
HETATM   11  C   UNL     2     -11.019  10.913  69.090  1.00  0.00    -0.239 C  
HETATM   12  O   UNL     2     -12.444  10.704  69.137  1.00  0.00    -0.752 OA 
HETATM   13  H   UNL     2     -12.878  11.392  69.628  1.00  0.00     0.000 HD 
BRANCH  11  14
HETATM   14  C   UNL     2     -10.719  12.340  68.599  1.00  0.00    -0.233 C  
HETATM   15  C   UNL     2     -11.033  12.506  67.085  1.00  0.00    -0.263 C  
HETATM   16  O   UNL     2      -9.356  12.709  68.880  1.00  0.00    -0.397 OA 
HETATM   17  H   UNL     2      -9.172  13.590  68.577  1.00  0.00     0.000 HD 
HETATM   18  O   UNL     2     -12.044  11.850  66.685  1.00  0.00    -0.587 OA 
HETATM   19  O   UNL     2     -10.185  13.194  66.449  1.00  0.00    -0.273 OA 
ENDBRANCH  11  14
ENDBRANCH   8  11
ENDBRANCH   2   8
TORSDOF 4
ENDMDL
MODEL      147
REMARK 921   NORMALIZED FREE ENERGY PREDICTED BY IDOCK:   -3.79 KCAL/MOL
REMARK 922        TOTAL FREE ENERGY PREDICTED BY IDOCK:   -5.68 KCAL/MOL
REMARK 923 INTER-LIGAND FREE ENERGY PREDICTED BY IDOCK:   -5.21 KCAL/MOL
REMARK 924 INTRA-LIGAND FREE ENERGY PREDICTED BY IDOCK:   -0.48 KCAL/MOL
REMARK 927      BINDING AFFINITY PREDICTED BY RF-SCORE:    0.00 PKD
ROOT
HETATM    1  K   UNL     1     -10.974  15.347  69.905  1.00  0.00    -0.198 K  
HETATM    2  C   UNL     2      -8.756  15.554  67.037  1.00  0.00    -0.231 C  
HETATM    3  H   UNL     2      -9.128  15.123  68.930  1.00  0.00     0.000 HD 
HETATM    4  O   UNL     2      -8.793  15.872  68.453  1.00  0.00    -0.175 OA 
ENDROOT
BRANCH   2   5
HETATM    5  C   UNL     2      -8.217  16.762  66.268  1.00  0.00    -0.324 C  
HETATM    6  O   UNL     2      -7.271  17.449  67.095  1.00  0.00    -0.159 OA 
HETATM    7  H   UNL     2      -6.937  18.198  66.619  1.00  0.00     0.000 HD 
ENDBRANCH   2   5
BRANCH   2   8
HETATM    8  C   UNL     2     -10.114  15.027  66.505  1.00  0.00    -0.276 C  
HETATM    9  O   UNL     2     -11.110  15.941  67.017  1.00  0.00    -0.253 OA 
HETATM   10  H   UNL     2     -11.941  15.618  66.692  1.00  0.00     0.000 HD 
BRANCH   8  11
HETATM   11  C   UNL     2     -10.204  14.866  64.958  1.00  0.00    -0.330 C  
HETATM   12  O   UNL     2     -10.885  15.982  64.353  1.00  0.00    -0.877 OA 
HETATM   13  H   UNL     2     -10.940  15.884  63.410  1.00  0.00     0.000 HD 
BRANCH  11  14
HETATM   14  C   UNL     2     -10.845  13.549  64.486  1.00  0.00    -0.410 C  
HETATM   15  C   UNL     2     -12.270  13.357  65.076  1.00  0.00    -0.424 C  
HETATM   16  O   UNL     2     -10.006  12.423  64.804  1.00  0.00    -0.397 OA 
HETATM   17  H   UNL     2     -10.402  11.610  64.512  1.00  0.00     0.000 HD 
HETATM   18  O   UNL     2     -12.938  14.432  65.192  1.00  0.00    -0.631 OA 
HETATM   19  O   UNL     2     -12.529  12.176  65.442  1.00  0.00    -0.523 OA 
ENDBRANCH  11  14
ENDBRANCH   8  11
ENDBRANCH   2   8
TORSDOF 4
ENDMDL
MODEL      148
REMARK 921   NORMALIZED FREE ENERGY PREDICTED BY IDOCK:   -3.79 KCAL/MOL
REMARK 922        TOTAL FREE ENERGY PREDICTED BY IDOCK:   -5.68 KCAL/MOL
REMARK 923 INTER-LIGAND FREE ENERGY PREDICTED BY IDOCK:   -4.75 KCAL/MOL
REMARK 924 INTRA-LIGAND FREE ENERGY PREDICTED BY IDOCK:   -0.93 KCAL/MOL
REMARK 927      BINDING AFFINITY PREDICTED BY RF-SCORE:    0.00 PKD
ROOT
HETATM    1  K   UNL     1      -9.111  15.415  66.214  1.00  0.00    -0.185 K  
HETATM    2  C   UNL     2     -10.805  14.528  69.301  1.00  0.00    -0.252 C  
HETATM    3  H   UNL     2      -9.260  14.445  68.070  1.00  0.00     0.000 HD 
HETATM    4  O   UNL     2     -10.037  13.923  68.227  1.00  0.00    -0.228 OA 
ENDROOT
BRANCH   2   5
HETATM    5  C   UNL     2     -12.057  13.686  69.555  1.00  0.00    -0.314 C  
HETATM    6  O   UNL     2     -12.075  13.291  70.931  1.00  0.00    -0.463 OA 
HETATM    7  H   UNL     2     -12.852  12.768  71.088  1.00  0.00     0.000 HD 
ENDBRANCH   2   5
BRANCH   2   8
HETATM    8  C   UNL     2     -11.097  16.031  69.056  1.00  0.00    -0.320 C  
HETATM    9  O   UNL     2     -11.101  16.642  70.365  1.00  0.00    -0.450 OA 
HETATM   10  H   UNL     2     -11.280  17.562  70.215  1.00  0.00     0.000 HD 
BRANCH   8  11
HETATM   11  C   UNL     2     -10.120  16.746  68.075  1.00  0.00    -0.284 C  
HETATM   12  O   UNL     2      -8.760  16.675  68.545  1.00  0.00    -0.222 OA 
HETATM   13  H   UNL     2      -8.165  17.112  67.947  1.00  0.00     0.000 HD 
BRANCH  11  14
HETATM   14  C   UNL     2     -10.485  18.206  67.757  1.00  0.00    -0.404 C  
HETATM   15  C   UNL     2      -9.547  18.812  66.676  1.00  0.00    -0.336 C  
HETATM   16  O   UNL     2     -10.476  19.013  68.949  1.00  0.00    -0.465 OA 
HETATM   17  H   UNL     2     -10.702  19.915  68.753  1.00  0.00     0.000 HD 
HETATM   18  O   UNL     2      -9.188  17.992  65.775  1.00  0.00    -0.486 OA 
HETATM   19  O   UNL     2      -9.200  20.007  66.897  1.00  0.00    -0.343 OA 
ENDBRANCH  11  14
ENDBRANCH   8  11
ENDBRANCH   2   8
TORSDOF 4
ENDMDL
MODEL      149
REMARK 921   NORMALIZED FREE ENERGY PREDICTED BY IDOCK:   -3.78 KCAL/MOL
REMARK 922        TOTAL FREE ENERGY PREDICTED BY IDOCK:   -5.67 KCAL/MOL
REMARK 923 INTER-LIGAND FREE ENERGY PREDICTED BY IDOCK:   -4.84 KCAL/MOL
REMARK 924 INTRA-LIGAND FREE ENERGY PREDICTED BY IDOCK:   -0.84 KCAL/MOL
REMARK 927      BINDING AFFINITY PREDICTED BY RF-SCORE:    0.00 PKD
ROOT
HETATM    1  K   UNL     1     -14.269   8.008  72.721  1.00  0.00    -0.498 K  
HETATM    2  C   UNL     2     -11.277   9.684  71.529  1.00  0.00    -0.307 C  
HETATM    3  H   UNL     2     -12.864   9.568  72.701  1.00  0.00     0.000 HD 
HETATM    4  O   UNL     2     -12.663   9.962  71.861  1.00  0.00    -0.394 OA 
ENDROOT
BRANCH   2   5
HETATM    5  C   UNL     2     -10.952  10.319  70.175  1.00  0.00    -0.314 C  
HETATM    6  O   UNL     2     -11.827   9.766  69.185  1.00  0.00    -0.392 OA 
HETATM    7  H   UNL     2     -11.626  10.160  68.345  1.00  0.00     0.000 HD 
ENDBRANCH   2   5
BRANCH   2   8
HETATM    8  C   UNL     2     -10.931   8.175  71.614  1.00  0.00    -0.250 C  
HETATM    9  O   UNL     2     -10.573   7.939  72.994  1.00  0.00    -0.346 OA 
HETATM   10  H   UNL     2     -10.361   7.015  73.046  1.00  0.00     0.000 HD 
BRANCH   8  11
HETATM   11  C   UNL     2     -12.050   7.209  71.123  1.00  0.00    -0.358 C  
HETATM   12  O   UNL     2     -12.625   6.471  72.219  1.00  0.00    -0.543 OA 
HETATM   13  H   UNL     2     -13.307   5.882  71.919  1.00  0.00     0.000 HD 
BRANCH  11  14
HETATM   14  C   UNL     2     -11.616   6.236  70.013  1.00  0.00    -0.308 C  
HETATM   15  C   UNL     2     -10.389   5.383  70.441  1.00  0.00    -0.283 C  
HETATM   16  O   UNL     2     -11.344   6.938  68.786  1.00  0.00    -0.514 OA 
HETATM   17  H   UNL     2     -11.077   6.337  68.100  1.00  0.00     0.000 HD 
HETATM   18  O   UNL     2     -10.381   5.057  71.669  1.00  0.00    -0.204 OA 
HETATM   19  O   UNL     2      -9.529   5.213  69.532  1.00  0.00    -0.126 OA 
ENDBRANCH  11  14
ENDBRANCH   8  11
ENDBRANCH   2   8
TORSDOF 4
ENDMDL
MODEL      150
REMARK 921   NORMALIZED FREE ENERGY PREDICTED BY IDOCK:   -3.76 KCAL/MOL
REMARK 922        TOTAL FREE ENERGY PREDICTED BY IDOCK:   -5.65 KCAL/MOL
REMARK 923 INTER-LIGAND FREE ENERGY PREDICTED BY IDOCK:   -4.90 KCAL/MOL
REMARK 924 INTRA-LIGAND FREE ENERGY PREDICTED BY IDOCK:   -0.75 KCAL/MOL
REMARK 927      BINDING AFFINITY PREDICTED BY RF-SCORE:    0.00 PKD
ROOT
HETATM    1  K   UNL     1     -12.257  16.846  71.676  1.00  0.00    -0.586 K  
HETATM    2  C   UNL     2     -11.294  15.123  68.628  1.00  0.00    -0.310 C  
HETATM    3  H   UNL     2     -12.556  15.485  70.106  1.00  0.00     0.000 HD 
HETATM    4  O   UNL     2     -11.865  14.856  69.937  1.00  0.00    -0.275 OA 
ENDROOT
BRANCH   2   5
HETATM    5  C   UNL     2     -10.180  14.109  68.356  1.00  0.00    -0.247 C  
HETATM    6  O   UNL     2     -10.598  13.239  67.299  1.00  0.00    -0.246 OA 
HETATM    7  H   UNL     2      -9.907  12.610  67.129  1.00  0.00     0.000 HD 
ENDBRANCH   2   5
BRANCH   2   8
HETATM    8  C   UNL     2     -10.855  16.600  68.455  1.00  0.00    -0.356 C  
HETATM    9  O   UNL     2     -11.007  17.203  69.760  1.00  0.00    -0.361 OA 
HETATM   10  H   UNL     2     -10.739  18.107  69.654  1.00  0.00     0.000 HD 
BRANCH   8  11
HETATM   11  C   UNL     2      -9.424  16.804  67.876  1.00  0.00    -0.230 C  
HETATM   12  O   UNL     2      -8.521  17.314  68.877  1.00  0.00    -0.257 OA 
HETATM   13  H   UNL     2      -7.647  17.438  68.523  1.00  0.00     0.000 HD 
BRANCH  11  14
HETATM   14  C   UNL     2      -9.359  17.688  66.619  1.00  0.00    -0.278 C  
HETATM   15  C   UNL     2      -9.998  19.084  66.864  1.00  0.00    -0.351 C  
HETATM   16  O   UNL     2      -9.977  17.035  65.495  1.00  0.00    -0.567 OA 
HETATM   17  H   UNL     2      -9.937  17.581  64.718  1.00  0.00     0.000 HD 
HETATM   18  O   UNL     2      -9.808  19.550  68.030  1.00  0.00    -0.350 OA 
HETATM   19  O   UNL     2     -10.692  19.516  65.900  1.00  0.00    -0.483 OA 
ENDBRANCH  11  14
ENDBRANCH   8  11
ENDBRANCH   2   8
TORSDOF 4
ENDMDL
MODEL      151
REMARK 921   NORMALIZED FREE ENERGY PREDICTED BY IDOCK:   -3.75 KCAL/MOL
REMARK 922        TOTAL FREE ENERGY PREDICTED BY IDOCK:   -5.64 KCAL/MOL
REMARK 923 INTER-LIGAND FREE ENERGY PREDICTED BY IDOCK:   -5.24 KCAL/MOL
REMARK 924 INTRA-LIGAND FREE ENERGY PREDICTED BY IDOCK:   -0.40 KCAL/MOL
REMARK 927      BINDING AFFINITY PREDICTED BY RF-SCORE:    0.00 PKD
ROOT
HETATM    1  K   UNL     1      -7.993  14.998  68.192  1.00  0.00    -0.113 K  
HETATM    2  C   UNL     2      -9.927  15.735  65.208  1.00  0.00    -0.141 C  
HETATM    3  H   UNL     2      -8.220  15.611  66.196  1.00  0.00     0.000 HD 
HETATM    4  O   UNL     2      -8.858  16.291  66.019  1.00  0.00    -0.333 OA 
ENDROOT
BRANCH   2   5
HETATM    5  C   UNL     2     -10.957  16.831  64.923  1.00  0.00    -0.087 C  
HETATM    6  O   UNL     2     -11.755  16.432  63.803  1.00  0.00    -1.553 OA 
HETATM    7  H   UNL     2     -12.394  17.111  63.626  1.00  0.00     0.000 HD 
ENDBRANCH   2   5
BRANCH   2   8
HETATM    8  C   UNL     2     -10.535  14.446  65.818  1.00  0.00    -0.318 C  
HETATM    9  O   UNL     2     -10.997  13.666  64.692  1.00  0.00    -0.357 OA 
HETATM   10  H   UNL     2     -11.369  12.877  65.066  1.00  0.00     0.000 HD 
BRANCH   8  11
HETATM   11  C   UNL     2      -9.578  13.634  66.742  1.00  0.00    -0.275 C  
HETATM   12  O   UNL     2      -9.134  12.422  66.102  1.00  0.00    -0.388 OA 
HETATM   13  H   UNL     2      -8.551  11.927  66.666  1.00  0.00     0.000 HD 
BRANCH  11  14
HETATM   14  C   UNL     2     -10.152  13.308  68.132  1.00  0.00    -0.241 C  
HETATM   15  C   UNL     2     -11.640  12.865  68.051  1.00  0.00    -0.342 C  
HETATM   16  O   UNL     2     -10.000  14.423  69.029  1.00  0.00    -0.315 OA 
HETATM   17  H   UNL     2     -10.354  14.221  69.887  1.00  0.00     0.000 HD 
HETATM   18  O   UNL     2     -11.927  12.179  67.021  1.00  0.00    -0.593 OA 
HETATM   19  O   UNL     2     -12.372  13.327  68.972  1.00  0.00    -0.184 OA 
ENDBRANCH  11  14
ENDBRANCH   8  11
ENDBRANCH   2   8
TORSDOF 4
ENDMDL
MODEL      152
REMARK 921   NORMALIZED FREE ENERGY PREDICTED BY IDOCK:   -3.74 KCAL/MOL
REMARK 922        TOTAL FREE ENERGY PREDICTED BY IDOCK:   -5.63 KCAL/MOL
REMARK 923 INTER-LIGAND FREE ENERGY PREDICTED BY IDOCK:   -5.04 KCAL/MOL
REMARK 924 INTRA-LIGAND FREE ENERGY PREDICTED BY IDOCK:   -0.59 KCAL/MOL
REMARK 927      BINDING AFFINITY PREDICTED BY RF-SCORE:    0.00 PKD
ROOT
HETATM    1  K   UNL     1      -6.994  11.212  66.680  1.00  0.00    -0.089 K  
HETATM    2  C   UNL     2      -9.827  12.647  68.441  1.00  0.00    -0.200 C  
HETATM    3  H   UNL     2      -7.980  11.947  68.382  1.00  0.00     0.000 HD 
HETATM    4  O   UNL     2      -8.838  11.592  68.575  1.00  0.00    -0.158 OA 
ENDROOT
BRANCH   2   5
HETATM    5  C   UNL     2     -11.212  12.074  68.752  1.00  0.00    -0.263 C  
HETATM    6  O   UNL     2     -11.699  12.677  69.957  1.00  0.00    -0.461 OA 
HETATM    7  H   UNL     2     -12.558  12.322  70.150  1.00  0.00     0.000 HD 
ENDBRANCH   2   5
BRANCH   2   8
HETATM    8  C   UNL     2      -9.742  13.378  67.076  1.00  0.00    -0.239 C  
HETATM    9  O   UNL     2      -8.330  13.525  66.805  1.00  0.00    -0.412 OA 
HETATM   10  H   UNL     2      -8.278  13.973  65.970  1.00  0.00     0.000 HD 
BRANCH   8  11
HETATM   11  C   UNL     2     -10.496  12.684  65.903  1.00  0.00    -0.274 C  
HETATM   12  O   UNL     2      -9.911  11.406  65.585  1.00  0.00    -0.217 OA 
HETATM   13  H   UNL     2     -10.371  10.983  64.869  1.00  0.00     0.000 HD 
BRANCH  11  14
HETATM   14  C   UNL     2     -10.617  13.533  64.626  1.00  0.00    -0.427 C  
HETATM   15  C   UNL     2     -12.071  14.035  64.403  1.00  0.00    -0.458 C  
HETATM   16  O   UNL     2     -10.146  12.806  63.475  1.00  0.00    -0.632 OA 
HETATM   17  H   UNL     2     -10.220  13.331  62.687  1.00  0.00     0.000 HD 
HETATM   18  O   UNL     2     -12.695  14.325  65.470  1.00  0.00    -0.472 OA 
HETATM   19  O   UNL     2     -12.457  13.995  63.201  1.00  0.00    -0.733 OA 
ENDBRANCH  11  14
ENDBRANCH   8  11
ENDBRANCH   2   8
TORSDOF 4
ENDMDL
MODEL      153
REMARK 921   NORMALIZED FREE ENERGY PREDICTED BY IDOCK:   -3.74 KCAL/MOL
REMARK 922        TOTAL FREE ENERGY PREDICTED BY IDOCK:   -5.63 KCAL/MOL
REMARK 923 INTER-LIGAND FREE ENERGY PREDICTED BY IDOCK:   -4.80 KCAL/MOL
REMARK 924 INTRA-LIGAND FREE ENERGY PREDICTED BY IDOCK:   -0.83 KCAL/MOL
REMARK 927      BINDING AFFINITY PREDICTED BY RF-SCORE:    0.00 PKD
ROOT
HETATM    1  K   UNL     1     -13.912   7.415  70.636  1.00  0.00    -0.566 K  
HETATM    2  C   UNL     2     -12.323  10.625  71.233  1.00  0.00    -0.383 C  
HETATM    3  H   UNL     2     -12.957   8.852  71.833  1.00  0.00     0.000 HD 
HETATM    4  O   UNL     2     -13.308   9.734  71.818  1.00  0.00    -0.387 OA 
ENDROOT
BRANCH   2   5
HETATM    5  C   UNL     2     -12.888  12.047  71.208  1.00  0.00    -0.265 C  
HETATM    6  O   UNL     2     -11.855  12.946  70.791  1.00  0.00    -0.494 OA 
HETATM    7  H   UNL     2     -12.206  13.828  70.776  1.00  0.00     0.000 HD 
ENDBRANCH   2   5
BRANCH   2   8
HETATM    8  C   UNL     2     -11.809  10.130  69.856  1.00  0.00    -0.135 C  
HETATM    9  O   UNL     2     -12.466  10.965  68.876  1.00  0.00    -0.745 OA 
HETATM   10  H   UNL     2     -12.152  10.662  68.033  1.00  0.00     0.000 HD 
BRANCH   8  11
HETATM   11  C   UNL     2     -10.261  10.130  69.685  1.00  0.00    -0.242 C  
HETATM   12  O   UNL     2      -9.795  11.371  69.121  1.00  0.00    -0.399 OA 
HETATM   13  H   UNL     2      -8.851  11.371  69.017  1.00  0.00     0.000 HD 
BRANCH  11  14
HETATM   14  C   UNL     2      -9.705   8.949  68.872  1.00  0.00    -0.171 C  
HETATM   15  C   UNL     2     -10.324   8.887  67.447  1.00  0.00    -0.269 C  
HETATM   16  O   UNL     2      -9.902   7.703  69.566  1.00  0.00    -0.174 OA 
HETATM   17  H   UNL     2      -9.558   6.974  69.064  1.00  0.00     0.000 HD 
HETATM   18  O   UNL     2     -10.550  10.023  66.925  1.00  0.00    -0.236 OA 
HETATM   19  O   UNL     2     -10.601   7.721  67.049  1.00  0.00    -0.335 OA 
ENDBRANCH  11  14
ENDBRANCH   8  11
ENDBRANCH   2   8
TORSDOF 4
ENDMDL
MODEL      154
REMARK 921   NORMALIZED FREE ENERGY PREDICTED BY IDOCK:   -3.74 KCAL/MOL
REMARK 922        TOTAL FREE ENERGY PREDICTED BY IDOCK:   -5.62 KCAL/MOL
REMARK 923 INTER-LIGAND FREE ENERGY PREDICTED BY IDOCK:   -4.93 KCAL/MOL
REMARK 924 INTRA-LIGAND FREE ENERGY PREDICTED BY IDOCK:   -0.70 KCAL/MOL
REMARK 927      BINDING AFFINITY PREDICTED BY RF-SCORE:    0.00 PKD
ROOT
HETATM    1  K   UNL     1      -6.991  12.848  66.347  1.00  0.00    -0.357 K  
HETATM    2  C   UNL     2     -10.409  12.554  65.155  1.00  0.00    -0.289 C  
HETATM    3  H   UNL     2      -8.901  11.977  66.296  1.00  0.00     0.000 HD 
HETATM    4  O   UNL     2      -9.246  11.734  65.446  1.00  0.00    -0.148 OA 
ENDROOT
BRANCH   2   5
HETATM    5  C   UNL     2     -10.965  12.162  63.785  1.00  0.00    -0.431 C  
HETATM    6  O   UNL     2     -10.433  10.884  63.420  1.00  0.00    -0.527 OA 
HETATM    7  H   UNL     2     -10.778  10.641  62.570  1.00  0.00     0.000 HD 
ENDBRANCH   2   5
BRANCH   2   8
HETATM    8  C   UNL     2     -10.125  14.071  65.308  1.00  0.00    -0.318 C  
HETATM    9  O   UNL     2     -11.064  14.729  64.428  1.00  0.00    -0.609 OA 
HETATM   10  H   UNL     2     -10.891  15.658  64.521  1.00  0.00     0.000 HD 
BRANCH   8  11
HETATM   11  C   UNL     2     -10.203  14.618  66.765  1.00  0.00    -0.268 C  
HETATM   12  O   UNL     2     -11.488  15.210  67.036  1.00  0.00    -0.319 OA 
HETATM   13  H   UNL     2     -11.535  15.544  67.924  1.00  0.00     0.000 HD 
BRANCH  11  14
HETATM   14  C   UNL     2      -9.085  15.606  67.140  1.00  0.00    -0.210 C  
HETATM   15  C   UNL     2      -9.052  16.829  66.180  1.00  0.00    -0.253 C  
HETATM   16  O   UNL     2      -7.804  14.950  67.174  1.00  0.00    -0.200 OA 
HETATM   17  H   UNL     2      -7.114  15.561  67.405  1.00  0.00     0.000 HD 
HETATM   18  O   UNL     2     -10.196  17.217  65.786  1.00  0.00    -0.520 OA 
HETATM   19  O   UNL     2      -7.891  17.205  65.855  1.00  0.00    -0.477 OA 
ENDBRANCH  11  14
ENDBRANCH   8  11
ENDBRANCH   2   8
TORSDOF 4
ENDMDL
MODEL      155
REMARK 921   NORMALIZED FREE ENERGY PREDICTED BY IDOCK:   -3.74 KCAL/MOL
REMARK 922        TOTAL FREE ENERGY PREDICTED BY IDOCK:   -5.62 KCAL/MOL
REMARK 923 INTER-LIGAND FREE ENERGY PREDICTED BY IDOCK:   -4.75 KCAL/MOL
REMARK 924 INTRA-LIGAND FREE ENERGY PREDICTED BY IDOCK:   -0.87 KCAL/MOL
REMARK 927      BINDING AFFINITY PREDICTED BY RF-SCORE:    0.00 PKD
ROOT
HETATM    1  K   UNL     1      -7.786  11.751  69.917  1.00  0.00    -0.342 K  
HETATM    2  C   UNL     2     -10.565  10.960  67.718  1.00  0.00    -0.217 C  
HETATM    3  H   UNL     2      -8.664  10.835  68.244  1.00  0.00     0.000 HD 
HETATM    4  O   UNL     2      -9.178  11.385  67.666  1.00  0.00    -0.154 OA 
ENDROOT
BRANCH   2   5
HETATM    5  C   UNL     2     -11.394  11.847  66.787  1.00  0.00    -0.330 C  
HETATM    6  O   UNL     2     -11.737  13.050  67.482  1.00  0.00    -0.335 OA 
HETATM    7  H   UNL     2     -12.251  13.601  66.904  1.00  0.00     0.000 HD 
ENDBRANCH   2   5
BRANCH   2   8
HETATM    8  C   UNL     2     -11.115  10.883  69.166  1.00  0.00    -0.245 C  
HETATM    9  O   UNL     2     -12.533  10.643  69.028  1.00  0.00    -0.777 OA 
HETATM   10  H   UNL     2     -12.870  10.596  69.915  1.00  0.00     0.000 HD 
BRANCH   8  11
HETATM   11  C   UNL     2     -10.426   9.829  70.083  1.00  0.00    -0.286 C  
HETATM   12  O   UNL     2     -10.056   8.650  69.342  1.00  0.00    -0.193 OA 
HETATM   13  H   UNL     2      -9.636   8.007  69.901  1.00  0.00     0.000 HD 
BRANCH  11  14
HETATM   14  C   UNL     2     -11.242   9.427  71.324  1.00  0.00    -0.367 C  
HETATM   15  C   UNL     2     -10.404   8.564  72.310  1.00  0.00    -0.332 C  
HETATM   16  O   UNL     2     -12.451   8.743  70.950  1.00  0.00    -0.481 OA 
HETATM   17  H   UNL     2     -12.955   8.495  71.716  1.00  0.00     0.000 HD 
HETATM   18  O   UNL     2      -9.179   8.891  72.381  1.00  0.00    -0.362 OA 
HETATM   19  O   UNL     2     -11.038   7.603  72.829  1.00  0.00    -0.326 OA 
ENDBRANCH  11  14
ENDBRANCH   8  11
ENDBRANCH   2   8
TORSDOF 4
ENDMDL
MODEL      156
REMARK 921   NORMALIZED FREE ENERGY PREDICTED BY IDOCK:   -3.73 KCAL/MOL
REMARK 922        TOTAL FREE ENERGY PREDICTED BY IDOCK:   -5.61 KCAL/MOL
REMARK 923 INTER-LIGAND FREE ENERGY PREDICTED BY IDOCK:   -4.94 KCAL/MOL
REMARK 924 INTRA-LIGAND FREE ENERGY PREDICTED BY IDOCK:   -0.67 KCAL/MOL
REMARK 927      BINDING AFFINITY PREDICTED BY RF-SCORE:    0.00 PKD
ROOT
HETATM    1  K   UNL     1     -14.076   5.652  72.594  1.00  0.00    -0.527 K  
HETATM    2  C   UNL     2     -10.481   5.727  72.089  1.00  0.00    -0.212 C  
HETATM    3  H   UNL     2     -12.182   4.768  72.389  1.00  0.00     0.000 HD 
HETATM    4  O   UNL     2     -11.483   5.104  72.935  1.00  0.00    -0.299 OA 
ENDROOT
BRANCH   2   5
HETATM    5  C   UNL     2      -9.353   6.270  72.969  1.00  0.00    -0.138 C  
HETATM    6  O   UNL     2      -8.916   7.525  72.435  1.00  0.00    -0.127 OA 
HETATM    7  H   UNL     2      -8.216   7.862  72.981  1.00  0.00     0.000 HD 
ENDBRANCH   2   5
BRANCH   2   8
HETATM    8  C   UNL     2     -11.082   6.778  71.120  1.00  0.00    -0.270 C  
HETATM    9  O   UNL     2     -11.372   6.057  69.901  1.00  0.00    -0.400 OA 
HETATM   10  H   UNL     2     -11.741   6.700  69.308  1.00  0.00     0.000 HD 
BRANCH   8  11
HETATM   11  C   UNL     2     -12.327   7.542  71.660  1.00  0.00    -0.333 C  
HETATM   12  O   UNL     2     -13.425   7.483  70.730  1.00  0.00    -0.578 OA 
HETATM   13  H   UNL     2     -14.185   7.950  71.059  1.00  0.00     0.000 HD 
BRANCH  11  14
HETATM   14  C   UNL     2     -12.060   9.005  72.056  1.00  0.00    -0.370 C  
HETATM   15  C   UNL     2     -13.379   9.821  72.171  1.00  0.00    -0.431 C  
HETATM   16  O   UNL     2     -11.152   9.633  71.132  1.00  0.00    -0.332 OA 
HETATM   17  H   UNL     2     -10.987  10.536  71.377  1.00  0.00     0.000 HD 
HETATM   18  O   UNL     2     -14.363   9.163  72.631  1.00  0.00    -0.561 OA 
HETATM   19  O   UNL     2     -13.310  10.993  71.704  1.00  0.00    -0.363 OA 
ENDBRANCH  11  14
ENDBRANCH   8  11
ENDBRANCH   2   8
TORSDOF 4
ENDMDL
MODEL      157
REMARK 921   NORMALIZED FREE ENERGY PREDICTED BY IDOCK:   -3.72 KCAL/MOL
REMARK 922        TOTAL FREE ENERGY PREDICTED BY IDOCK:   -5.60 KCAL/MOL
REMARK 923 INTER-LIGAND FREE ENERGY PREDICTED BY IDOCK:   -5.05 KCAL/MOL
REMARK 924 INTRA-LIGAND FREE ENERGY PREDICTED BY IDOCK:   -0.56 KCAL/MOL
REMARK 927      BINDING AFFINITY PREDICTED BY RF-SCORE:    0.00 PKD
ROOT
HETATM    1  K   UNL     1     -10.020   5.682  73.150  1.00  0.00    -0.158 K  
HETATM    2  C   UNL     2     -11.937   8.530  71.968  1.00  0.00    -0.361 C  
HETATM    3  H   UNL     2     -10.664   7.679  73.218  1.00  0.00     0.000 HD 
HETATM    4  O   UNL     2     -11.600   7.836  73.198  1.00  0.00    -0.273 OA 
ENDROOT
BRANCH   2   5
HETATM    5  C   UNL     2     -13.446   8.783  71.935  1.00  0.00    -0.404 C  
HETATM    6  O   UNL     2     -13.916   8.940  73.278  1.00  0.00    -1.203 OA 
HETATM    7  H   UNL     2     -14.852   9.096  73.258  1.00  0.00     0.000 HD 
ENDBRANCH   2   5
BRANCH   2   8
HETATM    8  C   UNL     2     -11.392   7.812  70.706  1.00  0.00    -0.279 C  
HETATM    9  O   UNL     2     -12.482   6.991  70.229  1.00  0.00    -0.617 OA 
HETATM   10  H   UNL     2     -12.149   6.551  69.457  1.00  0.00     0.000 HD 
BRANCH   8  11
HETATM   11  C   UNL     2     -10.836   8.753  69.595  1.00  0.00    -0.169 C  
HETATM   12  O   UNL     2     -11.829   9.707  69.169  1.00  0.00    -0.300 OA 
HETATM   13  H   UNL     2     -11.489  10.280  68.492  1.00  0.00     0.000 HD 
BRANCH  11  14
HETATM   14  C   UNL     2     -10.255   8.026  68.370  1.00  0.00    -0.207 C  
HETATM   15  C   UNL     2      -9.628   9.021  67.353  1.00  0.00    -0.152 C  
HETATM   16  O   UNL     2     -11.253   7.207  67.732  1.00  0.00    -0.526 OA 
HETATM   17  H   UNL     2     -10.894   6.758  66.976  1.00  0.00     0.000 HD 
HETATM   18  O   UNL     2      -9.051  10.019  67.886  1.00  0.00    -0.131 OA 
HETATM   19  O   UNL     2      -9.861   8.745  66.143  1.00  0.00    -0.267 OA 
ENDBRANCH  11  14
ENDBRANCH   8  11
ENDBRANCH   2   8
TORSDOF 4
ENDMDL
MODEL      158
REMARK 921   NORMALIZED FREE ENERGY PREDICTED BY IDOCK:   -3.72 KCAL/MOL
REMARK 922        TOTAL FREE ENERGY PREDICTED BY IDOCK:   -5.60 KCAL/MOL
REMARK 923 INTER-LIGAND FREE ENERGY PREDICTED BY IDOCK:   -4.51 KCAL/MOL
REMARK 924 INTRA-LIGAND FREE ENERGY PREDICTED BY IDOCK:   -1.09 KCAL/MOL
REMARK 927      BINDING AFFINITY PREDICTED BY RF-SCORE:    0.00 PKD
ROOT
HETATM    1  K   UNL     1      -7.876   4.650  71.739  1.00  0.00    -0.074 K  
HETATM    2  C   UNL     2     -10.544   5.483  69.421  1.00  0.00    -0.279 C  
HETATM    3  H   UNL     2      -9.677   4.278  70.726  1.00  0.00     0.000 HD 
HETATM    4  O   UNL     2      -9.674   4.378  69.782  1.00  0.00    -0.193 OA 
ENDROOT
BRANCH   2   5
HETATM    5  C   UNL     2     -10.539   5.644  67.899  1.00  0.00    -0.193 C  
HETATM    6  O   UNL     2     -11.528   6.614  67.536  1.00  0.00    -0.721 OA 
HETATM    7  H   UNL     2     -11.526   6.714  66.592  1.00  0.00     0.000 HD 
ENDBRANCH   2   5
BRANCH   2   8
HETATM    8  C   UNL     2     -10.209   6.786  70.192  1.00  0.00    -0.195 C  
HETATM    9  O   UNL     2      -9.558   7.647  69.230  1.00  0.00    -0.158 OA 
HETATM   10  H   UNL     2      -9.353   8.444  69.702  1.00  0.00     0.000 HD 
BRANCH   8  11
HETATM   11  C   UNL     2     -11.422   7.482  70.878  1.00  0.00    -0.281 C  
HETATM   12  O   UNL     2     -12.671   6.917  70.435  1.00  0.00    -0.565 OA 
HETATM   13  H   UNL     2     -13.411   7.342  70.853  1.00  0.00     0.000 HD 
BRANCH  11  14
HETATM   14  C   UNL     2     -11.458   9.012  70.719  1.00  0.00    -0.282 C  
HETATM   15  C   UNL     2     -12.604   9.651  71.553  1.00  0.00    -0.391 C  
HETATM   16  O   UNL     2     -11.567   9.386  69.333  1.00  0.00    -0.430 OA 
HETATM   17  H   UNL     2     -11.589  10.330  69.235  1.00  0.00     0.000 HD 
HETATM   18  O   UNL     2     -12.822   9.080  72.666  1.00  0.00    -0.381 OA 
HETATM   19  O   UNL     2     -13.216  10.587  70.966  1.00  0.00    -0.363 OA 
ENDBRANCH  11  14
ENDBRANCH   8  11
ENDBRANCH   2   8
TORSDOF 4
ENDMDL
MODEL      159
REMARK 921   NORMALIZED FREE ENERGY PREDICTED BY IDOCK:   -3.71 KCAL/MOL
REMARK 922        TOTAL FREE ENERGY PREDICTED BY IDOCK:   -5.59 KCAL/MOL
REMARK 923 INTER-LIGAND FREE ENERGY PREDICTED BY IDOCK:   -4.85 KCAL/MOL
REMARK 924 INTRA-LIGAND FREE ENERGY PREDICTED BY IDOCK:   -0.74 KCAL/MOL
REMARK 927      BINDING AFFINITY PREDICTED BY RF-SCORE:    0.00 PKD
ROOT
HETATM    1  K   UNL     1     -12.086  14.337  68.256  1.00  0.00    -0.266 K  
HETATM    2  C   UNL     2     -10.874  13.632  64.907  1.00  0.00    -0.375 C  
HETATM    3  H   UNL     2     -11.381  14.879  66.354  1.00  0.00     0.000 HD 
HETATM    4  O   UNL     2     -11.814  14.493  65.603  1.00  0.00    -0.356 OA 
ENDROOT
BRANCH   2   5
HETATM    5  C   UNL     2     -11.572  13.009  63.696  1.00  0.00    -0.449 C  
HETATM    6  O   UNL     2     -12.443  13.985  63.113  1.00  0.00    -1.137 OA 
HETATM    7  H   UNL     2     -12.876  13.599  62.362  1.00  0.00     0.000 HD 
ENDBRANCH   2   5
BRANCH   2   8
HETATM    8  C   UNL     2     -10.201  12.597  65.844  1.00  0.00    -0.274 C  
HETATM    9  O   UNL     2      -9.937  13.307  67.076  1.00  0.00    -0.230 OA 
HETATM   10  H   UNL     2      -9.524  12.674  67.650  1.00  0.00     0.000 HD 
BRANCH   8  11
HETATM   11  C   UNL     2     -11.013  11.290  66.083  1.00  0.00    -0.191 C  
HETATM   12  O   UNL     2     -11.713  11.328  67.341  1.00  0.00    -0.580 OA 
HETATM   13  H   UNL     2     -12.209  10.531  67.486  1.00  0.00     0.000 HD 
BRANCH  11  14
HETATM   14  C   UNL     2     -10.188   9.995  65.987  1.00  0.00    -0.207 C  
HETATM   15  C   UNL     2      -8.965  10.019  66.947  1.00  0.00    -0.135 C  
HETATM   16  O   UNL     2      -9.767   9.748  64.633  1.00  0.00    -0.409 OA 
HETATM   17  H   UNL     2      -9.258   8.948  64.574  1.00  0.00     0.000 HD 
HETATM   18  O   UNL     2      -9.179  10.606  68.053  1.00  0.00    -0.143 OA 
HETATM   19  O   UNL     2      -7.907   9.534  66.456  1.00  0.00    -0.100 OA 
ENDBRANCH  11  14
ENDBRANCH   8  11
ENDBRANCH   2   8
TORSDOF 4
ENDMDL
MODEL      160
REMARK 921   NORMALIZED FREE ENERGY PREDICTED BY IDOCK:   -3.71 KCAL/MOL
REMARK 922        TOTAL FREE ENERGY PREDICTED BY IDOCK:   -5.59 KCAL/MOL
REMARK 923 INTER-LIGAND FREE ENERGY PREDICTED BY IDOCK:   -4.98 KCAL/MOL
REMARK 924 INTRA-LIGAND FREE ENERGY PREDICTED BY IDOCK:   -0.61 KCAL/MOL
REMARK 927      BINDING AFFINITY PREDICTED BY RF-SCORE:    0.00 PKD
ROOT
HETATM    1  K   UNL     1     -10.991  18.373  69.993  1.00  0.00    -0.426 K  
HETATM    2  C   UNL     2      -9.011  18.430  66.950  1.00  0.00    -0.280 C  
HETATM    3  H   UNL     2      -9.201  18.224  68.906  1.00  0.00     0.000 HD 
HETATM    4  O   UNL     2      -8.992  18.934  68.312  1.00  0.00    -0.305 OA 
ENDROOT
BRANCH   2   5
HETATM    5  C   UNL     2      -8.675  19.574  65.991  1.00  0.00    -0.208 C  
HETATM    6  O   UNL     2      -9.678  20.588  66.113  1.00  0.00    -0.648 OA 
HETATM    7  H   UNL     2      -9.469  21.297  65.518  1.00  0.00     0.000 HD 
ENDBRANCH   2   5
BRANCH   2   8
HETATM    8  C   UNL     2     -10.327  17.687  66.604  1.00  0.00    -0.333 C  
HETATM    9  O   UNL     2     -10.548  17.929  65.196  1.00  0.00    -0.573 OA 
HETATM   10  H   UNL     2     -11.354  17.474  64.984  1.00  0.00     0.000 HD 
BRANCH   8  11
HETATM   11  C   UNL     2     -10.343  16.168  66.949  1.00  0.00    -0.297 C  
HETATM   12  O   UNL     2     -10.685  15.371  65.798  1.00  0.00    -0.321 OA 
HETATM   13  H   UNL     2     -10.695  14.445  66.009  1.00  0.00     0.000 HD 
BRANCH  11  14
HETATM   14  C   UNL     2     -11.249  15.787  68.132  1.00  0.00    -0.344 C  
HETATM   15  C   UNL     2     -10.427  15.249  69.337  1.00  0.00    -0.251 C  
HETATM   16  O   UNL     2     -12.250  14.833  67.732  1.00  0.00    -0.582 OA 
HETATM   17  H   UNL     2     -12.810  14.599  68.463  1.00  0.00     0.000 HD 
HETATM   18  O   UNL     2      -9.303  15.817  69.500  1.00  0.00    -0.265 OA 
HETATM   19  O   UNL     2     -10.952  14.262  69.927  1.00  0.00    -0.148 OA 
ENDBRANCH  11  14
ENDBRANCH   8  11
ENDBRANCH   2   8
TORSDOF 4
ENDMDL
MODEL      161
REMARK 921   NORMALIZED FREE ENERGY PREDICTED BY IDOCK:   -3.71 KCAL/MOL
REMARK 922        TOTAL FREE ENERGY PREDICTED BY IDOCK:   -5.59 KCAL/MOL
REMARK 923 INTER-LIGAND FREE ENERGY PREDICTED BY IDOCK:   -4.92 KCAL/MOL
REMARK 924 INTRA-LIGAND FREE ENERGY PREDICTED BY IDOCK:   -0.67 KCAL/MOL
REMARK 927      BINDING AFFINITY PREDICTED BY RF-SCORE:    0.00 PKD
ROOT
HETATM    1  K   UNL     1     -10.733  20.050  70.819  1.00  0.00    -0.836 K  
HETATM    2  C   UNL     2      -8.884  18.208  68.294  1.00  0.00    -0.283 C  
HETATM    3  H   UNL     2      -8.983  19.277  69.953  1.00  0.00     0.000 HD 
HETATM    4  O   UNL     2      -8.836  19.457  69.033  1.00  0.00    -0.350 OA 
ENDROOT
BRANCH   2   5
HETATM    5  C   UNL     2      -8.648  18.497  66.810  1.00  0.00    -0.284 C  
HETATM    6  O   UNL     2      -8.094  17.328  66.196  1.00  0.00    -0.397 OA 
HETATM    7  H   UNL     2      -7.947  17.508  65.276  1.00  0.00     0.000 HD 
ENDBRANCH   2   5
BRANCH   2   8
HETATM    8  C   UNL     2     -10.173  17.393  68.578  1.00  0.00    -0.369 C  
HETATM    9  O   UNL     2     -10.885  17.346  67.321  1.00  0.00    -0.263 OA 
HETATM   10  H   UNL     2     -11.673  16.848  67.495  1.00  0.00     0.000 HD 
BRANCH   8  11
HETATM   11  C   UNL     2      -9.942  15.972  69.175  1.00  0.00    -0.246 C  
HETATM   12  O   UNL     2      -8.545  15.620  69.167  1.00  0.00    -0.216 OA 
HETATM   13  H   UNL     2      -8.404  14.754  69.531  1.00  0.00     0.000 HD 
BRANCH  11  14
HETATM   14  C   UNL     2     -10.763  14.855  68.509  1.00  0.00    -0.245 C  
HETATM   15  C   UNL     2     -10.469  14.754  66.986  1.00  0.00    -0.270 C  
HETATM   16  O   UNL     2     -12.171  15.037  68.745  1.00  0.00    -0.569 OA 
HETATM   17  H   UNL     2     -12.678  14.346  68.334  1.00  0.00     0.000 HD 
HETATM   18  O   UNL     2      -9.262  14.988  66.669  1.00  0.00    -0.241 OA 
HETATM   19  O   UNL     2     -11.490  14.544  66.271  1.00  0.00    -0.347 OA 
ENDBRANCH  11  14
ENDBRANCH   8  11
ENDBRANCH   2   8
TORSDOF 4
ENDMDL
MODEL      162
REMARK 921   NORMALIZED FREE ENERGY PREDICTED BY IDOCK:   -3.71 KCAL/MOL
REMARK 922        TOTAL FREE ENERGY PREDICTED BY IDOCK:   -5.58 KCAL/MOL
REMARK 923 INTER-LIGAND FREE ENERGY PREDICTED BY IDOCK:   -4.91 KCAL/MOL
REMARK 924 INTRA-LIGAND FREE ENERGY PREDICTED BY IDOCK:   -0.67 KCAL/MOL
REMARK 927      BINDING AFFINITY PREDICTED BY RF-SCORE:    0.00 PKD
ROOT
HETATM    1  K   UNL     1     -12.153  10.449  68.163  1.00  0.00    -0.428 K  
HETATM    2  C   UNL     2     -10.282   7.337  68.147  1.00  0.00    -0.187 C  
HETATM    3  H   UNL     2     -10.629   9.169  67.492  1.00  0.00     0.000 HD 
HETATM    4  O   UNL     2     -10.881   8.292  67.232  1.00  0.00    -0.232 OA 
ENDROOT
BRANCH   2   5
HETATM    5  C   UNL     2     -10.687   5.923  67.728  1.00  0.00    -0.265 C  
HETATM    6  O   UNL     2     -11.391   5.996  66.483  1.00  0.00    -0.737 OA 
HETATM    7  H   UNL     2     -11.643   5.118  66.222  1.00  0.00     0.000 HD 
ENDBRANCH   2   5
BRANCH   2   8
HETATM    8  C   UNL     2     -10.582   7.662  69.633  1.00  0.00    -0.243 C  
HETATM    9  O   UNL     2     -11.195   8.971  69.626  1.00  0.00    -0.419 OA 
HETATM   10  H   UNL     2     -11.379   9.169  70.536  1.00  0.00     0.000 HD 
BRANCH   8  11
HETATM   11  C   UNL     2     -11.454   6.609  70.380  1.00  0.00    -0.386 C  
HETATM   12  O   UNL     2     -12.849   6.967  70.351  1.00  0.00    -0.520 OA 
HETATM   13  H   UNL     2     -13.381   6.324  70.806  1.00  0.00     0.000 HD 
BRANCH  11  14
HETATM   14  C   UNL     2     -11.020   6.326  71.828  1.00  0.00    -0.258 C  
HETATM   15  C   UNL     2     -11.126   7.596  72.719  1.00  0.00    -0.383 C  
HETATM   16  O   UNL     2      -9.688   5.783  71.873  1.00  0.00    -0.158 OA 
HETATM   17  H   UNL     2      -9.420   5.608  72.768  1.00  0.00     0.000 HD 
HETATM   18  O   UNL     2     -12.109   8.351  72.441  1.00  0.00    -0.371 OA 
HETATM   19  O   UNL     2     -10.169   7.745  73.530  1.00  0.00    -0.323 OA 
ENDBRANCH  11  14
ENDBRANCH   8  11
ENDBRANCH   2   8
TORSDOF 4
ENDMDL
MODEL      163
REMARK 921   NORMALIZED FREE ENERGY PREDICTED BY IDOCK:   -3.71 KCAL/MOL
REMARK 922        TOTAL FREE ENERGY PREDICTED BY IDOCK:   -5.58 KCAL/MOL
REMARK 923 INTER-LIGAND FREE ENERGY PREDICTED BY IDOCK:   -5.03 KCAL/MOL
REMARK 924 INTRA-LIGAND FREE ENERGY PREDICTED BY IDOCK:   -0.55 KCAL/MOL
REMARK 927      BINDING AFFINITY PREDICTED BY RF-SCORE:    0.00 PKD
ROOT
HETATM    1  K   UNL     1      -9.503  17.768  67.271  1.00  0.00    -0.235 K  
HETATM    2  C   UNL     2      -9.395  14.146  67.501  1.00  0.00    -0.204 C  
HETATM    3  H   UNL     2      -9.072  15.952  68.234  1.00  0.00     0.000 HD 
HETATM    4  O   UNL     2      -8.566  15.312  67.749  1.00  0.00    -0.152 OA 
ENDROOT
BRANCH   2   5
HETATM    5  C   UNL     2      -8.581  13.113  66.719  1.00  0.00    -0.036 C  
HETATM    6  O   UNL     2      -7.199  13.261  67.062  1.00  0.00    -0.351 OA 
HETATM    7  H   UNL     2      -6.693  12.620  66.577  1.00  0.00     0.000 HD 
ENDBRANCH   2   5
BRANCH   2   8
HETATM    8  C   UNL     2     -10.753  14.504  66.843  1.00  0.00    -0.288 C  
HETATM    9  O   UNL     2     -11.072  15.832  67.315  1.00  0.00    -0.302 OA 
HETATM   10  H   UNL     2     -11.903  16.052  66.912  1.00  0.00     0.000 HD 
BRANCH   8  11
HETATM   11  C   UNL     2     -10.782  14.410  65.288  1.00  0.00    -0.375 C  
HETATM   12  O   UNL     2     -10.345  15.641  64.680  1.00  0.00    -0.578 OA 
HETATM   13  H   UNL     2     -10.363  15.584  63.731  1.00  0.00     0.000 HD 
BRANCH  11  14
HETATM   14  C   UNL     2     -12.138  13.991  64.695  1.00  0.00    -0.440 C  
HETATM   15  C   UNL     2     -12.048  12.625  63.958  1.00  0.00    -0.462 C  
HETATM   16  O   UNL     2     -12.657  15.009  63.819  1.00  0.00    -0.997 OA 
HETATM   17  H   UNL     2     -13.495  14.750  63.454  1.00  0.00     0.000 HD 
HETATM   18  O   UNL     2     -11.257  11.791  64.498  1.00  0.00    -0.323 OA 
HETATM   19  O   UNL     2     -12.700  12.571  62.878  1.00  0.00    -0.291 OA 
ENDBRANCH  11  14
ENDBRANCH   8  11
ENDBRANCH   2   8
TORSDOF 4
ENDMDL
MODEL      164
REMARK 921   NORMALIZED FREE ENERGY PREDICTED BY IDOCK:   -3.69 KCAL/MOL
REMARK 922        TOTAL FREE ENERGY PREDICTED BY IDOCK:   -5.57 KCAL/MOL
REMARK 923 INTER-LIGAND FREE ENERGY PREDICTED BY IDOCK:   -4.81 KCAL/MOL
REMARK 924 INTRA-LIGAND FREE ENERGY PREDICTED BY IDOCK:   -0.76 KCAL/MOL
REMARK 927      BINDING AFFINITY PREDICTED BY RF-SCORE:    0.00 PKD
ROOT
HETATM    1  K   UNL     1      -8.123  13.374  69.563  1.00  0.00    -0.328 K  
HETATM    2  C   UNL     2      -9.497  16.307  67.921  1.00  0.00    -0.218 C  
HETATM    3  H   UNL     2      -8.012  15.315  68.768  1.00  0.00     0.000 HD 
HETATM    4  O   UNL     2      -8.667  15.940  69.054  1.00  0.00    -0.206 OA 
ENDROOT
BRANCH   2   5
HETATM    5  C   UNL     2     -10.552  17.315  68.381  1.00  0.00    -0.368 C  
HETATM    6  O   UNL     2     -10.836  17.085  69.766  1.00  0.00    -0.389 OA 
HETATM    7  H   UNL     2     -11.490  17.710  70.051  1.00  0.00     0.000 HD 
ENDBRANCH   2   5
BRANCH   2   8
HETATM    8  C   UNL     2     -10.084  15.075  67.184  1.00  0.00    -0.239 C  
HETATM    9  O   UNL     2      -9.000  14.549  66.387  1.00  0.00    -0.426 OA 
HETATM   10  H   UNL     2      -9.360  13.795  65.936  1.00  0.00     0.000 HD 
BRANCH   8  11
HETATM   11  C   UNL     2     -10.716  13.990  68.106  1.00  0.00    -0.246 C  
HETATM   12  O   UNL     2     -10.466  14.272  69.497  1.00  0.00    -0.427 OA 
HETATM   13  H   UNL     2     -10.851  13.609  70.059  1.00  0.00     0.000 HD 
BRANCH  11  14
HETATM   14  C   UNL     2     -10.290  12.547  67.784  1.00  0.00    -0.222 C  
HETATM   15  C   UNL     2     -11.457  11.727  67.165  1.00  0.00    -0.295 C  
HETATM   16  O   UNL     2      -9.769  11.888  68.953  1.00  0.00    -0.396 OA 
HETATM   17  H   UNL     2      -9.506  10.997  68.753  1.00  0.00     0.000 HD 
HETATM   18  O   UNL     2     -12.219  12.396  66.400  1.00  0.00    -0.604 OA 
HETATM   19  O   UNL     2     -11.537  10.537  67.582  1.00  0.00    -0.447 OA 
ENDBRANCH  11  14
ENDBRANCH   8  11
ENDBRANCH   2   8
TORSDOF 4
ENDMDL
MODEL      165
REMARK 921   NORMALIZED FREE ENERGY PREDICTED BY IDOCK:   -3.69 KCAL/MOL
REMARK 922        TOTAL FREE ENERGY PREDICTED BY IDOCK:   -5.56 KCAL/MOL
REMARK 923 INTER-LIGAND FREE ENERGY PREDICTED BY IDOCK:   -4.47 KCAL/MOL
REMARK 924 INTRA-LIGAND FREE ENERGY PREDICTED BY IDOCK:   -1.09 KCAL/MOL
REMARK 927      BINDING AFFINITY PREDICTED BY RF-SCORE:    0.00 PKD
ROOT
HETATM    1  K   UNL     1      -9.458  13.283  64.274  1.00  0.00    -0.539 K  
HETATM    2  C   UNL     2     -10.254  13.290  67.817  1.00  0.00    -0.228 C  
HETATM    3  H   UNL     2     -10.046  12.379  66.075  1.00  0.00     0.000 HD 
HETATM    4  O   UNL     2     -10.759  12.784  66.553  1.00  0.00    -0.254 OA 
ENDROOT
BRANCH   2   5
HETATM    5  C   UNL     2     -11.403  13.943  68.588  1.00  0.00    -0.278 C  
HETATM    6  O   UNL     2     -11.224  13.688  69.985  1.00  0.00    -0.478 OA 
HETATM    7  H   UNL     2     -11.937  14.093  70.463  1.00  0.00     0.000 HD 
ENDBRANCH   2   5
BRANCH   2   8
HETATM    8  C   UNL     2      -9.014  14.205  67.643  1.00  0.00    -0.192 C  
HETATM    9  O   UNL     2      -7.996  13.367  67.052  1.00  0.00    -0.371 OA 
HETATM   10  H   UNL     2      -7.237  13.928  66.946  1.00  0.00     0.000 HD 
BRANCH   8  11
HETATM   11  C   UNL     2      -9.258  15.504  66.818  1.00  0.00    -0.248 C  
HETATM   12  O   UNL     2      -9.310  15.226  65.405  1.00  0.00    -0.345 OA 
HETATM   13  H   UNL     2      -9.459  16.019  64.902  1.00  0.00     0.000 HD 
BRANCH  11  14
HETATM   14  C   UNL     2      -8.252  16.635  67.089  1.00  0.00    -0.179 C  
HETATM   15  C   UNL     2      -8.541  17.886  66.212  1.00  0.00    -0.177 C  
HETATM   16  O   UNL     2      -6.899  16.181  66.898  1.00  0.00    -0.200 OA 
HETATM   17  H   UNL     2      -6.278  16.880  67.065  1.00  0.00     0.000 HD 
HETATM   18  O   UNL     2      -9.775  18.111  66.011  1.00  0.00    -0.497 OA 
HETATM   19  O   UNL     2      -7.509  18.447  65.748  1.00  0.00    -0.484 OA 
ENDBRANCH  11  14
ENDBRANCH   8  11
ENDBRANCH   2   8
TORSDOF 4
ENDMDL
MODEL      166
REMARK 921   NORMALIZED FREE ENERGY PREDICTED BY IDOCK:   -3.68 KCAL/MOL
REMARK 922        TOTAL FREE ENERGY PREDICTED BY IDOCK:   -5.55 KCAL/MOL
REMARK 923 INTER-LIGAND FREE ENERGY PREDICTED BY IDOCK:   -4.87 KCAL/MOL
REMARK 924 INTRA-LIGAND FREE ENERGY PREDICTED BY IDOCK:   -0.68 KCAL/MOL
REMARK 927      BINDING AFFINITY PREDICTED BY RF-SCORE:    0.00 PKD
ROOT
HETATM    1  K   UNL     1      -8.475  20.815  65.574  1.00  0.00    -0.518 K  
HETATM    2  C   UNL     2      -7.549  19.490  68.826  1.00  0.00    -0.351 C  
HETATM    3  H   UNL     2      -8.177  20.948  67.648  1.00  0.00     0.000 HD 
HETATM    4  O   UNL     2      -7.339  20.657  67.987  1.00  0.00    -0.223 OA 
ENDROOT
BRANCH   2   5
HETATM    5  C   UNL     2      -6.199  19.021  69.372  1.00  0.00    -0.266 C  
HETATM    6  O   UNL     2      -5.472  20.160  69.845  1.00  0.00    -0.223 OA 
HETATM    7  H   UNL     2      -4.634  19.869  70.184  1.00  0.00     0.000 HD 
ENDBRANCH   2   5
BRANCH   2   8
HETATM    8  C   UNL     2      -8.359  18.377  68.112  1.00  0.00    -0.284 C  
HETATM    9  O   UNL     2      -7.933  17.138  68.723  1.00  0.00    -0.260 OA 
HETATM   10  H   UNL     2      -8.429  16.457  68.286  1.00  0.00     0.000 HD 
BRANCH   8  11
HETATM   11  C   UNL     2      -9.907  18.552  68.155  1.00  0.00    -0.346 C  
HETATM   12  O   UNL     2     -10.494  17.775  69.217  1.00  0.00    -0.426 OA 
HETATM   13  H   UNL     2     -11.438  17.881  69.242  1.00  0.00     0.000 HD 
BRANCH  11  14
HETATM   14  C   UNL     2     -10.624  18.245  66.829  1.00  0.00    -0.312 C  
HETATM   15  C   UNL     2     -10.362  16.787  66.357  1.00  0.00    -0.306 C  
HETATM   16  O   UNL     2     -10.248  19.186  65.807  1.00  0.00    -0.498 OA 
HETATM   17  H   UNL     2     -10.691  18.997  64.988  1.00  0.00     0.000 HD 
HETATM   18  O   UNL     2     -10.285  15.937  67.298  1.00  0.00    -0.265 OA 
HETATM   19  O   UNL     2     -10.171  16.668  65.113  1.00  0.00    -0.592 OA 
ENDBRANCH  11  14
ENDBRANCH   8  11
ENDBRANCH   2   8
TORSDOF 4
ENDMDL
MODEL      167
REMARK 921   NORMALIZED FREE ENERGY PREDICTED BY IDOCK:   -3.68 KCAL/MOL
REMARK 922        TOTAL FREE ENERGY PREDICTED BY IDOCK:   -5.55 KCAL/MOL
REMARK 923 INTER-LIGAND FREE ENERGY PREDICTED BY IDOCK:   -4.83 KCAL/MOL
REMARK 924 INTRA-LIGAND FREE ENERGY PREDICTED BY IDOCK:   -0.72 KCAL/MOL
REMARK 927      BINDING AFFINITY PREDICTED BY RF-SCORE:    0.00 PKD
ROOT
HETATM    1  K   UNL     1     -11.459  16.262  66.373  1.00  0.00    -0.193 K  
HETATM    2  C   UNL     2     -11.465  13.218  64.394  1.00  0.00    -0.379 C  
HETATM    3  H   UNL     2     -11.127  15.152  64.622  1.00  0.00     0.000 HD 
HETATM    4  O   UNL     2     -11.844  14.617  64.303  1.00  0.00    -0.405 OA 
ENDROOT
BRANCH   2   5
HETATM    5  C   UNL     2     -12.619  12.355  63.880  1.00  0.00    -0.427 C  
HETATM    6  O   UNL     2     -12.096  11.378  62.974  1.00  0.00    -0.934 OA 
HETATM    7  H   UNL     2     -12.812  10.843  62.655  1.00  0.00     0.000 HD 
ENDBRANCH   2   5
BRANCH   2   8
HETATM    8  C   UNL     2     -10.965  12.822  65.807  1.00  0.00    -0.277 C  
HETATM    9  O   UNL     2     -10.427  11.488  65.667  1.00  0.00    -0.251 OA 
HETATM   10  H   UNL     2     -10.122  11.245  66.532  1.00  0.00     0.000 HD 
BRANCH   8  11
HETATM   11  C   UNL     2      -9.940  13.804  66.449  1.00  0.00    -0.297 C  
HETATM   12  O   UNL     2      -8.600  13.280  66.385  1.00  0.00    -0.420 OA 
HETATM   13  H   UNL     2      -7.975  13.880  66.776  1.00  0.00     0.000 HD 
BRANCH  11  14
HETATM   14  C   UNL     2     -10.267  14.220  67.893  1.00  0.00    -0.237 C  
HETATM   15  C   UNL     2      -9.380  15.406  68.367  1.00  0.00    -0.193 C  
HETATM   16  O   UNL     2     -10.147  13.103  68.793  1.00  0.00    -0.385 OA 
HETATM   17  H   UNL     2     -10.349  13.360  69.685  1.00  0.00     0.000 HD 
HETATM   18  O   UNL     2      -9.115  16.256  67.460  1.00  0.00    -0.192 OA 
HETATM   19  O   UNL     2      -8.972  15.309  69.558  1.00  0.00    -0.242 OA 
ENDBRANCH  11  14
ENDBRANCH   8  11
ENDBRANCH   2   8
TORSDOF 4
ENDMDL
MODEL      168
REMARK 921   NORMALIZED FREE ENERGY PREDICTED BY IDOCK:   -3.66 KCAL/MOL
REMARK 922        TOTAL FREE ENERGY PREDICTED BY IDOCK:   -5.53 KCAL/MOL
REMARK 923 INTER-LIGAND FREE ENERGY PREDICTED BY IDOCK:   -4.24 KCAL/MOL
REMARK 924 INTRA-LIGAND FREE ENERGY PREDICTED BY IDOCK:   -1.29 KCAL/MOL
REMARK 927      BINDING AFFINITY PREDICTED BY RF-SCORE:    0.00 PKD
ROOT
HETATM    1  K   UNL     1     -10.028   9.962  71.208  1.00  0.00    -0.256 K  
HETATM    2  C   UNL     2     -10.643   9.959  67.629  1.00  0.00    -0.270 C  
HETATM    3  H   UNL     2     -11.128   9.482  69.485  1.00  0.00     0.000 HD 
HETATM    4  O   UNL     2     -10.660   9.064  68.772  1.00  0.00    -0.217 OA 
ENDROOT
BRANCH   2   5
HETATM    5  C   UNL     2      -9.890   9.285  66.480  1.00  0.00    -0.263 C  
HETATM    6  O   UNL     2     -10.173   9.991  65.267  1.00  0.00    -0.296 OA 
HETATM    7  H   UNL     2      -9.706   9.573  64.554  1.00  0.00     0.000 HD 
ENDBRANCH   2   5
BRANCH   2   8
HETATM    8  C   UNL     2     -10.115  11.373  67.983  1.00  0.00    -0.180 C  
HETATM    9  O   UNL     2      -8.732  11.384  67.563  1.00  0.00    -0.135 OA 
HETATM   10  H   UNL     2      -8.408  12.250  67.780  1.00  0.00     0.000 HD 
BRANCH   8  11
HETATM   11  C   UNL     2     -10.924  12.556  67.373  1.00  0.00    -0.259 C  
HETATM   12  O   UNL     2     -12.053  12.083  66.614  1.00  0.00    -0.615 OA 
HETATM   13  H   UNL     2     -12.547  12.805  66.241  1.00  0.00     0.000 HD 
BRANCH  11  14
HETATM   14  C   UNL     2     -10.093  13.528  66.517  1.00  0.00    -0.282 C  
HETATM   15  C   UNL     2     -10.875  14.836  66.207  1.00  0.00    -0.322 C  
HETATM   16  O   UNL     2      -9.652  12.898  65.300  1.00  0.00    -0.478 OA 
HETATM   17  H   UNL     2      -9.139  13.498  64.771  1.00  0.00     0.000 HD 
HETATM   18  O   UNL     2     -11.622  15.235  67.153  1.00  0.00    -0.265 OA 
HETATM   19  O   UNL     2     -10.728  15.264  65.028  1.00  0.00    -0.400 OA 
ENDBRANCH  11  14
ENDBRANCH   8  11
ENDBRANCH   2   8
TORSDOF 4
ENDMDL
MODEL      169
REMARK 921   NORMALIZED FREE ENERGY PREDICTED BY IDOCK:   -3.65 KCAL/MOL
REMARK 922        TOTAL FREE ENERGY PREDICTED BY IDOCK:   -5.51 KCAL/MOL
REMARK 923 INTER-LIGAND FREE ENERGY PREDICTED BY IDOCK:   -4.52 KCAL/MOL
REMARK 924 INTRA-LIGAND FREE ENERGY PREDICTED BY IDOCK:   -1.00 KCAL/MOL
REMARK 927      BINDING AFFINITY PREDICTED BY RF-SCORE:    0.00 PKD
ROOT
HETATM    1  K   UNL     1     -10.844   6.031  71.104  1.00  0.00    -0.205 K  
HETATM    2  C   UNL     2     -12.051   9.331  72.020  1.00  0.00    -0.336 C  
HETATM    3  H   UNL     2     -11.077   7.656  72.413  1.00  0.00     0.000 HD 
HETATM    4  O   UNL     2     -11.958   7.982  72.550  1.00  0.00    -0.358 OA 
ENDROOT
BRANCH   2   5
HETATM    5  C   UNL     2     -13.471   9.856  72.242  1.00  0.00    -0.300 C  
HETATM    6  O   UNL     2     -14.088   9.089  73.282  1.00  0.00    -1.218 OA 
HETATM    7  H   UNL     2     -14.970   9.414  73.420  1.00  0.00     0.000 HD 
ENDBRANCH   2   5
BRANCH   2   8
HETATM    8  C   UNL     2     -11.566   9.432  70.551  1.00  0.00    -0.235 C  
HETATM    9  O   UNL     2     -12.407  10.435  69.936  1.00  0.00    -0.489 OA 
HETATM   10  H   UNL     2     -12.110  10.497  69.036  1.00  0.00     0.000 HD 
BRANCH   8  11
HETATM   11  C   UNL     2     -10.051   9.746  70.372  1.00  0.00    -0.252 C  
HETATM   12  O   UNL     2      -9.835  10.718  69.331  1.00  0.00    -0.365 OA 
HETATM   13  H   UNL     2      -8.911  10.909  69.222  1.00  0.00     0.000 HD 
BRANCH  11  14
HETATM   14  C   UNL     2      -9.165   8.513  70.123  1.00  0.00    -0.156 C  
HETATM   15  C   UNL     2      -9.638   7.705  68.882  1.00  0.00    -0.150 C  
HETATM   16  O   UNL     2      -9.112   7.670  71.289  1.00  0.00    -0.136 OA 
HETATM   17  H   UNL     2      -8.564   6.909  71.135  1.00  0.00     0.000 HD 
HETATM   18  O   UNL     2     -10.088   8.419  67.933  1.00  0.00    -0.182 OA 
HETATM   19  O   UNL     2      -9.595   6.451  69.029  1.00  0.00    -0.132 OA 
ENDBRANCH  11  14
ENDBRANCH   8  11
ENDBRANCH   2   8
TORSDOF 4
ENDMDL
MODEL      170
REMARK 921   NORMALIZED FREE ENERGY PREDICTED BY IDOCK:   -3.65 KCAL/MOL
REMARK 922        TOTAL FREE ENERGY PREDICTED BY IDOCK:   -5.51 KCAL/MOL
REMARK 923 INTER-LIGAND FREE ENERGY PREDICTED BY IDOCK:   -4.71 KCAL/MOL
REMARK 924 INTRA-LIGAND FREE ENERGY PREDICTED BY IDOCK:   -0.80 KCAL/MOL
REMARK 927      BINDING AFFINITY PREDICTED BY RF-SCORE:    0.00 PKD
ROOT
HETATM    1  K   UNL     1      -6.875  20.262  66.005  1.00  0.00    -0.197 K  
HETATM    2  C   UNL     2      -8.651  17.845  68.052  1.00  0.00    -0.256 C  
HETATM    3  H   UNL     2      -8.034  19.681  67.656  1.00  0.00     0.000 HD 
HETATM    4  O   UNL     2      -7.718  18.951  68.175  1.00  0.00    -0.269 OA 
ENDROOT
BRANCH   2   5
HETATM    5  C   UNL     2      -8.142  16.669  68.888  1.00  0.00    -0.235 C  
HETATM    6  O   UNL     2      -9.221  15.750  69.094  1.00  0.00    -0.223 OA 
HETATM    7  H   UNL     2      -8.906  15.020  69.613  1.00  0.00     0.000 HD 
ENDBRANCH   2   5
BRANCH   2   8
HETATM    8  C   UNL     2      -8.958  17.481  66.576  1.00  0.00    -0.261 C  
HETATM    9  O   UNL     2      -7.950  16.515  66.199  1.00  0.00    -0.312 OA 
HETATM   10  H   UNL     2      -8.138  16.293  65.296  1.00  0.00     0.000 HD 
BRANCH   8  11
HETATM   11  C   UNL     2     -10.401  16.959  66.307  1.00  0.00    -0.308 C  
HETATM   12  O   UNL     2     -11.208  17.011  67.499  1.00  0.00    -0.090 OA 
HETATM   13  H   UNL     2     -12.089  16.692  67.335  1.00  0.00     0.000 HD 
BRANCH  11  14
HETATM   14  C   UNL     2     -10.470  15.551  65.693  1.00  0.00    -0.374 C  
HETATM   15  C   UNL     2     -11.559  15.457  64.587  1.00  0.00    -0.311 C  
HETATM   16  O   UNL     2     -10.689  14.554  66.708  1.00  0.00    -0.284 OA 
HETATM   17  H   UNL     2     -10.732  13.684  66.329  1.00  0.00     0.000 HD 
HETATM   18  O   UNL     2     -11.684  16.509  63.886  1.00  0.00    -1.148 OA 
HETATM   19  O   UNL     2     -12.226  14.385  64.602  1.00  0.00    -0.444 OA 
ENDBRANCH  11  14
ENDBRANCH   8  11
ENDBRANCH   2   8
TORSDOF 4
ENDMDL
MODEL      171
REMARK 921   NORMALIZED FREE ENERGY PREDICTED BY IDOCK:   -3.64 KCAL/MOL
REMARK 922        TOTAL FREE ENERGY PREDICTED BY IDOCK:   -5.50 KCAL/MOL
REMARK 923 INTER-LIGAND FREE ENERGY PREDICTED BY IDOCK:   -5.20 KCAL/MOL
REMARK 924 INTRA-LIGAND FREE ENERGY PREDICTED BY IDOCK:   -0.30 KCAL/MOL
REMARK 927      BINDING AFFINITY PREDICTED BY RF-SCORE:    0.00 PKD
ROOT
HETATM    1  K   UNL     1      -8.753   8.943  72.830  1.00  0.00    -0.198 K  
HETATM    2  C   UNL     2     -12.246   8.653  71.880  1.00  0.00    -0.355 C  
HETATM    3  H   UNL     2     -10.817   8.935  73.216  1.00  0.00     0.000 HD 
HETATM    4  O   UNL     2     -11.317   8.194  72.897  1.00  0.00    -0.387 OA 
ENDROOT
BRANCH   2   5
HETATM    5  C   UNL     2     -13.052   7.458  71.365  1.00  0.00    -0.350 C  
HETATM    6  O   UNL     2     -14.370   7.904  71.026  1.00  0.00    -0.662 OA 
HETATM    7  H   UNL     2     -14.870   7.163  70.707  1.00  0.00     0.000 HD 
ENDBRANCH   2   5
BRANCH   2   8
HETATM    8  C   UNL     2     -11.552   9.472  70.760  1.00  0.00    -0.308 C  
HETATM    9  O   UNL     2     -11.245   8.518  69.718  1.00  0.00    -0.434 OA 
HETATM   10  H   UNL     2     -10.820   9.019  69.033  1.00  0.00     0.000 HD 
BRANCH   8  11
HETATM   11  C   UNL     2     -12.367  10.686  70.224  1.00  0.00    -0.325 C  
HETATM   12  O   UNL     2     -12.508  10.632  68.791  1.00  0.00    -0.795 OA 
HETATM   13  H   UNL     2     -13.006  11.373  68.464  1.00  0.00     0.000 HD 
BRANCH  11  14
HETATM   14  C   UNL     2     -11.819  12.062  70.640  1.00  0.00    -0.002 C  
HETATM   15  C   UNL     2     -12.889  12.906  71.388  1.00  0.00    -0.283 C  
HETATM   16  O   UNL     2     -11.307  12.781  69.503  1.00  0.00    -0.395 OA 
HETATM   17  H   UNL     2     -10.968  13.630  69.761  1.00  0.00     0.000 HD 
HETATM   18  O   UNL     2     -13.661  12.230  72.136  1.00  0.00    -0.376 OA 
HETATM   19  O   UNL     2     -12.899  14.130  71.075  1.00  0.00    -0.328 OA 
ENDBRANCH  11  14
ENDBRANCH   8  11
ENDBRANCH   2   8
TORSDOF 4
ENDMDL
MODEL      172
REMARK 921   NORMALIZED FREE ENERGY PREDICTED BY IDOCK:   -3.63 KCAL/MOL
REMARK 922        TOTAL FREE ENERGY PREDICTED BY IDOCK:   -5.49 KCAL/MOL
REMARK 923 INTER-LIGAND FREE ENERGY PREDICTED BY IDOCK:   -4.41 KCAL/MOL
REMARK 924 INTRA-LIGAND FREE ENERGY PREDICTED BY IDOCK:   -1.09 KCAL/MOL
REMARK 927      BINDING AFFINITY PREDICTED BY RF-SCORE:    0.00 PKD
ROOT
HETATM    1  K   UNL     1     -10.234  10.479  67.077  1.00  0.00    -0.172 K  
HETATM    2  C   UNL     2     -10.470   8.034  69.751  1.00  0.00    -0.227 C  
HETATM    3  H   UNL     2      -9.463   8.999  68.351  1.00  0.00     0.000 HD 
HETATM    4  O   UNL     2      -9.941   8.181  68.407  1.00  0.00    -0.178 OA 
ENDROOT
BRANCH   2   5
HETATM    5  C   UNL     2     -11.241   6.715  69.843  1.00  0.00    -0.364 C  
HETATM    6  O   UNL     2     -12.503   6.962  70.473  1.00  0.00    -0.601 OA 
HETATM    7  H   UNL     2     -12.981   6.144  70.529  1.00  0.00     0.000 HD 
ENDBRANCH   2   5
BRANCH   2   8
HETATM    8  C   UNL     2     -11.285   9.271  70.213  1.00  0.00    -0.231 C  
HETATM    9  O   UNL     2     -10.946   9.458  71.605  1.00  0.00    -0.369 OA 
HETATM   10  H   UNL     2     -11.445  10.215  71.888  1.00  0.00     0.000 HD 
BRANCH   8  11
HETATM   11  C   UNL     2     -11.060  10.564  69.374  1.00  0.00    -0.258 C  
HETATM   12  O   UNL     2      -9.731  11.088  69.563  1.00  0.00    -0.428 OA 
HETATM   13  H   UNL     2      -9.594  11.877  69.052  1.00  0.00     0.000 HD 
BRANCH  11  14
HETATM   14  C   UNL     2     -12.096  11.675  69.618  1.00  0.00    -0.280 C  
HETATM   15  C   UNL     2     -11.871  12.890  68.673  1.00  0.00    -0.312 C  
HETATM   16  O   UNL     2     -12.092  12.094  70.995  1.00  0.00    -0.377 OA 
HETATM   17  H   UNL     2     -12.732  12.779  71.145  1.00  0.00     0.000 HD 
HETATM   18  O   UNL     2     -11.470  12.580  67.508  1.00  0.00    -0.293 OA 
HETATM   19  O   UNL     2     -12.029  14.015  69.225  1.00  0.00    -0.317 OA 
ENDBRANCH  11  14
ENDBRANCH   8  11
ENDBRANCH   2   8
TORSDOF 4
ENDMDL
MODEL      173
REMARK 921   NORMALIZED FREE ENERGY PREDICTED BY IDOCK:   -3.63 KCAL/MOL
REMARK 922        TOTAL FREE ENERGY PREDICTED BY IDOCK:   -5.49 KCAL/MOL
REMARK 923 INTER-LIGAND FREE ENERGY PREDICTED BY IDOCK:   -4.56 KCAL/MOL
REMARK 924 INTRA-LIGAND FREE ENERGY PREDICTED BY IDOCK:   -0.93 KCAL/MOL
REMARK 927      BINDING AFFINITY PREDICTED BY RF-SCORE:    0.00 PKD
ROOT
HETATM    1  K   UNL     1     -11.834   7.129  68.821  1.00  0.00    -0.453 K  
HETATM    2  C   UNL     2     -10.661  10.225  67.330  1.00  0.00    -0.267 C  
HETATM    3  H   UNL     2     -11.701   8.545  67.276  1.00  0.00     0.000 HD 
HETATM    4  O   UNL     2     -10.832   8.819  67.010  1.00  0.00    -0.193 OA 
ENDROOT
BRANCH   2   5
HETATM    5  C   UNL     2      -9.259  10.666  66.901  1.00  0.00    -0.155 C  
HETATM    6  O   UNL     2      -9.024  11.991  67.390  1.00  0.00    -0.165 OA 
HETATM    7  H   UNL     2      -8.155  12.265  67.124  1.00  0.00     0.000 HD 
ENDBRANCH   2   5
BRANCH   2   8
HETATM    8  C   UNL     2     -10.996  10.549  68.809  1.00  0.00    -0.251 C  
HETATM    9  O   UNL     2     -12.438  10.508  68.895  1.00  0.00    -0.776 OA 
HETATM   10  H   UNL     2     -12.644  10.706  69.800  1.00  0.00     0.000 HD 
BRANCH   8  11
HETATM   11  C   UNL     2     -10.317   9.623  69.861  1.00  0.00    -0.249 C  
HETATM   12  O   UNL     2      -9.837   8.406  69.258  1.00  0.00    -0.178 OA 
HETATM   13  H   UNL     2      -9.423   7.841  69.900  1.00  0.00     0.000 HD 
BRANCH  11  14
HETATM   14  C   UNL     2     -11.194   9.287  71.080  1.00  0.00    -0.343 C  
HETATM   15  C   UNL     2     -10.388   8.540  72.181  1.00  0.00    -0.339 C  
HETATM   16  O   UNL     2     -12.352   8.525  70.692  1.00  0.00    -0.496 OA 
HETATM   17  H   UNL     2     -12.893   8.318  71.445  1.00  0.00     0.000 HD 
HETATM   18  O   UNL     2      -9.183   8.923  72.298  1.00  0.00    -0.376 OA 
HETATM   19  O   UNL     2     -11.018   7.598  72.739  1.00  0.00    -0.315 OA 
ENDBRANCH  11  14
ENDBRANCH   8  11
ENDBRANCH   2   8
TORSDOF 4
ENDMDL
MODEL      174
REMARK 921   NORMALIZED FREE ENERGY PREDICTED BY IDOCK:   -3.62 KCAL/MOL
REMARK 922        TOTAL FREE ENERGY PREDICTED BY IDOCK:   -5.47 KCAL/MOL
REMARK 923 INTER-LIGAND FREE ENERGY PREDICTED BY IDOCK:   -4.75 KCAL/MOL
REMARK 924 INTRA-LIGAND FREE ENERGY PREDICTED BY IDOCK:   -0.72 KCAL/MOL
REMARK 927      BINDING AFFINITY PREDICTED BY RF-SCORE:    0.00 PKD
ROOT
HETATM    1  K   UNL     1     -11.677   5.390  65.740  1.00  0.00    -0.599 K  
HETATM    2  C   UNL     2      -9.466   5.868  68.581  1.00  0.00    -0.122 C  
HETATM    3  H   UNL     2      -9.806   5.392  66.693  1.00  0.00     0.000 HD 
HETATM    4  O   UNL     2      -9.735   4.920  67.514  1.00  0.00    -0.147 OA 
ENDROOT
BRANCH   2   5
HETATM    5  C   UNL     2      -9.352   5.108  69.904  1.00  0.00    -0.143 C  
HETATM    6  O   UNL     2      -9.785   3.759  69.700  1.00  0.00    -0.199 OA 
HETATM    7  H   UNL     2      -9.714   3.288  70.521  1.00  0.00     0.000 HD 
ENDBRANCH   2   5
BRANCH   2   8
HETATM    8  C   UNL     2     -10.484   7.037  68.614  1.00  0.00    -0.204 C  
HETATM    9  O   UNL     2     -11.572   6.626  67.756  1.00  0.00    -0.635 OA 
HETATM   10  H   UNL     2     -12.195   7.342  67.777  1.00  0.00     0.000 HD 
BRANCH   8  11
HETATM   11  C   UNL     2     -10.977   7.448  70.034  1.00  0.00    -0.248 C  
HETATM   12  O   UNL     2     -12.304   6.950  70.293  1.00  0.00    -0.625 OA 
HETATM   13  H   UNL     2     -12.604   7.201  71.159  1.00  0.00     0.000 HD 
BRANCH  11  14
HETATM   14  C   UNL     2     -10.924   8.959  70.319  1.00  0.00    -0.241 C  
HETATM   15  C   UNL     2     -11.629   9.317  71.658  1.00  0.00    -0.393 C  
HETATM   16  O   UNL     2     -11.488   9.712  69.229  1.00  0.00    -0.448 OA 
HETATM   17  H   UNL     2     -11.455  10.645  69.406  1.00  0.00     0.000 HD 
HETATM   18  O   UNL     2     -11.486   8.449  72.574  1.00  0.00    -0.380 OA 
HETATM   19  O   UNL     2     -12.321  10.374  71.616  1.00  0.00    -0.370 OA 
ENDBRANCH  11  14
ENDBRANCH   8  11
ENDBRANCH   2   8
TORSDOF 4
ENDMDL
MODEL      175
REMARK 921   NORMALIZED FREE ENERGY PREDICTED BY IDOCK:   -3.61 KCAL/MOL
REMARK 922        TOTAL FREE ENERGY PREDICTED BY IDOCK:   -5.46 KCAL/MOL
REMARK 923 INTER-LIGAND FREE ENERGY PREDICTED BY IDOCK:   -4.88 KCAL/MOL
REMARK 924 INTRA-LIGAND FREE ENERGY PREDICTED BY IDOCK:   -0.58 KCAL/MOL
REMARK 927      BINDING AFFINITY PREDICTED BY RF-SCORE:    0.00 PKD
ROOT
HETATM    1  K   UNL     1      -9.515  20.790  64.970  1.00  0.00    -0.564 K  
HETATM    2  C   UNL     2     -10.799  18.457  67.438  1.00  0.00    -0.268 C  
HETATM    3  H   UNL     2     -10.917  20.125  66.384  1.00  0.00     0.000 HD 
HETATM    4  O   UNL     2     -10.589  19.880  67.241  1.00  0.00    -0.430 OA 
ENDROOT
BRANCH   2   5
HETATM    5  C   UNL     2     -10.271  18.062  68.819  1.00  0.00    -0.354 C  
HETATM    6  O   UNL     2      -9.186  18.931  69.163  1.00  0.00    -0.216 OA 
HETATM    7  H   UNL     2      -8.858  18.686  70.019  1.00  0.00     0.000 HD 
ENDBRANCH   2   5
BRANCH   2   8
HETATM    8  C   UNL     2     -10.228  17.600  66.278  1.00  0.00    -0.362 C  
HETATM    9  O   UNL     2      -8.943  18.183  65.965  1.00  0.00    -0.503 OA 
HETATM   10  H   UNL     2      -8.594  17.659  65.255  1.00  0.00     0.000 HD 
BRANCH   8  11
HETATM   11  C   UNL     2     -10.125  16.073  66.570  1.00  0.00    -0.287 C  
HETATM   12  O   UNL     2      -8.760  15.617  66.505  1.00  0.00    -0.260 OA 
HETATM   13  H   UNL     2      -8.697  14.686  66.683  1.00  0.00     0.000 HD 
BRANCH  11  14
HETATM   14  C   UNL     2     -11.011  15.188  65.676  1.00  0.00    -0.355 C  
HETATM   15  C   UNL     2     -11.107  13.734  66.219  1.00  0.00    -0.302 C  
HETATM   16  O   UNL     2     -10.542  15.194  64.315  1.00  0.00    -0.431 OA 
HETATM   17  H   UNL     2     -11.090  14.648  63.763  1.00  0.00     0.000 HD 
HETATM   18  O   UNL     2     -11.123  13.649  67.486  1.00  0.00    -0.266 OA 
HETATM   19  O   UNL     2     -11.062  12.841  65.327  1.00  0.00    -0.279 OA 
ENDBRANCH  11  14
ENDBRANCH   8  11
ENDBRANCH   2   8
TORSDOF 4
ENDMDL
MODEL      176
REMARK 921   NORMALIZED FREE ENERGY PREDICTED BY IDOCK:   -3.59 KCAL/MOL
REMARK 922        TOTAL FREE ENERGY PREDICTED BY IDOCK:   -5.44 KCAL/MOL
REMARK 923 INTER-LIGAND FREE ENERGY PREDICTED BY IDOCK:   -4.91 KCAL/MOL
REMARK 924 INTRA-LIGAND FREE ENERGY PREDICTED BY IDOCK:   -0.53 KCAL/MOL
REMARK 927      BINDING AFFINITY PREDICTED BY RF-SCORE:    0.00 PKD
ROOT
HETATM    1  K   UNL     1      -9.226   7.030  72.159  1.00  0.00    -0.131 K  
HETATM    2  C   UNL     2     -12.256   9.032  72.140  1.00  0.00    -0.357 C  
HETATM    3  H   UNL     2     -10.687   8.248  73.050  1.00  0.00     0.000 HD 
HETATM    4  O   UNL     2     -11.595   8.003  72.922  1.00  0.00    -0.397 OA 
ENDROOT
BRANCH   2   5
HETATM    5  C   UNL     2     -13.720   8.637  71.933  1.00  0.00    -0.421 C  
HETATM    6  O   UNL     2     -14.391   8.680  73.197  1.00  0.00    -1.076 OA 
HETATM    7  H   UNL     2     -15.300   8.435  73.070  1.00  0.00     0.000 HD 
ENDBRANCH   2   5
BRANCH   2   8
HETATM    8  C   UNL     2     -11.503   9.361  70.825  1.00  0.00    -0.300 C  
HETATM    9  O   UNL     2     -11.840   8.294  69.909  1.00  0.00    -0.310 OA 
HETATM   10  H   UNL     2     -11.379   8.496  69.105  1.00  0.00     0.000 HD 
BRANCH   8  11
HETATM   11  C   UNL     2     -11.802  10.767  70.223  1.00  0.00    -0.349 C  
HETATM   12  O   UNL     2     -13.101  10.807  69.601  1.00  0.00    -0.422 OA 
HETATM   13  H   UNL     2     -13.283  11.664  69.234  1.00  0.00     0.000 HD 
BRANCH  11  14
HETATM   14  C   UNL     2     -10.739  11.283  69.239  1.00  0.00    -0.179 C  
HETATM   15  C   UNL     2     -11.098  12.693  68.690  1.00  0.00    -0.266 C  
HETATM   16  O   UNL     2     -10.538  10.353  68.159  1.00  0.00    -0.182 OA 
HETATM   17  H   UNL     2      -9.881  10.671  67.551  1.00  0.00     0.000 HD 
HETATM   18  O   UNL     2     -11.667  13.454  69.533  1.00  0.00    -0.292 OA 
HETATM   19  O   UNL     2     -10.857  12.850  67.460  1.00  0.00    -0.230 OA 
ENDBRANCH  11  14
ENDBRANCH   8  11
ENDBRANCH   2   8
TORSDOF 4
ENDMDL
MODEL      177
REMARK 921   NORMALIZED FREE ENERGY PREDICTED BY IDOCK:   -3.57 KCAL/MOL
REMARK 922        TOTAL FREE ENERGY PREDICTED BY IDOCK:   -5.41 KCAL/MOL
REMARK 923 INTER-LIGAND FREE ENERGY PREDICTED BY IDOCK:   -4.74 KCAL/MOL
REMARK 924 INTRA-LIGAND FREE ENERGY PREDICTED BY IDOCK:   -0.68 KCAL/MOL
REMARK 927      BINDING AFFINITY PREDICTED BY RF-SCORE:    0.00 PKD
ROOT
HETATM    1  K   UNL     1     -10.740  11.114  70.602  1.00  0.00    -0.430 K  
HETATM    2  C   UNL     2     -13.108   8.396  71.044  1.00  0.00     0.104 C  
HETATM    3  H   UNL     2     -12.484  10.039  70.140  1.00  0.00     0.000 HD 
HETATM    4  O   UNL     2     -13.073   9.836  70.856  1.00  0.00    -0.312 OA 
ENDROOT
BRANCH   2   5
HETATM    5  C   UNL     2     -14.057   8.068  72.199  1.00  0.00    -0.256 C  
HETATM    6  O   UNL     2     -14.009   9.135  73.152  1.00  0.00    -1.101 OA 
HETATM    7  H   UNL     2     -14.598   8.932  73.869  1.00  0.00     0.000 HD 
ENDBRANCH   2   5
BRANCH   2   8
HETATM    8  C   UNL     2     -11.694   7.778  71.199  1.00  0.00    -0.284 C  
HETATM    9  O   UNL     2     -11.903   6.490  71.822  1.00  0.00    -0.310 OA 
HETATM   10  H   UNL     2     -11.038   6.111  71.916  1.00  0.00     0.000 HD 
BRANCH   8  11
HETATM   11  C   UNL     2     -10.871   7.666  69.881  1.00  0.00    -0.235 C  
HETATM   12  O   UNL     2     -11.137   8.775  69.000  1.00  0.00    -0.437 OA 
HETATM   13  H   UNL     2     -10.635   8.707  68.196  1.00  0.00     0.000 HD 
BRANCH  11  14
HETATM   14  C   UNL     2     -11.055   6.342  69.119  1.00  0.00    -0.365 C  
HETATM   15  C   UNL     2      -9.788   5.446  69.207  1.00  0.00    -0.182 C  
HETATM   16  O   UNL     2     -11.415   6.581  67.746  1.00  0.00    -0.664 OA 
HETATM   17  H   UNL     2     -11.529   5.764  67.276  1.00  0.00     0.000 HD 
HETATM   18  O   UNL     2      -9.179   5.508  70.320  1.00  0.00    -0.144 OA 
HETATM   19  O   UNL     2      -9.492   4.855  68.131  1.00  0.00    -0.124 OA 
ENDBRANCH  11  14
ENDBRANCH   8  11
ENDBRANCH   2   8
TORSDOF 4
ENDMDL
MODEL      178
REMARK 921   NORMALIZED FREE ENERGY PREDICTED BY IDOCK:   -3.57 KCAL/MOL
REMARK 922        TOTAL FREE ENERGY PREDICTED BY IDOCK:   -5.41 KCAL/MOL
REMARK 923 INTER-LIGAND FREE ENERGY PREDICTED BY IDOCK:   -4.67 KCAL/MOL
REMARK 924 INTRA-LIGAND FREE ENERGY PREDICTED BY IDOCK:   -0.75 KCAL/MOL
REMARK 927      BINDING AFFINITY PREDICTED BY RF-SCORE:    0.00 PKD
ROOT
HETATM    1  K   UNL     1     -10.699   7.779  66.049  1.00  0.00    -0.474 K  
HETATM    2  C   UNL     2      -8.026  10.217  66.356  1.00  0.00    -0.121 C  
HETATM    3  H   UNL     2      -8.774   8.523  65.664  1.00  0.00     0.000 HD 
HETATM    4  O   UNL     2      -8.250   8.784  66.412  1.00  0.00    -0.107 OA 
ENDROOT
BRANCH   2   5
HETATM    5  C   UNL     2      -7.182  10.637  67.561  1.00  0.00    -0.090 C  
HETATM    6  O   UNL     2      -8.057  11.065  68.610  1.00  0.00    -0.134 OA 
HETATM    7  H   UNL     2      -7.534  11.326  69.358  1.00  0.00     0.000 HD 
ENDBRANCH   2   5
BRANCH   2   8
HETATM    8  C   UNL     2      -9.341  11.024  66.199  1.00  0.00    -0.191 C  
HETATM    9  O   UNL     2      -8.950  12.414  66.257  1.00  0.00    -0.379 OA 
HETATM   10  H   UNL     2      -9.755  12.908  66.161  1.00  0.00     0.000 HD 
BRANCH   8  11
HETATM   11  C   UNL     2     -10.169  10.700  64.920  1.00  0.00    -0.324 C  
HETATM   12  O   UNL     2      -9.583   9.615  64.175  1.00  0.00    -0.410 OA 
HETATM   13  H   UNL     2     -10.088   9.417  63.395  1.00  0.00     0.000 HD 
BRANCH  11  14
HETATM   14  C   UNL     2     -10.406  11.901  63.987  1.00  0.00    -0.364 C  
HETATM   15  C   UNL     2     -11.764  12.600  64.282  1.00  0.00    -0.381 C  
HETATM   16  O   UNL     2     -10.326  11.507  62.605  1.00  0.00    -0.601 OA 
HETATM   17  H   UNL     2     -10.472  12.249  62.030  1.00  0.00     0.000 HD 
HETATM   18  O   UNL     2     -12.085  12.622  65.511  1.00  0.00    -0.436 OA 
HETATM   19  O   UNL     2     -12.397  12.964  63.251  1.00  0.00    -0.652 OA 
ENDBRANCH  11  14
ENDBRANCH   8  11
ENDBRANCH   2   8
TORSDOF 4
ENDMDL
MODEL      179
REMARK 921   NORMALIZED FREE ENERGY PREDICTED BY IDOCK:   -3.56 KCAL/MOL
REMARK 922        TOTAL FREE ENERGY PREDICTED BY IDOCK:   -5.40 KCAL/MOL
REMARK 923 INTER-LIGAND FREE ENERGY PREDICTED BY IDOCK:   -4.67 KCAL/MOL
REMARK 924 INTRA-LIGAND FREE ENERGY PREDICTED BY IDOCK:   -0.73 KCAL/MOL
REMARK 927      BINDING AFFINITY PREDICTED BY RF-SCORE:    0.00 PKD
ROOT
HETATM    1  K   UNL     1      -9.758  20.771  64.999  1.00  0.00    -0.592 K  
HETATM    2  C   UNL     2      -8.898  19.356  68.231  1.00  0.00    -0.337 C  
HETATM    3  H   UNL     2      -9.528  20.839  67.085  1.00  0.00     0.000 HD 
HETATM    4  O   UNL     2      -8.694  20.557  67.440  1.00  0.00    -0.342 OA 
ENDROOT
BRANCH   2   5
HETATM    5  C   UNL     2      -7.553  18.903  68.804  1.00  0.00    -0.333 C  
HETATM    6  O   UNL     2      -6.847  20.051  69.287  1.00  0.00    -0.314 OA 
HETATM    7  H   UNL     2      -6.013  19.770  69.642  1.00  0.00     0.000 HD 
ENDBRANCH   2   5
BRANCH   2   8
HETATM    8  C   UNL     2      -9.655  18.249  67.453  1.00  0.00    -0.283 C  
HETATM    9  O   UNL     2     -10.163  18.892  66.263  1.00  0.00    -0.391 OA 
HETATM   10  H   UNL     2     -10.626  18.214  65.787  1.00  0.00     0.000 HD 
BRANCH   8  11
HETATM   11  C   UNL     2      -8.816  16.978  67.122  1.00  0.00    -0.218 C  
HETATM   12  O   UNL     2      -8.467  16.928  65.725  1.00  0.00    -0.492 OA 
HETATM   13  H   UNL     2      -7.956  16.153  65.524  1.00  0.00     0.000 HD 
BRANCH  11  14
HETATM   14  C   UNL     2      -9.470  15.650  67.543  1.00  0.00    -0.214 C  
HETATM   15  C   UNL     2     -10.852  15.447  66.861  1.00  0.00    -0.313 C  
HETATM   16  O   UNL     2      -9.590  15.563  68.975  1.00  0.00    -0.206 OA 
HETATM   17  H   UNL     2      -9.994  14.743  69.234  1.00  0.00     0.000 HD 
HETATM   18  O   UNL     2     -10.919  15.890  65.672  1.00  0.00    -0.290 OA 
HETATM   19  O   UNL     2     -11.738  14.957  67.615  1.00  0.00    -0.349 OA 
ENDBRANCH  11  14
ENDBRANCH   8  11
ENDBRANCH   2   8
TORSDOF 4
ENDMDL
MODEL      180
REMARK 921   NORMALIZED FREE ENERGY PREDICTED BY IDOCK:   -3.55 KCAL/MOL
REMARK 922        TOTAL FREE ENERGY PREDICTED BY IDOCK:   -5.39 KCAL/MOL
REMARK 923 INTER-LIGAND FREE ENERGY PREDICTED BY IDOCK:   -4.48 KCAL/MOL
REMARK 924 INTRA-LIGAND FREE ENERGY PREDICTED BY IDOCK:   -0.91 KCAL/MOL
REMARK 927      BINDING AFFINITY PREDICTED BY RF-SCORE:    0.00 PKD
ROOT
HETATM    1  K   UNL     1      -9.362  14.962  70.508  1.00  0.00    -0.429 K  
HETATM    2  C   UNL     2      -9.946  13.145  67.419  1.00  0.00    -0.229 C  
HETATM    3  H   UNL     2      -8.930  14.432  68.523  1.00  0.00     0.000 HD 
HETATM    4  O   UNL     2      -9.639  14.483  67.894  1.00  0.00    -0.209 OA 
ENDROOT
BRANCH   2   5
HETATM    5  C   UNL     2     -11.090  13.227  66.405  1.00  0.00    -0.295 C  
HETATM    6  O   UNL     2     -12.234  13.801  67.047  1.00  0.00    -0.401 OA 
HETATM    7  H   UNL     2     -12.943  13.851  66.419  1.00  0.00     0.000 HD 
ENDBRANCH   2   5
BRANCH   2   8
HETATM    8  C   UNL     2     -10.200  12.142  68.573  1.00  0.00    -0.207 C  
HETATM    9  O   UNL     2     -10.927  12.885  69.577  1.00  0.00    -0.449 OA 
HETATM   10  H   UNL     2     -11.083  12.271  70.284  1.00  0.00     0.000 HD 
BRANCH   8  11
HETATM   11  C   UNL     2     -10.937  10.832  68.164  1.00  0.00    -0.257 C  
HETATM   12  O   UNL     2     -12.349  10.917  68.435  1.00  0.00    -0.803 OA 
HETATM   13  H   UNL     2     -12.798  10.117  68.185  1.00  0.00     0.000 HD 
BRANCH  11  14
HETATM   14  C   UNL     2     -10.363   9.550  68.792  1.00  0.00    -0.208 C  
HETATM   15  C   UNL     2     -10.345   9.628  70.345  1.00  0.00    -0.291 C  
HETATM   16  O   UNL     2      -9.047   9.267  68.281  1.00  0.00    -0.129 OA 
HETATM   17  H   UNL     2      -8.694   8.475  68.669  1.00  0.00     0.000 HD 
HETATM   18  O   UNL     2     -11.333  10.247  70.850  1.00  0.00    -0.337 OA 
HETATM   19  O   UNL     2      -9.306   9.147  70.879  1.00  0.00    -0.237 OA 
ENDBRANCH  11  14
ENDBRANCH   8  11
ENDBRANCH   2   8
TORSDOF 4
ENDMDL
MODEL      181
REMARK 921   NORMALIZED FREE ENERGY PREDICTED BY IDOCK:   -3.55 KCAL/MOL
REMARK 922        TOTAL FREE ENERGY PREDICTED BY IDOCK:   -5.39 KCAL/MOL
REMARK 923 INTER-LIGAND FREE ENERGY PREDICTED BY IDOCK:   -4.65 KCAL/MOL
REMARK 924 INTRA-LIGAND FREE ENERGY PREDICTED BY IDOCK:   -0.75 KCAL/MOL
REMARK 927      BINDING AFFINITY PREDICTED BY RF-SCORE:    0.00 PKD
ROOT
HETATM    1  K   UNL     1     -11.196  17.369  72.895  1.00  0.00    -0.325 K  
HETATM    2  C   UNL     2     -13.225  15.089  70.927  1.00  0.00    -0.399 C  
HETATM    3  H   UNL     2     -12.909  16.832  71.805  1.00  0.00     0.000 HD 
HETATM    4  O   UNL     2     -13.336  16.017  72.039  1.00  0.00    -0.366 OA 
ENDROOT
BRANCH   2   5
HETATM    5  C   UNL     2     -13.914  13.776  71.304  1.00  0.00     0.129 C  
HETATM    6  O   UNL     2     -13.528  13.419  72.636  1.00  0.00    -0.568 OA 
HETATM    7  H   UNL     2     -13.955  12.604  72.869  1.00  0.00     0.000 HD 
ENDBRANCH   2   5
BRANCH   2   8
HETATM    8  C   UNL     2     -11.765  14.915  70.435  1.00  0.00    -0.297 C  
HETATM    9  O   UNL     2     -10.956  14.879  71.632  1.00  0.00    -0.540 OA 
HETATM   10  H   UNL     2     -10.062  14.772  71.331  1.00  0.00     0.000 HD 
BRANCH   8  11
HETATM   11  C   UNL     2     -11.516  13.679  69.520  1.00  0.00    -0.263 C  
HETATM   12  O   UNL     2     -10.119  13.329  69.479  1.00  0.00    -0.113 OA 
HETATM   13  H   UNL     2      -9.968  12.575  68.920  1.00  0.00     0.000 HD 
BRANCH  11  14
HETATM   14  C   UNL     2     -12.059  13.820  68.088  1.00  0.00    -0.281 C  
HETATM   15  C   UNL     2     -11.888  12.507  67.274  1.00  0.00    -0.311 C  
HETATM   16  O   UNL     2     -11.439  14.926  67.406  1.00  0.00    -0.339 OA 
HETATM   17  H   UNL     2     -11.775  15.014  66.522  1.00  0.00     0.000 HD 
HETATM   18  O   UNL     2     -12.041  11.445  67.955  1.00  0.00    -0.646 OA 
HETATM   19  O   UNL     2     -11.530  12.679  66.075  1.00  0.00    -0.328 OA 
ENDBRANCH  11  14
ENDBRANCH   8  11
ENDBRANCH   2   8
TORSDOF 4
ENDMDL
MODEL      182
REMARK 921   NORMALIZED FREE ENERGY PREDICTED BY IDOCK:   -3.55 KCAL/MOL
REMARK 922        TOTAL FREE ENERGY PREDICTED BY IDOCK:   -5.39 KCAL/MOL
REMARK 923 INTER-LIGAND FREE ENERGY PREDICTED BY IDOCK:   -4.45 KCAL/MOL
REMARK 924 INTRA-LIGAND FREE ENERGY PREDICTED BY IDOCK:   -0.94 KCAL/MOL
REMARK 927      BINDING AFFINITY PREDICTED BY RF-SCORE:    0.00 PKD
ROOT
HETATM    1  K   UNL     1     -11.690   7.835  67.374  1.00  0.00    -0.479 K  
HETATM    2  C   UNL     2     -10.743  11.081  68.697  1.00  0.00    -0.198 C  
HETATM    3  H   UNL     2     -12.071   9.814  67.962  1.00  0.00     0.000 HD 
HETATM    4  O   UNL     2     -11.503  10.490  67.610  1.00  0.00    -0.444 OA 
ENDROOT
BRANCH   2   5
HETATM    5  C   UNL     2      -9.829  12.169  68.131  1.00  0.00    -0.207 C  
HETATM    6  O   UNL     2      -9.779  13.258  69.059  1.00  0.00    -0.401 OA 
HETATM    7  H   UNL     2      -9.212  13.933  68.708  1.00  0.00     0.000 HD 
ENDBRANCH   2   5
BRANCH   2   8
HETATM    8  C   UNL     2     -10.003  10.023  69.556  1.00  0.00    -0.228 C  
HETATM    9  O   UNL     2      -8.740  10.629  69.911  1.00  0.00    -0.346 OA 
HETATM   10  H   UNL     2      -8.287   9.982  70.436  1.00  0.00     0.000 HD 
BRANCH   8  11
HETATM   11  C   UNL     2     -10.784   9.519  70.807  1.00  0.00    -0.321 C  
HETATM   12  O   UNL     2      -9.893   8.971  71.797  1.00  0.00    -0.310 OA 
HETATM   13  H   UNL     2     -10.370   8.663  72.559  1.00  0.00     0.000 HD 
BRANCH  11  14
HETATM   14  C   UNL     2     -11.904   8.510  70.500  1.00  0.00    -0.014 C  
HETATM   15  C   UNL     2     -12.617   8.029  71.795  1.00  0.00    -0.325 C  
HETATM   16  O   UNL     2     -11.400   7.389  69.750  1.00  0.00    -0.448 OA 
HETATM   17  H   UNL     2     -12.092   6.766  69.560  1.00  0.00     0.000 HD 
HETATM   18  O   UNL     2     -12.736   8.922  72.690  1.00  0.00    -0.369 OA 
HETATM   19  O   UNL     2     -12.893   6.796  71.811  1.00  0.00    -0.358 OA 
ENDBRANCH  11  14
ENDBRANCH   8  11
ENDBRANCH   2   8
TORSDOF 4
ENDMDL
MODEL      183
REMARK 921   NORMALIZED FREE ENERGY PREDICTED BY IDOCK:   -3.54 KCAL/MOL
REMARK 922        TOTAL FREE ENERGY PREDICTED BY IDOCK:   -5.37 KCAL/MOL
REMARK 923 INTER-LIGAND FREE ENERGY PREDICTED BY IDOCK:   -4.48 KCAL/MOL
REMARK 924 INTRA-LIGAND FREE ENERGY PREDICTED BY IDOCK:   -0.90 KCAL/MOL
REMARK 927      BINDING AFFINITY PREDICTED BY RF-SCORE:    0.00 PKD
ROOT
HETATM    1  K   UNL     1     -12.996  14.347  68.853  1.00  0.00    -0.551 K  
HETATM    2  C   UNL     2     -10.480  11.819  68.175  1.00  0.00    -0.201 C  
HETATM    3  H   UNL     2     -11.046  13.695  68.429  1.00  0.00     0.000 HD 
HETATM    4  O   UNL     2     -10.933  13.110  67.690  1.00  0.00    -0.251 OA 
ENDROOT
BRANCH   2   5
HETATM    5  C   UNL     2     -10.299  10.875  66.984  1.00  0.00    -0.231 C  
HETATM    6  O   UNL     2      -8.991  10.295  67.051  1.00  0.00    -0.136 OA 
HETATM    7  H   UNL     2      -8.878   9.710  66.312  1.00  0.00     0.000 HD 
ENDBRANCH   2   5
BRANCH   2   8
HETATM    8  C   UNL     2     -11.386  11.248  69.297  1.00  0.00    -0.287 C  
HETATM    9  O   UNL     2     -12.485  10.604  68.614  1.00  0.00    -0.788 OA 
HETATM   10  H   UNL     2     -13.040  10.254  69.300  1.00  0.00     0.000 HD 
BRANCH   8  11
HETATM   11  C   UNL     2     -10.676  10.291  70.300  1.00  0.00    -0.250 C  
HETATM   12  O   UNL     2      -9.257  10.234  70.058  1.00  0.00    -0.399 OA 
HETATM   13  H   UNL     2      -8.824   9.650  70.670  1.00  0.00     0.000 HD 
BRANCH  11  14
HETATM   14  C   UNL     2     -11.253   8.865  70.346  1.00  0.00    -0.230 C  
HETATM   15  C   UNL     2     -10.610   8.020  71.481  1.00  0.00    -0.226 C  
HETATM   16  O   UNL     2     -11.106   8.207  69.074  1.00  0.00    -0.429 OA 
HETATM   17  H   UNL     2     -11.463   7.327  69.103  1.00  0.00     0.000 HD 
HETATM   18  O   UNL     2     -10.341   8.676  72.535  1.00  0.00    -0.295 OA 
HETATM   19  O   UNL     2     -10.362   6.823  71.163  1.00  0.00    -0.204 OA 
ENDBRANCH  11  14
ENDBRANCH   8  11
ENDBRANCH   2   8
TORSDOF 4
ENDMDL
MODEL      184
REMARK 921   NORMALIZED FREE ENERGY PREDICTED BY IDOCK:   -3.54 KCAL/MOL
REMARK 922        TOTAL FREE ENERGY PREDICTED BY IDOCK:   -5.37 KCAL/MOL
REMARK 923 INTER-LIGAND FREE ENERGY PREDICTED BY IDOCK:   -4.66 KCAL/MOL
REMARK 924 INTRA-LIGAND FREE ENERGY PREDICTED BY IDOCK:   -0.71 KCAL/MOL
REMARK 927      BINDING AFFINITY PREDICTED BY RF-SCORE:    0.00 PKD
ROOT
HETATM    1  K   UNL     1     -11.766   7.634  67.467  1.00  0.00    -0.473 K  
HETATM    2  C   UNL     2     -11.144   6.879  70.964  1.00  0.00    -0.266 C  
HETATM    3  H   UNL     2     -10.885   6.547  69.033  1.00  0.00     0.000 HD 
HETATM    4  O   UNL     2     -11.461   6.217  69.711  1.00  0.00    -0.433 OA 
ENDROOT
BRANCH   2   5
HETATM    5  C   UNL     2     -12.072   6.347  72.058  1.00  0.00    -0.303 C  
HETATM    6  O   UNL     2     -13.391   6.855  71.830  1.00  0.00    -0.500 OA 
HETATM    7  H   UNL     2     -13.967   6.525  72.509  1.00  0.00     0.000 HD 
ENDBRANCH   2   5
BRANCH   2   8
HETATM    8  C   UNL     2     -11.140   8.425  70.841  1.00  0.00    -0.254 C  
HETATM    9  O   UNL     2     -11.378   8.919  72.178  1.00  0.00    -0.356 OA 
HETATM   10  H   UNL     2     -11.376   9.865  72.103  1.00  0.00     0.000 HD 
BRANCH   8  11
HETATM   11  C   UNL     2      -9.855   9.037  70.208  1.00  0.00    -0.194 C  
HETATM   12  O   UNL     2      -9.056   9.716  71.195  1.00  0.00    -0.338 OA 
HETATM   13  H   UNL     2      -8.272  10.090  70.809  1.00  0.00     0.000 HD 
BRANCH  11  14
HETATM   14  C   UNL     2     -10.111   9.973  69.014  1.00  0.00    -0.200 C  
HETATM   15  C   UNL     2     -11.350  10.882  69.250  1.00  0.00    -0.277 C  
HETATM   16  O   UNL     2     -10.254   9.226  67.792  1.00  0.00    -0.191 OA 
HETATM   17  H   UNL     2     -10.412   9.804  67.055  1.00  0.00     0.000 HD 
HETATM   18  O   UNL     2     -11.500  11.262  70.453  1.00  0.00    -0.271 OA 
HETATM   19  O   UNL     2     -12.084  11.039  68.233  1.00  0.00    -0.604 OA 
ENDBRANCH  11  14
ENDBRANCH   8  11
ENDBRANCH   2   8
TORSDOF 4
ENDMDL
MODEL      185
REMARK 921   NORMALIZED FREE ENERGY PREDICTED BY IDOCK:   -3.54 KCAL/MOL
REMARK 922        TOTAL FREE ENERGY PREDICTED BY IDOCK:   -5.37 KCAL/MOL
REMARK 923 INTER-LIGAND FREE ENERGY PREDICTED BY IDOCK:   -4.56 KCAL/MOL
REMARK 924 INTRA-LIGAND FREE ENERGY PREDICTED BY IDOCK:   -0.81 KCAL/MOL
REMARK 927      BINDING AFFINITY PREDICTED BY RF-SCORE:    0.00 PKD
ROOT
HETATM    1  K   UNL     1     -10.881  14.049  70.664  1.00  0.00    -0.464 K  
HETATM    2  C   UNL     2     -12.365  10.755  70.302  1.00  0.00    -0.341 C  
HETATM    3  H   UNL     2     -12.493  12.705  70.594  1.00  0.00     0.000 HD 
HETATM    4  O   UNL     2     -12.441  11.934  71.146  1.00  0.00    -0.348 OA 
ENDROOT
BRANCH   2   5
HETATM    5  C   UNL     2     -12.282   9.512  71.191  1.00  0.00    -0.338 C  
HETATM    6  O   UNL     2     -10.908   9.266  71.513  1.00  0.00    -0.339 OA 
HETATM    7  H   UNL     2     -10.857   8.495  72.064  1.00  0.00     0.000 HD 
ENDBRANCH   2   5
BRANCH   2   8
HETATM    8  C   UNL     2     -11.235  10.846  69.244  1.00  0.00    -0.265 C  
HETATM    9  O   UNL     2     -11.287   9.599  68.515  1.00  0.00    -0.492 OA 
HETATM   10  H   UNL     2     -10.595   9.655  67.868  1.00  0.00     0.000 HD 
BRANCH   8  11
HETATM   11  C   UNL     2     -11.309  12.083  68.300  1.00  0.00    -0.286 C  
HETATM   12  O   UNL     2     -12.140  11.819  67.153  1.00  0.00    -0.592 OA 
HETATM   13  H   UNL     2     -12.184  12.573  66.577  1.00  0.00     0.000 HD 
BRANCH  11  14
HETATM   14  C   UNL     2      -9.943  12.621  67.839  1.00  0.00    -0.228 C  
HETATM   15  C   UNL     2      -9.155  11.564  67.016  1.00  0.00    -0.175 C  
HETATM   16  O   UNL     2      -9.163  13.080  68.959  1.00  0.00    -0.357 OA 
HETATM   17  H   UNL     2      -8.320  13.413  68.674  1.00  0.00     0.000 HD 
HETATM   18  O   UNL     2      -9.880  10.831  66.274  1.00  0.00    -0.200 OA 
HETATM   19  O   UNL     2      -7.918  11.521  67.271  1.00  0.00    -0.138 OA 
ENDBRANCH  11  14
ENDBRANCH   8  11
ENDBRANCH   2   8
TORSDOF 4
ENDMDL
MODEL      186
REMARK 921   NORMALIZED FREE ENERGY PREDICTED BY IDOCK:   -3.53 KCAL/MOL
REMARK 922        TOTAL FREE ENERGY PREDICTED BY IDOCK:   -5.37 KCAL/MOL
REMARK 923 INTER-LIGAND FREE ENERGY PREDICTED BY IDOCK:   -4.52 KCAL/MOL
REMARK 924 INTRA-LIGAND FREE ENERGY PREDICTED BY IDOCK:   -0.86 KCAL/MOL
REMARK 927      BINDING AFFINITY PREDICTED BY RF-SCORE:    0.00 PKD
ROOT
HETATM    1  K   UNL     1      -9.615   8.516  66.865  1.00  0.00    -0.134 K  
HETATM    2  C   UNL     2     -10.445  10.183  69.983  1.00  0.00    -0.274 C  
HETATM    3  H   UNL     2      -9.150   9.392  68.716  1.00  0.00     0.000 HD 
HETATM    4  O   UNL     2      -9.634   9.090  69.475  1.00  0.00    -0.160 OA 
ENDROOT
BRANCH   2   5
HETATM    5  C   UNL     2     -11.226   9.697  71.206  1.00  0.00    -0.376 C  
HETATM    6  O   UNL     2     -11.567   8.319  71.017  1.00  0.00    -0.274 OA 
HETATM    7  H   UNL     2     -12.051   8.018  71.775  1.00  0.00     0.000 HD 
ENDBRANCH   2   5
BRANCH   2   8
HETATM    8  C   UNL     2     -11.331  10.831  68.888  1.00  0.00    -0.284 C  
HETATM    9  O   UNL     2     -12.693  10.531  69.267  1.00  0.00    -0.703 OA 
HETATM   10  H   UNL     2     -13.236  10.927  68.597  1.00  0.00     0.000 HD 
BRANCH   8  11
HETATM   11  C   UNL     2     -11.106  12.357  68.669  1.00  0.00    -0.257 C  
HETATM   12  O   UNL     2      -9.752  12.738  68.983  1.00  0.00    -0.399 OA 
HETATM   13  H   UNL     2      -9.615  13.669  68.849  1.00  0.00     0.000 HD 
BRANCH  11  14
HETATM   14  C   UNL     2     -12.090  13.267  69.425  1.00  0.00    -0.248 C  
HETATM   15  C   UNL     2     -11.816  14.771  69.143  1.00  0.00    -0.305 C  
HETATM   16  O   UNL     2     -12.059  13.000  70.839  1.00  0.00    -0.463 OA 
HETATM   17  H   UNL     2     -12.667  13.562  71.305  1.00  0.00     0.000 HD 
HETATM   18  O   UNL     2     -11.437  15.021  67.957  1.00  0.00    -0.321 OA 
HETATM   19  O   UNL     2     -11.921  15.519  70.156  1.00  0.00    -0.319 OA 
ENDBRANCH  11  14
ENDBRANCH   8  11
ENDBRANCH   2   8
TORSDOF 4
ENDMDL
MODEL      187
REMARK 921   NORMALIZED FREE ENERGY PREDICTED BY IDOCK:   -3.53 KCAL/MOL
REMARK 922        TOTAL FREE ENERGY PREDICTED BY IDOCK:   -5.37 KCAL/MOL
REMARK 923 INTER-LIGAND FREE ENERGY PREDICTED BY IDOCK:   -4.72 KCAL/MOL
REMARK 924 INTRA-LIGAND FREE ENERGY PREDICTED BY IDOCK:   -0.65 KCAL/MOL
REMARK 927      BINDING AFFINITY PREDICTED BY RF-SCORE:    0.00 PKD
ROOT
HETATM    1  K   UNL     1      -9.643  14.532  66.964  1.00  0.00    -0.203 K  
HETATM    2  C   UNL     2     -10.947  12.767  64.072  1.00  0.00    -0.415 C  
HETATM    3  H   UNL     2      -9.812  14.153  64.906  1.00  0.00     0.000 HD 
HETATM    4  O   UNL     2     -10.687  14.116  64.540  1.00  0.00    -0.403 OA 
ENDROOT
BRANCH   2   5
HETATM    5  C   UNL     2     -12.358  12.708  63.482  1.00  0.00    -0.496 C  
HETATM    6  O   UNL     2     -12.582  11.395  62.954  1.00  0.00    -0.970 OA 
HETATM    7  H   UNL     2     -13.457  11.359  62.588  1.00  0.00     0.000 HD 
ENDBRANCH   2   5
BRANCH   2   8
HETATM    8  C   UNL     2     -10.675  11.693  65.156  1.00  0.00    -0.296 C  
HETATM    9  O   UNL     2     -10.445  10.463  64.432  1.00  0.00    -0.324 OA 
HETATM   10  H   UNL     2     -10.278   9.805  65.096  1.00  0.00     0.000 HD 
BRANCH   8  11
HETATM   11  C   UNL     2      -9.512  12.022  66.139  1.00  0.00    -0.232 C  
HETATM   12  O   UNL     2      -8.313  11.302  65.794  1.00  0.00    -0.336 OA 
HETATM   13  H   UNL     2      -7.604  11.503  66.394  1.00  0.00     0.000 HD 
BRANCH  11  14
HETATM   14  C   UNL     2      -9.844  11.797  67.624  1.00  0.00    -0.185 C  
HETATM   15  C   UNL     2     -10.433  10.380  67.875  1.00  0.00    -0.209 C  
HETATM   16  O   UNL     2     -10.737  12.813  68.115  1.00  0.00    -0.213 OA 
HETATM   17  H   UNL     2     -10.941  12.674  69.033  1.00  0.00     0.000 HD 
HETATM   18  O   UNL     2      -9.931   9.468  67.146  1.00  0.00    -0.179 OA 
HETATM   19  O   UNL     2     -11.390  10.351  68.699  1.00  0.00    -0.256 OA 
ENDBRANCH  11  14
ENDBRANCH   8  11
ENDBRANCH   2   8
TORSDOF 4
ENDMDL
MODEL      188
REMARK 921   NORMALIZED FREE ENERGY PREDICTED BY IDOCK:   -3.52 KCAL/MOL
REMARK 922        TOTAL FREE ENERGY PREDICTED BY IDOCK:   -5.35 KCAL/MOL
REMARK 923 INTER-LIGAND FREE ENERGY PREDICTED BY IDOCK:   -4.54 KCAL/MOL
REMARK 924 INTRA-LIGAND FREE ENERGY PREDICTED BY IDOCK:   -0.82 KCAL/MOL
REMARK 927      BINDING AFFINITY PREDICTED BY RF-SCORE:    0.00 PKD
ROOT
HETATM    1  K   UNL     1     -14.337   6.985  70.438  1.00  0.00    -0.544 K  
HETATM    2  C   UNL     2     -13.139   9.931  72.190  1.00  0.00    -0.403 C  
HETATM    3  H   UNL     2     -14.496   8.537  71.843  1.00  0.00     0.000 HD 
HETATM    4  O   UNL     2     -14.331   9.420  71.537  1.00  0.00    -0.075 OA 
ENDROOT
BRANCH   2   5
HETATM    5  C   UNL     2     -12.872  11.355  71.697  1.00  0.00    -0.391 C  
HETATM    6  O   UNL     2     -13.722  12.257  72.414  1.00  0.00    -0.552 OA 
HETATM    7  H   UNL     2     -13.556  13.140  72.108  1.00  0.00     0.000 HD 
ENDBRANCH   2   5
BRANCH   2   8
HETATM    8  C   UNL     2     -11.923   8.979  72.049  1.00  0.00    -0.363 C  
HETATM    9  O   UNL     2     -12.298   7.768  72.743  1.00  0.00    -0.580 OA 
HETATM   10  H   UNL     2     -11.554   7.185  72.656  1.00  0.00     0.000 HD 
BRANCH   8  11
HETATM   11  C   UNL     2     -11.465   8.700  70.586  1.00  0.00    -0.228 C  
HETATM   12  O   UNL     2     -11.876   7.391  70.148  1.00  0.00    -0.507 OA 
HETATM   13  H   UNL     2     -11.597   7.220  69.256  1.00  0.00     0.000 HD 
BRANCH  11  14
HETATM   14  C   UNL     2      -9.957   8.880  70.340  1.00  0.00    -0.194 C  
HETATM   15  C   UNL     2      -9.108   7.984  71.286  1.00  0.00    -0.139 C  
HETATM   16  O   UNL     2      -9.573  10.261  70.467  1.00  0.00    -0.262 OA 
HETATM   17  H   UNL     2      -8.642  10.372  70.315  1.00  0.00     0.000 HD 
HETATM   18  O   UNL     2      -9.624   6.850  71.536  1.00  0.00    -0.163 OA 
HETATM   19  O   UNL     2      -8.074   8.545  71.746  1.00  0.00    -0.133 OA 
ENDBRANCH  11  14
ENDBRANCH   8  11
ENDBRANCH   2   8
TORSDOF 4
ENDMDL
MODEL      189
REMARK 921   NORMALIZED FREE ENERGY PREDICTED BY IDOCK:   -3.52 KCAL/MOL
REMARK 922        TOTAL FREE ENERGY PREDICTED BY IDOCK:   -5.35 KCAL/MOL
REMARK 923 INTER-LIGAND FREE ENERGY PREDICTED BY IDOCK:   -4.62 KCAL/MOL
REMARK 924 INTRA-LIGAND FREE ENERGY PREDICTED BY IDOCK:   -0.73 KCAL/MOL
REMARK 927      BINDING AFFINITY PREDICTED BY RF-SCORE:    0.00 PKD
ROOT
HETATM    1  K   UNL     1     -11.714   7.241  67.466  1.00  0.00    -0.507 K  
HETATM    2  C   UNL     2     -11.118   6.677  71.003  1.00  0.00    -0.282 C  
HETATM    3  H   UNL     2     -11.263   6.049  69.135  1.00  0.00     0.000 HD 
HETATM    4  O   UNL     2     -11.845   6.108  69.882  1.00  0.00    -0.236 OA 
ENDROOT
BRANCH   2   5
HETATM    5  C   UNL     2     -12.056   6.773  72.208  1.00  0.00    -0.177 C  
HETATM    6  O   UNL     2     -11.484   7.669  73.167  1.00  0.00    -0.604 OA 
HETATM    7  H   UNL     2     -12.066   7.729  73.915  1.00  0.00     0.000 HD 
ENDBRANCH   2   5
BRANCH   2   8
HETATM    8  C   UNL     2     -10.416   8.013  70.647  1.00  0.00    -0.210 C  
HETATM    9  O   UNL     2      -9.317   7.651  69.780  1.00  0.00    -0.151 OA 
HETATM   10  H   UNL     2      -8.887   8.469  69.562  1.00  0.00     0.000 HD 
BRANCH   8  11
HETATM   11  C   UNL     2     -11.335   9.097  70.009  1.00  0.00    -0.090 C  
HETATM   12  O   UNL     2     -11.036   9.282  68.612  1.00  0.00    -0.449 OA 
HETATM   13  H   UNL     2     -11.597   9.944  68.223  1.00  0.00     0.000 HD 
BRANCH  11  14
HETATM   14  C   UNL     2     -11.319  10.456  70.728  1.00  0.00    -0.284 C  
HETATM   15  C   UNL     2     -12.671  10.748  71.440  1.00  0.00    -0.439 C  
HETATM   16  O   UNL     2     -10.983  11.520  69.818  1.00  0.00    -0.443 OA 
HETATM   17  H   UNL     2     -10.973  12.359  70.263  1.00  0.00     0.000 HD 
HETATM   18  O   UNL     2     -13.231   9.723  71.939  1.00  0.00    -0.393 OA 
HETATM   19  O   UNL     2     -13.065  11.943  71.340  1.00  0.00    -0.350 OA 
ENDBRANCH  11  14
ENDBRANCH   8  11
ENDBRANCH   2   8
TORSDOF 4
ENDMDL
MODEL      190
REMARK 921   NORMALIZED FREE ENERGY PREDICTED BY IDOCK:   -3.51 KCAL/MOL
REMARK 922        TOTAL FREE ENERGY PREDICTED BY IDOCK:   -5.34 KCAL/MOL
REMARK 923 INTER-LIGAND FREE ENERGY PREDICTED BY IDOCK:   -4.39 KCAL/MOL
REMARK 924 INTRA-LIGAND FREE ENERGY PREDICTED BY IDOCK:   -0.96 KCAL/MOL
REMARK 927      BINDING AFFINITY PREDICTED BY RF-SCORE:    0.00 PKD
ROOT
HETATM    1  K   UNL     1     -11.425   8.625  67.127  1.00  0.00    -0.423 K  
HETATM    2  C   UNL     2     -11.192   9.994  70.482  1.00  0.00    -0.336 C  
HETATM    3  H   UNL     2     -10.478   8.931  68.976  1.00  0.00     0.000 HD 
HETATM    4  O   UNL     2     -10.984   8.752  69.759  1.00  0.00    -0.223 OA 
ENDROOT
BRANCH   2   5
HETATM    5  C   UNL     2     -12.007   9.705  71.744  1.00  0.00    -0.347 C  
HETATM    6  O   UNL     2     -13.387   9.978  71.474  1.00  0.00    -0.378 OA 
HETATM    7  H   UNL     2     -13.892   9.798  72.257  1.00  0.00     0.000 HD 
ENDBRANCH   2   5
BRANCH   2   8
HETATM    8  C   UNL     2     -11.790  11.113  69.591  1.00  0.00    -0.348 C  
HETATM    9  O   UNL     2     -11.679  12.326  70.369  1.00  0.00    -0.526 OA 
HETATM   10  H   UNL     2     -12.045  13.011  69.824  1.00  0.00     0.000 HD 
BRANCH   8  11
HETATM   11  C   UNL     2     -11.141  11.258  68.182  1.00  0.00    -0.259 C  
HETATM   12  O   UNL     2      -9.759  10.852  68.196  1.00  0.00    -0.157 OA 
HETATM   13  H   UNL     2      -9.363  10.941  67.337  1.00  0.00     0.000 HD 
BRANCH  11  14
HETATM   14  C   UNL     2     -11.265  12.659  67.559  1.00  0.00    -0.288 C  
HETATM   15  C   UNL     2     -10.826  12.668  66.068  1.00  0.00    -0.277 C  
HETATM   16  O   UNL     2     -10.517  13.630  68.315  1.00  0.00    -0.235 OA 
HETATM   17  H   UNL     2     -10.594  14.495  67.931  1.00  0.00     0.000 HD 
HETATM   18  O   UNL     2     -11.127  11.613  65.427  1.00  0.00    -0.294 OA 
HETATM   19  O   UNL     2     -10.153  13.681  65.728  1.00  0.00    -0.295 OA 
ENDBRANCH  11  14
ENDBRANCH   8  11
ENDBRANCH   2   8
TORSDOF 4
ENDMDL
MODEL      191
REMARK 921   NORMALIZED FREE ENERGY PREDICTED BY IDOCK:   -3.48 KCAL/MOL
REMARK 922        TOTAL FREE ENERGY PREDICTED BY IDOCK:   -5.30 KCAL/MOL
REMARK 923 INTER-LIGAND FREE ENERGY PREDICTED BY IDOCK:   -4.59 KCAL/MOL
REMARK 924 INTRA-LIGAND FREE ENERGY PREDICTED BY IDOCK:   -0.71 KCAL/MOL
REMARK 927      BINDING AFFINITY PREDICTED BY RF-SCORE:    0.00 PKD
ROOT
HETATM    1  K   UNL     1      -9.148  15.029  70.539  1.00  0.00    -0.420 K  
HETATM    2  C   UNL     2     -10.310  13.807  67.323  1.00  0.00    -0.253 C  
HETATM    3  H   UNL     2      -9.095  14.890  68.444  1.00  0.00     0.000 HD 
HETATM    4  O   UNL     2      -9.908  15.039  67.977  1.00  0.00    -0.214 OA 
ENDROOT
BRANCH   2   5
HETATM    5  C   UNL     2     -11.620  14.048  66.570  1.00  0.00    -0.374 C  
HETATM    6  O   UNL     2     -12.640  14.386  67.516  1.00  0.00    -0.529 OA 
HETATM    7  H   UNL     2     -13.453  14.536  67.049  1.00  0.00     0.000 HD 
ENDBRANCH   2   5
BRANCH   2   8
HETATM    8  C   UNL     2     -10.358  12.600  68.296  1.00  0.00    -0.241 C  
HETATM    9  O   UNL     2     -10.855  13.131  69.545  1.00  0.00    -0.454 OA 
HETATM   10  H   UNL     2     -10.884  12.392  70.140  1.00  0.00     0.000 HD 
BRANCH   8  11
HETATM   11  C   UNL     2     -11.193  11.382  67.801  1.00  0.00    -0.283 C  
HETATM   12  O   UNL     2     -12.484  11.337  68.439  1.00  0.00    -0.495 OA 
HETATM   13  H   UNL     2     -12.994  10.593  68.138  1.00  0.00     0.000 HD 
BRANCH  11  14
HETATM   14  C   UNL     2     -10.493  10.020  67.949  1.00  0.00    -0.231 C  
HETATM   15  C   UNL     2     -10.485   9.227  66.612  1.00  0.00    -0.167 C  
HETATM   16  O   UNL     2     -11.093   9.241  69.000  1.00  0.00    -0.431 OA 
HETATM   17  H   UNL     2     -10.660   8.400  69.092  1.00  0.00     0.000 HD 
HETATM   18  O   UNL     2     -10.350   9.950  65.576  1.00  0.00    -0.213 OA 
HETATM   19  O   UNL     2     -10.706   7.990  66.738  1.00  0.00    -0.289 OA 
ENDBRANCH  11  14
ENDBRANCH   8  11
ENDBRANCH   2   8
TORSDOF 4
ENDMDL
MODEL      192
REMARK 921   NORMALIZED FREE ENERGY PREDICTED BY IDOCK:   -3.47 KCAL/MOL
REMARK 922        TOTAL FREE ENERGY PREDICTED BY IDOCK:   -5.30 KCAL/MOL
REMARK 923 INTER-LIGAND FREE ENERGY PREDICTED BY IDOCK:   -4.84 KCAL/MOL
REMARK 924 INTRA-LIGAND FREE ENERGY PREDICTED BY IDOCK:   -0.46 KCAL/MOL
REMARK 927      BINDING AFFINITY PREDICTED BY RF-SCORE:    0.00 PKD
ROOT
HETATM    1  K   UNL     1     -11.536   7.119  67.217  1.00  0.00    -0.470 K  
HETATM    2  C   UNL     2     -10.714   9.425  69.899  1.00  0.00    -0.234 C  
HETATM    3  H   UNL     2     -10.387   7.786  68.843  1.00  0.00     0.000 HD 
HETATM    4  O   UNL     2     -10.850   8.002  69.644  1.00  0.00    -0.240 OA 
ENDROOT
BRANCH   2   5
HETATM    5  C   UNL     2     -11.459   9.773  71.189  1.00  0.00    -0.398 C  
HETATM    6  O   UNL     2     -12.747   9.147  71.160  1.00  0.00    -0.420 OA 
HETATM    7  H   UNL     2     -13.209   9.363  71.961  1.00  0.00     0.000 HD 
ENDBRANCH   2   5
BRANCH   2   8
HETATM    8  C   UNL     2     -11.125  10.294  68.682  1.00  0.00    -0.239 C  
HETATM    9  O   UNL     2     -12.449  10.784  68.988  1.00  0.00    -0.757 OA 
HETATM   10  H   UNL     2     -12.701  11.316  68.243  1.00  0.00     0.000 HD 
BRANCH   8  11
HETATM   11  C   UNL     2     -10.139  11.447  68.327  1.00  0.00    -0.196 C  
HETATM   12  O   UNL     2     -10.320  12.580  69.199  1.00  0.00    -0.426 OA 
HETATM   13  H   UNL     2      -9.719  13.283  68.982  1.00  0.00     0.000 HD 
BRANCH  11  14
HETATM   14  C   UNL     2     -10.191  11.907  66.860  1.00  0.00    -0.208 C  
HETATM   15  C   UNL     2     -11.595  12.454  66.477  1.00  0.00    -0.387 C  
HETATM   16  O   UNL     2      -9.799  10.845  65.970  1.00  0.00    -0.214 OA 
HETATM   17  H   UNL     2      -9.831  11.130  65.064  1.00  0.00     0.000 HD 
HETATM   18  O   UNL     2     -12.181  13.090  67.408  1.00  0.00    -0.286 OA 
HETATM   19  O   UNL     2     -11.994  12.111  65.329  1.00  0.00    -0.362 OA 
ENDBRANCH  11  14
ENDBRANCH   8  11
ENDBRANCH   2   8
TORSDOF 4
ENDMDL
MODEL      193
REMARK 921   NORMALIZED FREE ENERGY PREDICTED BY IDOCK:   -3.47 KCAL/MOL
REMARK 922        TOTAL FREE ENERGY PREDICTED BY IDOCK:   -5.29 KCAL/MOL
REMARK 923 INTER-LIGAND FREE ENERGY PREDICTED BY IDOCK:   -4.30 KCAL/MOL
REMARK 924 INTRA-LIGAND FREE ENERGY PREDICTED BY IDOCK:   -0.99 KCAL/MOL
REMARK 927      BINDING AFFINITY PREDICTED BY RF-SCORE:    0.00 PKD
ROOT
HETATM    1  K   UNL     1      -8.139   7.562  66.476  1.00  0.00    -0.097 K  
HETATM    2  C   UNL     2     -10.643  10.032  67.378  1.00  0.00    -0.271 C  
HETATM    3  H   UNL     2     -10.061   8.407  66.417  1.00  0.00     0.000 HD 
HETATM    4  O   UNL     2     -10.124   9.332  66.217  1.00  0.00    -0.278 OA 
ENDROOT
BRANCH   2   5
HETATM    5  C   UNL     2     -10.745  11.525  67.056  1.00  0.00    -0.259 C  
HETATM    6  O   UNL     2     -12.015  12.008  67.507  1.00  0.00    -0.572 OA 
HETATM    7  H   UNL     2     -12.078  12.934  67.307  1.00  0.00     0.000 HD 
ENDBRANCH   2   5
BRANCH   2   8
HETATM    8  C   UNL     2      -9.846   9.722  68.672  1.00  0.00    -0.157 C  
HETATM    9  O   UNL     2      -9.696  10.991  69.347  1.00  0.00    -0.417 OA 
HETATM   10  H   UNL     2      -9.208  10.801  70.138  1.00  0.00     0.000 HD 
BRANCH   8  11
HETATM   11  C   UNL     2     -10.475   8.636  69.595  1.00  0.00    -0.220 C  
HETATM   12  O   UNL     2     -11.231   7.674  68.834  1.00  0.00    -0.415 OA 
HETATM   13  H   UNL     2     -11.615   7.012  69.397  1.00  0.00     0.000 HD 
BRANCH  11  14
HETATM   14  C   UNL     2     -11.341   9.190  70.739  1.00  0.00    -0.280 C  
HETATM   15  C   UNL     2     -11.972   8.050  71.588  1.00  0.00    -0.298 C  
HETATM   16  O   UNL     2     -12.360  10.074  70.237  1.00  0.00    -0.463 OA 
HETATM   17  H   UNL     2     -12.894  10.416  70.944  1.00  0.00     0.000 HD 
HETATM   18  O   UNL     2     -11.227   7.032  71.733  1.00  0.00    -0.236 OA 
HETATM   19  O   UNL     2     -13.169   8.259  71.934  1.00  0.00    -0.332 OA 
ENDBRANCH  11  14
ENDBRANCH   8  11
ENDBRANCH   2   8
TORSDOF 4
ENDMDL
MODEL      194
REMARK 921   NORMALIZED FREE ENERGY PREDICTED BY IDOCK:   -3.45 KCAL/MOL
REMARK 922        TOTAL FREE ENERGY PREDICTED BY IDOCK:   -5.27 KCAL/MOL
REMARK 923 INTER-LIGAND FREE ENERGY PREDICTED BY IDOCK:   -4.09 KCAL/MOL
REMARK 924 INTRA-LIGAND FREE ENERGY PREDICTED BY IDOCK:   -1.18 KCAL/MOL
REMARK 927      BINDING AFFINITY PREDICTED BY RF-SCORE:    0.00 PKD
ROOT
HETATM    1  K   UNL     1     -10.063   8.207  65.499  1.00  0.00    -0.448 K  
HETATM    2  C   UNL     2     -10.143   9.806  68.758  1.00  0.00    -0.174 C  
HETATM    3  H   UNL     2      -9.187   9.153  67.156  1.00  0.00     0.000 HD 
HETATM    4  O   UNL     2      -9.396   8.807  68.016  1.00  0.00    -0.141 OA 
ENDROOT
BRANCH   2   5
HETATM    5  C   UNL     2     -10.479   9.249  70.144  1.00  0.00    -0.230 C  
HETATM    6  O   UNL     2     -11.593   8.357  70.024  1.00  0.00    -0.464 OA 
HETATM    7  H   UNL     2     -11.801   8.012  70.883  1.00  0.00     0.000 HD 
ENDBRANCH   2   5
BRANCH   2   8
HETATM    8  C   UNL     2     -11.375  10.335  67.979  1.00  0.00    -0.146 C  
HETATM    9  O   UNL     2     -12.175  11.041  68.954  1.00  0.00    -0.646 OA 
HETATM   10  H   UNL     2     -12.929  11.365  68.477  1.00  0.00     0.000 HD 
BRANCH   8  11
HETATM   11  C   UNL     2     -11.047  11.218  66.738  1.00  0.00    -0.250 C  
HETATM   12  O   UNL     2      -9.791  10.839  66.142  1.00  0.00    -0.204 OA 
HETATM   13  H   UNL     2      -9.591  11.378  65.385  1.00  0.00     0.000 HD 
BRANCH  11  14
HETATM   14  C   UNL     2     -11.057  12.733  67.008  1.00  0.00    -0.278 C  
HETATM   15  C   UNL     2     -10.645  13.545  65.748  1.00  0.00    -0.283 C  
HETATM   16  O   UNL     2     -10.214  13.065  68.126  1.00  0.00    -0.226 OA 
HETATM   17  H   UNL     2     -10.221  14.001  68.293  1.00  0.00     0.000 HD 
HETATM   18  O   UNL     2     -11.048  13.049  64.650  1.00  0.00    -0.304 OA 
HETATM   19  O   UNL     2      -9.891  14.530  65.986  1.00  0.00    -0.292 OA 
ENDBRANCH  11  14
ENDBRANCH   8  11
ENDBRANCH   2   8
TORSDOF 4
ENDMDL
MODEL      195
REMARK 921   NORMALIZED FREE ENERGY PREDICTED BY IDOCK:   -3.45 KCAL/MOL
REMARK 922        TOTAL FREE ENERGY PREDICTED BY IDOCK:   -5.27 KCAL/MOL
REMARK 923 INTER-LIGAND FREE ENERGY PREDICTED BY IDOCK:   -4.58 KCAL/MOL
REMARK 924 INTRA-LIGAND FREE ENERGY PREDICTED BY IDOCK:   -0.69 KCAL/MOL
REMARK 927      BINDING AFFINITY PREDICTED BY RF-SCORE:    0.00 PKD
ROOT
HETATM    1  K   UNL     1      -7.377  10.078  64.323  1.00  0.00    -0.104 K  
HETATM    2  C   UNL     2     -10.483  11.739  65.206  1.00  0.00    -0.274 C  
HETATM    3  H   UNL     2      -9.447  10.403  64.182  1.00  0.00     0.000 HD 
HETATM    4  O   UNL     2      -9.738  11.296  64.041  1.00  0.00    -0.237 OA 
ENDROOT
BRANCH   2   5
HETATM    5  C   UNL     2     -10.953  13.177  64.979  1.00  0.00    -0.303 C  
HETATM    6  O   UNL     2      -9.950  13.878  64.235  1.00  0.00    -0.714 OA 
HETATM    7  H   UNL     2     -10.242  14.770  64.094  1.00  0.00     0.000 HD 
ENDBRANCH   2   5
BRANCH   2   8
HETATM    8  C   UNL     2      -9.701  11.536  66.530  1.00  0.00    -0.203 C  
HETATM    9  O   UNL     2      -8.416  12.163  66.320  1.00  0.00    -0.392 OA 
HETATM   10  H   UNL     2      -7.938  12.038  67.130  1.00  0.00     0.000 HD 
BRANCH   8  11
HETATM   11  C   UNL     2     -10.413  12.068  67.810  1.00  0.00    -0.203 C  
HETATM   12  O   UNL     2      -9.469  12.320  68.869  1.00  0.00    -0.401 OA 
HETATM   13  H   UNL     2      -9.904  12.644  69.649  1.00  0.00     0.000 HD 
BRANCH  11  14
HETATM   14  C   UNL     2     -11.552  11.174  68.330  1.00  0.00    -0.289 C  
HETATM   15  C   UNL     2     -12.012  11.598  69.753  1.00  0.00    -0.332 C  
HETATM   16  O   UNL     2     -11.171   9.786  68.310  1.00  0.00    -0.494 OA 
HETATM   17  H   UNL     2     -11.875   9.235  68.630  1.00  0.00     0.000 HD 
HETATM   18  O   UNL     2     -11.985  12.850  69.962  1.00  0.00    -0.334 OA 
HETATM   19  O   UNL     2     -12.259  10.632  70.530  1.00  0.00    -0.300 OA 
ENDBRANCH  11  14
ENDBRANCH   8  11
ENDBRANCH   2   8
TORSDOF 4
ENDMDL
MODEL      196
REMARK 921   NORMALIZED FREE ENERGY PREDICTED BY IDOCK:   -3.45 KCAL/MOL
REMARK 922        TOTAL FREE ENERGY PREDICTED BY IDOCK:   -5.27 KCAL/MOL
REMARK 923 INTER-LIGAND FREE ENERGY PREDICTED BY IDOCK:   -4.18 KCAL/MOL
REMARK 924 INTRA-LIGAND FREE ENERGY PREDICTED BY IDOCK:   -1.09 KCAL/MOL
REMARK 927      BINDING AFFINITY PREDICTED BY RF-SCORE:    0.00 PKD
ROOT
HETATM    1  K   UNL     1     -11.378  15.274  70.859  1.00  0.00    -0.224 K  
HETATM    2  C   UNL     2      -9.133  16.761  68.422  1.00  0.00    -0.233 C  
HETATM    3  H   UNL     2      -9.830  16.561  70.261  1.00  0.00     0.000 HD 
HETATM    4  O   UNL     2     -10.001  17.135  69.525  1.00  0.00    -0.109 OA 
ENDROOT
BRANCH   2   5
HETATM    5  C   UNL     2      -9.409  17.687  67.236  1.00  0.00    -0.249 C  
HETATM    6  O   UNL     2     -10.589  18.450  67.511  1.00  0.00    -0.408 OA 
HETATM    7  H   UNL     2     -10.760  19.024  66.775  1.00  0.00     0.000 HD 
ENDBRANCH   2   5
BRANCH   2   8
HETATM    8  C   UNL     2      -9.222  15.252  68.075  1.00  0.00    -0.188 C  
HETATM    9  O   UNL     2      -8.812  14.556  69.274  1.00  0.00    -0.382 OA 
HETATM   10  H   UNL     2      -8.865  13.633  69.061  1.00  0.00     0.000 HD 
BRANCH   8  11
HETATM   11  C   UNL     2     -10.611  14.770  67.561  1.00  0.00    -0.259 C  
HETATM   12  O   UNL     2     -11.555  14.642  68.642  1.00  0.00    -0.284 OA 
HETATM   13  H   UNL     2     -12.402  14.347  68.328  1.00  0.00     0.000 HD 
BRANCH  11  14
HETATM   14  C   UNL     2     -10.576  13.466  66.746  1.00  0.00    -0.277 C  
HETATM   15  C   UNL     2     -11.962  13.139  66.122  1.00  0.00    -0.422 C  
HETATM   16  O   UNL     2     -10.106  12.366  67.547  1.00  0.00    -0.199 OA 
HETATM   17  H   UNL     2     -10.084  11.561  67.043  1.00  0.00     0.000 HD 
HETATM   18  O   UNL     2     -12.619  14.157  65.744  1.00  0.00    -0.488 OA 
HETATM   19  O   UNL     2     -12.277  11.916  66.165  1.00  0.00    -0.459 OA 
ENDBRANCH  11  14
ENDBRANCH   8  11
ENDBRANCH   2   8
TORSDOF 4
ENDMDL
MODEL      197
REMARK 921   NORMALIZED FREE ENERGY PREDICTED BY IDOCK:   -3.41 KCAL/MOL
REMARK 922        TOTAL FREE ENERGY PREDICTED BY IDOCK:   -5.21 KCAL/MOL
REMARK 923 INTER-LIGAND FREE ENERGY PREDICTED BY IDOCK:   -4.40 KCAL/MOL
REMARK 924 INTRA-LIGAND FREE ENERGY PREDICTED BY IDOCK:   -0.82 KCAL/MOL
REMARK 927      BINDING AFFINITY PREDICTED BY RF-SCORE:    0.00 PKD
ROOT
HETATM    1  K   UNL     1     -13.259  14.523  66.724  1.00  0.00    -0.623 K  
HETATM    2  C   UNL     2     -10.388  16.260  68.112  1.00  0.00    -0.277 C  
HETATM    3  H   UNL     2     -11.939  15.045  68.271  1.00  0.00     0.000 HD 
HETATM    4  O   UNL     2     -11.778  15.970  68.413  1.00  0.00    -0.346 OA 
ENDROOT
BRANCH   2   5
HETATM    5  C   UNL     2     -10.129  17.751  68.340  1.00  0.00    -0.376 C  
HETATM    6  O   UNL     2     -10.948  18.504  67.439  1.00  0.00    -0.376 OA 
HETATM    7  H   UNL     2     -10.787  19.429  67.581  1.00  0.00     0.000 HD 
ENDBRANCH   2   5
BRANCH   2   8
HETATM    8  C   UNL     2      -9.961  15.756  66.708  1.00  0.00    -0.252 C  
HETATM    9  O   UNL     2      -8.926  16.666  66.271  1.00  0.00    -0.273 OA 
HETATM   10  H   UNL     2      -8.665  16.358  65.412  1.00  0.00     0.000 HD 
BRANCH   8  11
HETATM   11  C   UNL     2      -9.500  14.269  66.648  1.00  0.00    -0.286 C  
HETATM   12  O   UNL     2      -9.650  13.727  65.322  1.00  0.00    -0.545 OA 
HETATM   13  H   UNL     2      -9.369  12.819  65.286  1.00  0.00     0.000 HD 
BRANCH  11  14
HETATM   14  C   UNL     2     -10.185  13.344  67.669  1.00  0.00    -0.228 C  
HETATM   15  C   UNL     2      -9.439  11.987  67.808  1.00  0.00    -0.190 C  
HETATM   16  O   UNL     2     -11.568  13.132  67.329  1.00  0.00    -0.315 OA 
HETATM   17  H   UNL     2     -11.990  12.560  67.960  1.00  0.00     0.000 HD 
HETATM   18  O   UNL     2      -8.175  12.073  67.711  1.00  0.00    -0.133 OA 
HETATM   19  O   UNL     2     -10.198  10.982  67.904  1.00  0.00    -0.175 OA 
ENDBRANCH  11  14
ENDBRANCH   8  11
ENDBRANCH   2   8
TORSDOF 4
ENDMDL
MODEL      198
REMARK 921   NORMALIZED FREE ENERGY PREDICTED BY IDOCK:   -3.41 KCAL/MOL
REMARK 922        TOTAL FREE ENERGY PREDICTED BY IDOCK:   -5.21 KCAL/MOL
REMARK 923 INTER-LIGAND FREE ENERGY PREDICTED BY IDOCK:   -4.73 KCAL/MOL
REMARK 924 INTRA-LIGAND FREE ENERGY PREDICTED BY IDOCK:   -0.48 KCAL/MOL
REMARK 927      BINDING AFFINITY PREDICTED BY RF-SCORE:    0.00 PKD
ROOT
HETATM    1  K   UNL     1     -12.732  14.574  62.958  1.00  0.00    -0.813 K  
HETATM    2  C   UNL     2     -10.596  15.959  65.547  1.00  0.00    -0.401 C  
HETATM    3  H   UNL     2     -11.866  16.148  64.045  1.00  0.00     0.000 HD 
HETATM    4  O   UNL     2     -10.922  16.141  64.144  1.00  0.00    -0.552 OA 
ENDROOT
BRANCH   2   5
HETATM    5  C   UNL     2      -9.074  15.948  65.707  1.00  0.00    -0.153 C  
HETATM    6  O   UNL     2      -8.723  16.758  66.834  1.00  0.00    -0.194 OA 
HETATM    7  H   UNL     2      -7.779  16.751  66.933  1.00  0.00     0.000 HD 
ENDBRANCH   2   5
BRANCH   2   8
HETATM    8  C   UNL     2     -11.301  14.727  66.172  1.00  0.00    -0.330 C  
HETATM    9  O   UNL     2     -10.923  13.605  65.344  1.00  0.00    -0.288 OA 
HETATM   10  H   UNL     2     -11.355  12.851  65.726  1.00  0.00     0.000 HD 
BRANCH   8  11
HETATM   11  C   UNL     2     -10.991  14.478  67.678  1.00  0.00    -0.288 C  
HETATM   12  O   UNL     2     -10.628  13.104  67.918  1.00  0.00    -0.225 OA 
HETATM   13  H   UNL     2     -10.439  12.952  68.837  1.00  0.00     0.000 HD 
BRANCH  11  14
HETATM   14  C   UNL     2     -12.115  14.894  68.642  1.00  0.00    -0.170 C  
HETATM   15  C   UNL     2     -11.654  16.020  69.612  1.00  0.00    -0.299 C  
HETATM   16  O   UNL     2     -12.612  13.761  69.378  1.00  0.00    -0.313 OA 
HETATM   17  H   UNL     2     -13.307  14.019  69.973  1.00  0.00     0.000 HD 
HETATM   18  O   UNL     2     -10.858  16.863  69.094  1.00  0.00    -0.312 OA 
HETATM   19  O   UNL     2     -12.062  15.884  70.799  1.00  0.00    -0.389 OA 
ENDBRANCH  11  14
ENDBRANCH   8  11
ENDBRANCH   2   8
TORSDOF 4
ENDMDL
MODEL      199
REMARK 921   NORMALIZED FREE ENERGY PREDICTED BY IDOCK:   -3.40 KCAL/MOL
REMARK 922        TOTAL FREE ENERGY PREDICTED BY IDOCK:   -5.21 KCAL/MOL
REMARK 923 INTER-LIGAND FREE ENERGY PREDICTED BY IDOCK:   -4.40 KCAL/MOL
REMARK 924 INTRA-LIGAND FREE ENERGY PREDICTED BY IDOCK:   -0.80 KCAL/MOL
REMARK 927      BINDING AFFINITY PREDICTED BY RF-SCORE:    0.00 PKD
ROOT
HETATM    1  K   UNL     1      -6.721  13.293  66.765  1.00  0.00    -0.293 K  
HETATM    2  C   UNL     2     -10.325  13.132  66.349  1.00  0.00    -0.287 C  
HETATM    3  H   UNL     2      -8.578  12.313  66.778  1.00  0.00     0.000 HD 
HETATM    4  O   UNL     2      -9.121  12.398  66.003  1.00  0.00    -0.119 OA 
ENDROOT
BRANCH   2   5
HETATM    5  C   UNL     2     -11.200  13.270  65.101  1.00  0.00    -0.302 C  
HETATM    6  O   UNL     2     -10.382  13.711  64.011  1.00  0.00    -0.640 OA 
HETATM    7  H   UNL     2     -10.925  13.796  63.237  1.00  0.00     0.000 HD 
ENDBRANCH   2   5
BRANCH   2   8
HETATM    8  C   UNL     2     -10.023  14.479  67.056  1.00  0.00    -0.255 C  
HETATM    9  O   UNL     2      -9.670  14.131  68.414  1.00  0.00    -0.217 OA 
HETATM   10  H   UNL     2      -9.486  14.956  68.847  1.00  0.00     0.000 HD 
BRANCH   8  11
HETATM   11  C   UNL     2      -8.934  15.359  66.373  1.00  0.00    -0.316 C  
HETATM   12  O   UNL     2      -7.728  15.406  67.159  1.00  0.00    -0.192 OA 
HETATM   13  H   UNL     2      -7.064  15.943  66.742  1.00  0.00     0.000 HD 
BRANCH  11  14
HETATM   14  C   UNL     2      -9.386  16.788  66.028  1.00  0.00    -0.210 C  
HETATM   15  C   UNL     2      -9.828  17.574  67.295  1.00  0.00    -0.294 C  
HETATM   16  O   UNL     2     -10.438  16.776  65.045  1.00  0.00    -0.675 OA 
HETATM   17  H   UNL     2     -10.716  17.659  64.832  1.00  0.00     0.000 HD 
HETATM   18  O   UNL     2      -9.152  17.309  68.338  1.00  0.00    -0.250 OA 
HETATM   19  O   UNL     2     -10.854  18.292  67.132  1.00  0.00    -0.351 OA 
ENDBRANCH  11  14
ENDBRANCH   8  11
ENDBRANCH   2   8
TORSDOF 4
ENDMDL
MODEL      200
REMARK 921   NORMALIZED FREE ENERGY PREDICTED BY IDOCK:   -3.39 KCAL/MOL
REMARK 922        TOTAL FREE ENERGY PREDICTED BY IDOCK:   -5.20 KCAL/MOL
REMARK 923 INTER-LIGAND FREE ENERGY PREDICTED BY IDOCK:   -3.98 KCAL/MOL
REMARK 924 INTRA-LIGAND FREE ENERGY PREDICTED BY IDOCK:   -1.22 KCAL/MOL
REMARK 927      BINDING AFFINITY PREDICTED BY RF-SCORE:    0.00 PKD
ROOT
HETATM    1  K   UNL     1      -9.469   5.915  66.416  1.00  0.00    -0.132 K  
HETATM    2  C   UNL     2      -8.969   8.465  68.952  1.00  0.00    -0.146 C  
HETATM    3  H   UNL     2      -8.350   7.380  67.421  1.00  0.00     0.000 HD 
HETATM    4  O   UNL     2      -8.300   7.317  68.367  1.00  0.00    -0.124 OA 
ENDROOT
BRANCH   2   5
HETATM    5  C   UNL     2      -8.889   8.364  70.477  1.00  0.00    -0.148 C  
HETATM    6  O   UNL     2      -8.966   9.683  71.030  1.00  0.00    -0.345 OA 
HETATM    7  H   UNL     2      -8.916   9.621  71.976  1.00  0.00     0.000 HD 
ENDBRANCH   2   5
BRANCH   2   8
HETATM    8  C   UNL     2     -10.409   8.660  68.411  1.00  0.00    -0.201 C  
HETATM    9  O   UNL     2     -11.281   8.410  69.535  1.00  0.00    -0.446 OA 
HETATM   10  H   UNL     2     -12.163   8.529  69.204  1.00  0.00     0.000 HD 
BRANCH   8  11
HETATM   11  C   UNL     2     -10.687  10.042  67.747  1.00  0.00    -0.280 C  
HETATM   12  O   UNL     2      -9.461  10.707  67.386  1.00  0.00    -0.153 OA 
HETATM   13  H   UNL     2      -9.631  11.551  66.982  1.00  0.00     0.000 HD 
BRANCH  11  14
HETATM   14  C   UNL     2     -11.566  10.990  68.582  1.00  0.00    -0.316 C  
HETATM   15  C   UNL     2     -11.845  12.324  67.836  1.00  0.00    -0.293 C  
HETATM   16  O   UNL     2     -10.976  11.241  69.871  1.00  0.00    -0.447 OA 
HETATM   17  H   UNL     2     -11.519  11.826  70.387  1.00  0.00     0.000 HD 
HETATM   18  O   UNL     2     -11.985  12.202  66.579  1.00  0.00    -0.618 OA 
HETATM   19  O   UNL     2     -11.802  13.351  68.570  1.00  0.00    -0.334 OA 
ENDBRANCH  11  14
ENDBRANCH   8  11
ENDBRANCH   2   8
TORSDOF 4
ENDMDL
MODEL      201
REMARK 921   NORMALIZED FREE ENERGY PREDICTED BY IDOCK:   -3.39 KCAL/MOL
REMARK 922        TOTAL FREE ENERGY PREDICTED BY IDOCK:   -5.20 KCAL/MOL
REMARK 923 INTER-LIGAND FREE ENERGY PREDICTED BY IDOCK:   -5.03 KCAL/MOL
REMARK 924 INTRA-LIGAND FREE ENERGY PREDICTED BY IDOCK:   -0.16 KCAL/MOL
REMARK 927      BINDING AFFINITY PREDICTED BY RF-SCORE:    0.00 PKD
ROOT
HETATM    1  K   UNL     1      -9.204  14.694  65.560  1.00  0.00    -0.330 K  
HETATM    2  C   UNL     2     -10.882  13.146  68.384  1.00  0.00    -0.262 C  
HETATM    3  H   UNL     2      -9.392  14.168  67.585  1.00  0.00     0.000 HD 
HETATM    4  O   UNL     2      -9.565  13.256  67.783  1.00  0.00    -0.201 OA 
ENDROOT
BRANCH   2   5
HETATM    5  C   UNL     2     -11.161  11.676  68.705  1.00  0.00    -0.250 C  
HETATM    6  O   UNL     2     -11.443  11.555  70.104  1.00  0.00    -0.449 OA 
HETATM    7  H   UNL     2     -11.616  10.643  70.303  1.00  0.00     0.000 HD 
ENDBRANCH   2   5
BRANCH   2   8
HETATM    8  C   UNL     2     -11.987  13.824  67.534  1.00  0.00    -0.376 C  
HETATM    9  O   UNL     2     -12.044  15.193  67.995  1.00  0.00    -0.509 OA 
HETATM   10  H   UNL     2     -12.720  15.608  67.475  1.00  0.00     0.000 HD 
BRANCH   8  11
HETATM   11  C   UNL     2     -11.789  13.732  65.992  1.00  0.00    -0.390 C  
HETATM   12  O   UNL     2     -12.663  14.641  65.295  1.00  0.00    -0.309 OA 
HETATM   13  H   UNL     2     -12.542  14.584  64.354  1.00  0.00     0.000 HD 
BRANCH  11  14
HETATM   14  C   UNL     2     -11.941  12.316  65.409  1.00  0.00    -0.332 C  
HETATM   15  C   UNL     2     -10.664  11.868  64.644  1.00  0.00    -0.307 C  
HETATM   16  O   UNL     2     -13.101  12.227  64.560  1.00  0.00    -0.791 OA 
HETATM   17  H   UNL     2     -13.194  11.353  64.201  1.00  0.00     0.000 HD 
HETATM   18  O   UNL     2      -9.576  12.277  65.156  1.00  0.00    -0.143 OA 
HETATM   19  O   UNL     2     -10.892  11.240  63.571  1.00  0.00    -0.382 OA 
ENDBRANCH  11  14
ENDBRANCH   8  11
ENDBRANCH   2   8
TORSDOF 4
ENDMDL
MODEL      202
REMARK 921   NORMALIZED FREE ENERGY PREDICTED BY IDOCK:   -3.39 KCAL/MOL
REMARK 922        TOTAL FREE ENERGY PREDICTED BY IDOCK:   -5.19 KCAL/MOL
REMARK 923 INTER-LIGAND FREE ENERGY PREDICTED BY IDOCK:   -4.56 KCAL/MOL
REMARK 924 INTRA-LIGAND FREE ENERGY PREDICTED BY IDOCK:   -0.63 KCAL/MOL
REMARK 927      BINDING AFFINITY PREDICTED BY RF-SCORE:    0.00 PKD
ROOT
HETATM    1  K   UNL     1      -8.067   9.331  70.184  1.00  0.00    -0.067 K  
HETATM    2  C   UNL     2     -11.548  10.365  70.110  1.00  0.00    -0.312 C  
HETATM    3  H   UNL     2      -9.882   9.776  69.224  1.00  0.00     0.000 HD 
HETATM    4  O   UNL     2     -10.289  10.608  69.428  1.00  0.00    -0.218 OA 
ENDROOT
BRANCH   2   5
HETATM    5  C   UNL     2     -12.205  11.707  70.438  1.00  0.00    -0.347 C  
HETATM    6  O   UNL     2     -11.334  12.762  70.015  1.00  0.00    -0.502 OA 
HETATM    7  H   UNL     2     -11.741  13.595  70.218  1.00  0.00     0.000 HD 
ENDBRANCH   2   5
BRANCH   2   8
HETATM    8  C   UNL     2     -11.394   9.425  71.334  1.00  0.00    -0.381 C  
HETATM    9  O   UNL     2     -12.568   9.653  72.145  1.00  0.00    -0.362 OA 
HETATM   10  H   UNL     2     -12.474   9.079  72.894  1.00  0.00     0.000 HD 
BRANCH   8  11
HETATM   11  C   UNL     2     -11.200   7.917  70.993  1.00  0.00    -0.269 C  
HETATM   12  O   UNL     2     -12.434   7.313  70.562  1.00  0.00    -0.580 OA 
HETATM   13  H   UNL     2     -12.316   6.393  70.355  1.00  0.00     0.000 HD 
BRANCH  11  14
HETATM   14  C   UNL     2     -10.577   7.079  72.123  1.00  0.00    -0.213 C  
HETATM   15  C   UNL     2     -10.674   5.555  71.830  1.00  0.00    -0.231 C  
HETATM   16  O   UNL     2     -11.179   7.393  73.392  1.00  0.00    -0.587 OA 
HETATM   17  H   UNL     2     -10.794   6.876  74.090  1.00  0.00     0.000 HD 
HETATM   18  O   UNL     2     -10.540   5.248  70.605  1.00  0.00    -0.253 OA 
HETATM   19  O   UNL     2     -10.965   4.849  72.836  1.00  0.00    -0.239 OA 
ENDBRANCH  11  14
ENDBRANCH   8  11
ENDBRANCH   2   8
TORSDOF 4
ENDMDL
MODEL      203
REMARK 921   NORMALIZED FREE ENERGY PREDICTED BY IDOCK:   -3.39 KCAL/MOL
REMARK 922        TOTAL FREE ENERGY PREDICTED BY IDOCK:   -5.19 KCAL/MOL
REMARK 923 INTER-LIGAND FREE ENERGY PREDICTED BY IDOCK:   -4.51 KCAL/MOL
REMARK 924 INTRA-LIGAND FREE ENERGY PREDICTED BY IDOCK:   -0.68 KCAL/MOL
REMARK 927      BINDING AFFINITY PREDICTED BY RF-SCORE:    0.00 PKD
ROOT
HETATM    1  K   UNL     1      -8.020  12.935  69.488  1.00  0.00    -0.319 K  
HETATM    2  C   UNL     2     -10.762  14.138  67.435  1.00  0.00    -0.284 C  
HETATM    3  H   UNL     2      -8.981  14.346  68.266  1.00  0.00     0.000 HD 
HETATM    4  O   UNL     2      -9.873  14.583  68.492  1.00  0.00    -0.219 OA 
ENDROOT
BRANCH   2   5
HETATM    5  C   UNL     2     -12.199  14.519  67.799  1.00  0.00    -0.113 C  
HETATM    6  O   UNL     2     -12.438  14.160  69.164  1.00  0.00    -0.519 OA 
HETATM    7  H   UNL     2     -13.330  14.396  69.390  1.00  0.00     0.000 HD 
ENDBRANCH   2   5
BRANCH   2   8
HETATM    8  C   UNL     2     -10.579  12.637  67.089  1.00  0.00    -0.236 C  
HETATM    9  O   UNL     2     -11.913  12.080  67.072  1.00  0.00    -0.609 OA 
HETATM   10  H   UNL     2     -11.800  11.161  66.860  1.00  0.00     0.000 HD 
BRANCH   8  11
HETATM   11  C   UNL     2      -9.806  12.350  65.767  1.00  0.00    -0.240 C  
HETATM   12  O   UNL     2      -9.670  13.542  64.969  1.00  0.00    -0.564 OA 
HETATM   13  H   UNL     2      -9.199  13.367  64.162  1.00  0.00     0.000 HD 
BRANCH  11  14
HETATM   14  C   UNL     2     -10.395  11.216  64.912  1.00  0.00    -0.313 C  
HETATM   15  C   UNL     2      -9.298  10.488  64.085  1.00  0.00    -0.267 C  
HETATM   16  O   UNL     2     -11.440  11.706  64.051  1.00  0.00    -0.364 OA 
HETATM   17  H   UNL     2     -11.805  11.005  63.523  1.00  0.00     0.000 HD 
HETATM   18  O   UNL     2      -8.181  10.378  64.679  1.00  0.00    -0.166 OA 
HETATM   19  O   UNL     2      -9.644  10.192  62.906  1.00  0.00    -0.300 OA 
ENDBRANCH  11  14
ENDBRANCH   8  11
ENDBRANCH   2   8
TORSDOF 4
ENDMDL
MODEL      204
REMARK 921   NORMALIZED FREE ENERGY PREDICTED BY IDOCK:   -3.37 KCAL/MOL
REMARK 922        TOTAL FREE ENERGY PREDICTED BY IDOCK:   -5.17 KCAL/MOL
REMARK 923 INTER-LIGAND FREE ENERGY PREDICTED BY IDOCK:   -4.24 KCAL/MOL
REMARK 924 INTRA-LIGAND FREE ENERGY PREDICTED BY IDOCK:   -0.93 KCAL/MOL
REMARK 927      BINDING AFFINITY PREDICTED BY RF-SCORE:    0.00 PKD
ROOT
HETATM    1  K   UNL     1      -8.416   9.485  71.567  1.00  0.00    -0.163 K  
HETATM    2  C   UNL     2     -11.785   8.340  70.841  1.00  0.00    -0.239 C  
HETATM    3  H   UNL     2     -10.464   9.766  71.198  1.00  0.00     0.000 HD 
HETATM    4  O   UNL     2     -11.074   9.255  71.716  1.00  0.00    -0.364 OA 
ENDROOT
BRANCH   2   5
HETATM    5  C   UNL     2     -12.768   7.516  71.676  1.00  0.00    -0.355 C  
HETATM    6  O   UNL     2     -14.022   7.460  70.987  1.00  0.00    -0.631 OA 
HETATM    7  H   UNL     2     -14.632   6.949  71.505  1.00  0.00     0.000 HD 
ENDBRANCH   2   5
BRANCH   2   8
HETATM    8  C   UNL     2     -10.832   7.484  69.967  1.00  0.00    -0.249 C  
HETATM    9  O   UNL     2     -11.689   6.579  69.235  1.00  0.00    -0.644 OA 
HETATM   10  H   UNL     2     -11.106   6.055  68.700  1.00  0.00     0.000 HD 
BRANCH   8  11
HETATM   11  C   UNL     2      -9.890   8.292  69.026  1.00  0.00    -0.176 C  
HETATM   12  O   UNL     2      -8.537   8.305  69.522  1.00  0.00    -0.131 OA 
HETATM   13  H   UNL     2      -7.963   8.798  68.948  1.00  0.00     0.000 HD 
BRANCH  11  14
HETATM   14  C   UNL     2     -10.351   9.731  68.738  1.00  0.00    -0.208 C  
HETATM   15  C   UNL     2     -10.169  10.105  67.239  1.00  0.00    -0.222 C  
HETATM   16  O   UNL     2      -9.666  10.673  69.584  1.00  0.00    -0.414 OA 
HETATM   17  H   UNL     2      -9.952  11.562  69.406  1.00  0.00     0.000 HD 
HETATM   18  O   UNL     2     -10.386   9.149  66.431  1.00  0.00    -0.258 OA 
HETATM   19  O   UNL     2      -9.743  11.278  67.043  1.00  0.00    -0.183 OA 
ENDBRANCH  11  14
ENDBRANCH   8  11
ENDBRANCH   2   8
TORSDOF 4
ENDMDL
MODEL      205
REMARK 921   NORMALIZED FREE ENERGY PREDICTED BY IDOCK:   -3.36 KCAL/MOL
REMARK 922        TOTAL FREE ENERGY PREDICTED BY IDOCK:   -5.16 KCAL/MOL
REMARK 923 INTER-LIGAND FREE ENERGY PREDICTED BY IDOCK:   -4.61 KCAL/MOL
REMARK 924 INTRA-LIGAND FREE ENERGY PREDICTED BY IDOCK:   -0.55 KCAL/MOL
REMARK 927      BINDING AFFINITY PREDICTED BY RF-SCORE:    0.00 PKD
ROOT
HETATM    1  K   UNL     1      -7.676  13.086  66.505  1.00  0.00    -0.345 K  
HETATM    2  C   UNL     2     -10.591  14.322  68.283  1.00  0.00    -0.245 C  
HETATM    3  H   UNL     2      -9.384  14.289  66.718  1.00  0.00     0.000 HD 
HETATM    4  O   UNL     2      -9.458  14.803  67.513  1.00  0.00    -0.194 OA 
ENDROOT
BRANCH   2   5
HETATM    5  C   UNL     2     -10.710  15.151  69.564  1.00  0.00    -0.266 C  
HETATM    6  O   UNL     2     -12.097  15.386  69.832  1.00  0.00    -0.330 OA 
HETATM    7  H   UNL     2     -12.171  15.901  70.627  1.00  0.00     0.000 HD 
ENDBRANCH   2   5
BRANCH   2   8
HETATM    8  C   UNL     2     -10.543  12.791  68.528  1.00  0.00    -0.252 C  
HETATM    9  O   UNL     2     -11.058  12.598  69.864  1.00  0.00    -0.468 OA 
HETATM   10  H   UNL     2     -11.029  11.661  70.014  1.00  0.00     0.000 HD 
BRANCH   8  11
HETATM   11  C   UNL     2     -11.299  11.927  67.475  1.00  0.00    -0.314 C  
HETATM   12  O   UNL     2     -11.892  10.761  68.081  1.00  0.00    -0.716 OA 
HETATM   13  H   UNL     2     -12.353  10.234  67.439  1.00  0.00     0.000 HD 
BRANCH  11  14
HETATM   14  C   UNL     2     -10.453  11.508  66.261  1.00  0.00    -0.251 C  
HETATM   15  C   UNL     2     -11.104  11.956  64.922  1.00  0.00    -0.307 C  
HETATM   16  O   UNL     2     -10.215  10.088  66.261  1.00  0.00    -0.241 OA 
HETATM   17  H   UNL     2      -9.691   9.829  65.512  1.00  0.00     0.000 HD 
HETATM   18  O   UNL     2     -11.699  13.076  64.979  1.00  0.00    -0.314 OA 
HETATM   19  O   UNL     2     -11.029  11.102  63.994  1.00  0.00    -0.364 OA 
ENDBRANCH  11  14
ENDBRANCH   8  11
ENDBRANCH   2   8
TORSDOF 4
ENDMDL
MODEL      206
REMARK 921   NORMALIZED FREE ENERGY PREDICTED BY IDOCK:   -3.35 KCAL/MOL
REMARK 922        TOTAL FREE ENERGY PREDICTED BY IDOCK:   -5.15 KCAL/MOL
REMARK 923 INTER-LIGAND FREE ENERGY PREDICTED BY IDOCK:   -4.15 KCAL/MOL
REMARK 924 INTRA-LIGAND FREE ENERGY PREDICTED BY IDOCK:   -0.99 KCAL/MOL
REMARK 927      BINDING AFFINITY PREDICTED BY RF-SCORE:    0.00 PKD
ROOT
HETATM    1  K   UNL     1     -14.218   7.184  72.655  1.00  0.00    -0.504 K  
HETATM    2  C   UNL     2     -12.256   9.936  71.326  1.00  0.00    -0.387 C  
HETATM    3  H   UNL     2     -13.538   9.171  72.621  1.00  0.00     0.000 HD 
HETATM    4  O   UNL     2     -13.597   9.637  71.796  1.00  0.00    -0.379 OA 
ENDROOT
BRANCH   2   5
HETATM    5  C   UNL     2     -12.350  10.687  69.997  1.00  0.00    -0.269 C  
HETATM    6  O   UNL     2     -11.270  11.625  69.920  1.00  0.00    -0.457 OA 
HETATM    7  H   UNL     2     -11.329  12.091  69.095  1.00  0.00     0.000 HD 
ENDBRANCH   2   5
BRANCH   2   8
HETATM    8  C   UNL     2     -11.345   8.682  71.276  1.00  0.00    -0.281 C  
HETATM    9  O   UNL     2     -11.201   8.366  69.873  1.00  0.00    -0.424 OA 
HETATM   10  H   UNL     2     -10.643   7.599  69.842  1.00  0.00     0.000 HD 
BRANCH   8  11
HETATM   11  C   UNL     2      -9.968   8.833  71.989  1.00  0.00    -0.321 C  
HETATM   12  O   UNL     2      -9.125   9.782  71.307  1.00  0.00    -0.261 OA 
HETATM   13  H   UNL     2      -8.285   9.873  71.742  1.00  0.00     0.000 HD 
BRANCH  11  14
HETATM   14  C   UNL     2      -9.204   7.514  72.196  1.00  0.00    -0.136 C  
HETATM   15  C   UNL     2      -7.836   7.744  72.898  1.00  0.00    -0.117 C  
HETATM   16  O   UNL     2      -9.026   6.818  70.948  1.00  0.00    -0.148 OA 
HETATM   17  H   UNL     2      -8.554   6.003  71.076  1.00  0.00     0.000 HD 
HETATM   18  O   UNL     2      -7.845   8.666  73.771  1.00  0.00    -0.407 OA 
HETATM   19  O   UNL     2      -6.890   7.046  72.436  1.00  0.00    -0.061 OA 
ENDBRANCH  11  14
ENDBRANCH   8  11
ENDBRANCH   2   8
TORSDOF 4
ENDMDL
MODEL      207
REMARK 921   NORMALIZED FREE ENERGY PREDICTED BY IDOCK:   -3.35 KCAL/MOL
REMARK 922        TOTAL FREE ENERGY PREDICTED BY IDOCK:   -5.15 KCAL/MOL
REMARK 923 INTER-LIGAND FREE ENERGY PREDICTED BY IDOCK:   -3.99 KCAL/MOL
REMARK 924 INTRA-LIGAND FREE ENERGY PREDICTED BY IDOCK:   -1.16 KCAL/MOL
REMARK 927      BINDING AFFINITY PREDICTED BY RF-SCORE:    0.00 PKD
ROOT
HETATM    1  K   UNL     1      -8.874  10.720  70.271  1.00  0.00    -0.365 K  
HETATM    2  C   UNL     2     -12.191   9.357  70.841  1.00  0.00    -0.227 C  
HETATM    3  H   UNL     2     -10.681   9.841  69.662  1.00  0.00     0.000 HD 
HETATM    4  O   UNL     2     -11.485  10.256  69.946  1.00  0.00    -0.250 OA 
ENDROOT
BRANCH   2   5
HETATM    5  C   UNL     2     -13.488  10.027  71.300  1.00  0.00    -0.258 C  
HETATM    6  O   UNL     2     -13.164  11.073  72.222  1.00  0.00    -0.612 OA 
HETATM    7  H   UNL     2     -13.969  11.489  72.507  1.00  0.00     0.000 HD 
ENDBRANCH   2   5
BRANCH   2   8
HETATM    8  C   UNL     2     -11.301   8.848  72.005  1.00  0.00    -0.357 C  
HETATM    9  O   UNL     2     -12.203   8.184  72.918  1.00  0.00    -0.614 OA 
HETATM   10  H   UNL     2     -11.658   7.873  73.630  1.00  0.00     0.000 HD 
BRANCH   8  11
HETATM   11  C   UNL     2     -10.113   7.933  71.581  1.00  0.00    -0.181 C  
HETATM   12  O   UNL     2      -9.569   8.335  70.309  1.00  0.00    -0.166 OA 
HETATM   13  H   UNL     2      -8.845   7.776  70.051  1.00  0.00     0.000 HD 
BRANCH  11  14
HETATM   14  C   UNL     2     -10.439   6.430  71.556  1.00  0.00    -0.219 C  
HETATM   15  C   UNL     2      -9.245   5.591  71.019  1.00  0.00    -0.148 C  
HETATM   16  O   UNL     2     -11.629   6.171  70.789  1.00  0.00    -0.316 OA 
HETATM   17  H   UNL     2     -11.830   5.242  70.774  1.00  0.00     0.000 HD 
HETATM   18  O   UNL     2      -8.102   6.031  71.356  1.00  0.00    -0.111 OA 
HETATM   19  O   UNL     2      -9.577   4.646  70.249  1.00  0.00    -0.162 OA 
ENDBRANCH  11  14
ENDBRANCH   8  11
ENDBRANCH   2   8
TORSDOF 4
ENDMDL
MODEL      208
REMARK 921   NORMALIZED FREE ENERGY PREDICTED BY IDOCK:   -3.35 KCAL/MOL
REMARK 922        TOTAL FREE ENERGY PREDICTED BY IDOCK:   -5.14 KCAL/MOL
REMARK 923 INTER-LIGAND FREE ENERGY PREDICTED BY IDOCK:   -4.18 KCAL/MOL
REMARK 924 INTRA-LIGAND FREE ENERGY PREDICTED BY IDOCK:   -0.96 KCAL/MOL
REMARK 927      BINDING AFFINITY PREDICTED BY RF-SCORE:    0.00 PKD
ROOT
HETATM    1  K   UNL     1      -8.079  12.304  65.674  1.00  0.00    -0.359 K  
HETATM    2  C   UNL     2     -10.364  13.533  68.214  1.00  0.00    -0.252 C  
HETATM    3  H   UNL     2      -8.874  12.381  67.616  1.00  0.00     0.000 HD 
HETATM    4  O   UNL     2      -9.814  12.289  67.705  1.00  0.00    -0.192 OA 
ENDROOT
BRANCH   2   5
HETATM    5  C   UNL     2     -11.880  13.386  68.358  1.00  0.00    -0.366 C  
HETATM    6  O   UNL     2     -12.402  14.568  68.974  1.00  0.00    -0.554 OA 
HETATM    7  H   UNL     2     -13.342  14.477  69.064  1.00  0.00     0.000 HD 
ENDBRANCH   2   5
BRANCH   2   8
HETATM    8  C   UNL     2      -9.930  14.766  67.380  1.00  0.00    -0.223 C  
HETATM    9  O   UNL     2     -11.134  15.242  66.739  1.00  0.00    -0.320 OA 
HETATM   10  H   UNL     2     -10.868  15.997  66.228  1.00  0.00     0.000 HD 
BRANCH   8  11
HETATM   11  C   UNL     2      -9.208  15.890  68.183  1.00  0.00    -0.190 C  
HETATM   12  O   UNL     2      -9.161  15.582  69.589  1.00  0.00    -0.275 OA 
HETATM   13  H   UNL     2      -8.721  16.268  70.079  1.00  0.00     0.000 HD 
BRANCH  11  14
HETATM   14  C   UNL     2      -9.789  17.299  67.978  1.00  0.00    -0.284 C  
HETATM   15  C   UNL     2      -8.802  18.404  68.449  1.00  0.00    -0.320 C  
HETATM   16  O   UNL     2     -11.060  17.436  68.640  1.00  0.00    -0.220 OA 
HETATM   17  H   UNL     2     -11.419  18.307  68.513  1.00  0.00     0.000 HD 
HETATM   18  O   UNL     2      -7.578  18.138  68.236  1.00  0.00    -0.255 OA 
HETATM   19  O   UNL     2      -9.348  19.365  69.060  1.00  0.00    -0.373 OA 
ENDBRANCH  11  14
ENDBRANCH   8  11
ENDBRANCH   2   8
TORSDOF 4
ENDMDL
MODEL      209
REMARK 921   NORMALIZED FREE ENERGY PREDICTED BY IDOCK:   -3.35 KCAL/MOL
REMARK 922        TOTAL FREE ENERGY PREDICTED BY IDOCK:   -5.14 KCAL/MOL
REMARK 923 INTER-LIGAND FREE ENERGY PREDICTED BY IDOCK:   -4.56 KCAL/MOL
REMARK 924 INTRA-LIGAND FREE ENERGY PREDICTED BY IDOCK:   -0.58 KCAL/MOL
REMARK 927      BINDING AFFINITY PREDICTED BY RF-SCORE:    0.00 PKD
ROOT
HETATM    1  K   UNL     1     -11.857   6.511  68.139  1.00  0.00    -0.494 K  
HETATM    2  C   UNL     2     -10.329   9.626  69.209  1.00  0.00    -0.209 C  
HETATM    3  H   UNL     2     -11.179   8.476  67.845  1.00  0.00     0.000 HD 
HETATM    4  O   UNL     2     -10.290   8.675  68.113  1.00  0.00    -0.211 OA 
ENDROOT
BRANCH   2   5
HETATM    5  C   UNL     2      -8.896   9.947  69.641  1.00  0.00    -0.208 C  
HETATM    6  O   UNL     2      -8.787   9.754  71.055  1.00  0.00    -0.338 OA 
HETATM    7  H   UNL     2      -7.899   9.953  71.323  1.00  0.00     0.000 HD 
ENDBRANCH   2   5
BRANCH   2   8
HETATM    8  C   UNL     2     -11.247   9.165  70.371  1.00  0.00    -0.240 C  
HETATM    9  O   UNL     2     -12.534   9.766  70.108  1.00  0.00    -0.483 OA 
HETATM   10  H   UNL     2     -13.096   9.484  70.819  1.00  0.00     0.000 HD 
BRANCH   8  11
HETATM   11  C   UNL     2     -11.347   7.622  70.565  1.00  0.00    -0.250 C  
HETATM   12  O   UNL     2     -12.691   7.152  70.347  1.00  0.00    -0.591 OA 
HETATM   13  H   UNL     2     -12.752   6.211  70.466  1.00  0.00     0.000 HD 
BRANCH  11  14
HETATM   14  C   UNL     2     -10.831   7.111  71.921  1.00  0.00    -0.226 C  
HETATM   15  C   UNL     2     -10.865   5.559  72.003  1.00  0.00    -0.226 C  
HETATM   16  O   UNL     2     -11.571   7.694  73.010  1.00  0.00    -0.596 OA 
HETATM   17  H   UNL     2     -11.252   7.379  73.847  1.00  0.00     0.000 HD 
HETATM   18  O   UNL     2     -10.594   4.971  70.910  1.00  0.00    -0.188 OA 
HETATM   19  O   UNL     2     -11.246   5.104  73.118  1.00  0.00    -0.298 OA 
ENDBRANCH  11  14
ENDBRANCH   8  11
ENDBRANCH   2   8
TORSDOF 4
ENDMDL
MODEL      210
REMARK 921   NORMALIZED FREE ENERGY PREDICTED BY IDOCK:   -3.34 KCAL/MOL
REMARK 922        TOTAL FREE ENERGY PREDICTED BY IDOCK:   -5.13 KCAL/MOL
REMARK 923 INTER-LIGAND FREE ENERGY PREDICTED BY IDOCK:   -4.36 KCAL/MOL
REMARK 924 INTRA-LIGAND FREE ENERGY PREDICTED BY IDOCK:   -0.76 KCAL/MOL
REMARK 927      BINDING AFFINITY PREDICTED BY RF-SCORE:    0.00 PKD
ROOT
HETATM    1  K   UNL     1      -5.411  18.488  67.622  1.00  0.00    -0.141 K  
HETATM    2  C   UNL     2      -7.965  16.013  68.353  1.00  0.00    -0.151 C  
HETATM    3  H   UNL     2      -7.093  17.761  68.648  1.00  0.00     0.000 HD 
HETATM    4  O   UNL     2      -7.030  16.894  69.029  1.00  0.00    -0.202 OA 
ENDROOT
BRANCH   2   5
HETATM    5  C   UNL     2      -7.864  14.614  68.966  1.00  0.00    -0.133 C  
HETATM    6  O   UNL     2      -9.113  13.939  68.782  1.00  0.00    -0.346 OA 
HETATM    7  H   UNL     2      -9.051  13.072  69.163  1.00  0.00     0.000 HD 
ENDBRANCH   2   5
BRANCH   2   8
HETATM    8  C   UNL     2      -7.804  16.035  66.811  1.00  0.00    -0.253 C  
HETATM    9  O   UNL     2      -8.592  14.926  66.324  1.00  0.00    -0.445 OA 
HETATM   10  H   UNL     2      -8.493  14.940  65.380  1.00  0.00     0.000 HD 
BRANCH   8  11
HETATM   11  C   UNL     2      -8.191  17.378  66.123  1.00  0.00    -0.202 C  
HETATM   12  O   UNL     2      -7.061  17.969  65.452  1.00  0.00    -0.496 OA 
HETATM   13  H   UNL     2      -7.297  18.789  65.032  1.00  0.00     0.000 HD 
BRANCH  11  14
HETATM   14  C   UNL     2      -8.841  18.414  67.056  1.00  0.00    -0.271 C  
HETATM   15  C   UNL     2      -9.950  19.227  66.331  1.00  0.00    -0.405 C  
HETATM   16  O   UNL     2      -7.852  19.294  67.622  1.00  0.00    -0.254 OA 
HETATM   17  H   UNL     2      -8.254  19.933  68.199  1.00  0.00     0.000 HD 
HETATM   18  O   UNL     2     -10.624  18.557  65.488  1.00  0.00    -0.621 OA 
HETATM   19  O   UNL     2      -9.963  20.458  66.614  1.00  0.00    -0.444 OA 
ENDBRANCH  11  14
ENDBRANCH   8  11
ENDBRANCH   2   8
TORSDOF 4
ENDMDL
MODEL      211
REMARK 921   NORMALIZED FREE ENERGY PREDICTED BY IDOCK:   -3.32 KCAL/MOL
REMARK 922        TOTAL FREE ENERGY PREDICTED BY IDOCK:   -5.11 KCAL/MOL
REMARK 923 INTER-LIGAND FREE ENERGY PREDICTED BY IDOCK:   -4.20 KCAL/MOL
REMARK 924 INTRA-LIGAND FREE ENERGY PREDICTED BY IDOCK:   -0.92 KCAL/MOL
REMARK 927      BINDING AFFINITY PREDICTED BY RF-SCORE:    0.00 PKD
ROOT
HETATM    1  K   UNL     1      -9.588   9.527  68.128  1.00  0.00    -0.132 K  
HETATM    2  C   UNL     2     -10.635  10.764  64.878  1.00  0.00    -0.188 C  
HETATM    3  H   UNL     2     -10.645   9.409  66.317  1.00  0.00     0.000 HD 
HETATM    4  O   UNL     2     -10.155   9.551  65.517  1.00  0.00    -0.260 OA 
ENDROOT
BRANCH   2   5
HETATM    5  C   UNL     2      -9.845  10.994  63.588  1.00  0.00    -0.351 C  
HETATM    6  O   UNL     2      -8.458  11.135  63.916  1.00  0.00    -0.370 OA 
HETATM    7  H   UNL     2      -7.968  11.277  63.115  1.00  0.00     0.000 HD 
ENDBRANCH   2   5
BRANCH   2   8
HETATM    8  C   UNL     2     -10.642  11.983  65.836  1.00  0.00    -0.265 C  
HETATM    9  O   UNL     2      -9.441  11.857  66.630  1.00  0.00    -0.198 OA 
HETATM   10  H   UNL     2      -9.446  12.604  67.216  1.00  0.00     0.000 HD 
BRANCH   8  11
HETATM   11  C   UNL     2     -10.743  13.373  65.139  1.00  0.00    -0.330 C  
HETATM   12  O   UNL     2      -9.449  13.994  65.016  1.00  0.00    -0.394 OA 
HETATM   13  H   UNL     2      -9.511  14.842  64.592  1.00  0.00     0.000 HD 
BRANCH  11  14
HETATM   14  C   UNL     2     -11.729  14.352  65.801  1.00  0.00    -0.362 C  
HETATM   15  C   UNL     2     -11.370  14.612  67.291  1.00  0.00    -0.353 C  
HETATM   16  O   UNL     2     -13.085  13.885  65.678  1.00  0.00    -0.625 OA 
HETATM   17  H   UNL     2     -13.693  14.490  66.086  1.00  0.00     0.000 HD 
HETATM   18  O   UNL     2     -10.123  14.638  67.533  1.00  0.00    -0.224 OA 
HETATM   19  O   UNL     2     -12.366  14.667  68.066  1.00  0.00    -0.143 OA 
ENDBRANCH  11  14
ENDBRANCH   8  11
ENDBRANCH   2   8
TORSDOF 4
ENDMDL
MODEL      212
REMARK 921   NORMALIZED FREE ENERGY PREDICTED BY IDOCK:   -3.32 KCAL/MOL
REMARK 922        TOTAL FREE ENERGY PREDICTED BY IDOCK:   -5.11 KCAL/MOL
REMARK 923 INTER-LIGAND FREE ENERGY PREDICTED BY IDOCK:   -4.24 KCAL/MOL
REMARK 924 INTRA-LIGAND FREE ENERGY PREDICTED BY IDOCK:   -0.87 KCAL/MOL
REMARK 927      BINDING AFFINITY PREDICTED BY RF-SCORE:    0.00 PKD
ROOT
HETATM    1  K   UNL     1      -5.751  19.424  67.217  1.00  0.00    -0.166 K  
HETATM    2  C   UNL     2      -7.084  16.652  69.147  1.00  0.00    -0.226 C  
HETATM    3  H   UNL     2      -6.296  18.459  69.001  1.00  0.00     0.000 HD 
HETATM    4  O   UNL     2      -5.967  17.579  69.138  1.00  0.00    -0.189 OA 
ENDROOT
BRANCH   2   5
HETATM    5  C   UNL     2      -6.554  15.234  69.368  1.00  0.00    -0.152 C  
HETATM    6  O   UNL     2      -7.499  14.507  70.162  1.00  0.00    -0.386 OA 
HETATM    7  H   UNL     2      -7.169  13.628  70.299  1.00  0.00     0.000 HD 
ENDBRANCH   2   5
BRANCH   2   8
HETATM    8  C   UNL     2      -7.992  16.795  67.898  1.00  0.00    -0.177 C  
HETATM    9  O   UNL     2      -8.899  15.671  67.949  1.00  0.00    -0.170 OA 
HETATM   10  H   UNL     2      -9.455  15.759  67.185  1.00  0.00     0.000 HD 
BRANCH   8  11
HETATM   11  C   UNL     2      -8.745  18.153  67.776  1.00  0.00    -0.255 C  
HETATM   12  O   UNL     2      -9.930  18.172  68.595  1.00  0.00    -0.364 OA 
HETATM   13  H   UNL     2     -10.390  19.000  68.521  1.00  0.00     0.000 HD 
BRANCH  11  14
HETATM   14  C   UNL     2      -9.102  18.563  66.337  1.00  0.00    -0.269 C  
HETATM   15  C   UNL     2     -10.013  19.822  66.305  1.00  0.00    -0.478 C  
HETATM   16  O   UNL     2      -9.716  17.473  65.625  1.00  0.00    -0.532 OA 
HETATM   17  H   UNL     2      -9.935  17.726  64.736  1.00  0.00     0.000 HD 
HETATM   18  O   UNL     2      -9.757  20.677  67.210  1.00  0.00    -0.465 OA 
HETATM   19  O   UNL     2     -10.938  19.776  65.446  1.00  0.00    -0.414 OA 
ENDBRANCH  11  14
ENDBRANCH   8  11
ENDBRANCH   2   8
TORSDOF 4
ENDMDL
MODEL      213
REMARK 921   NORMALIZED FREE ENERGY PREDICTED BY IDOCK:   -3.32 KCAL/MOL
REMARK 922        TOTAL FREE ENERGY PREDICTED BY IDOCK:   -5.10 KCAL/MOL
REMARK 923 INTER-LIGAND FREE ENERGY PREDICTED BY IDOCK:   -4.31 KCAL/MOL
REMARK 924 INTRA-LIGAND FREE ENERGY PREDICTED BY IDOCK:   -0.79 KCAL/MOL
REMARK 927      BINDING AFFINITY PREDICTED BY RF-SCORE:    0.00 PKD
ROOT
HETATM    1  K   UNL     1     -12.499  12.955  71.760  1.00  0.00    -0.301 K  
HETATM    2  C   UNL     2     -11.077  14.875  69.025  1.00  0.00    -0.250 C  
HETATM    3  H   UNL     2     -10.950  13.986  70.786  1.00  0.00     0.000 HD 
HETATM    4  O   UNL     2     -11.139  14.863  70.476  1.00  0.00    -0.234 OA 
ENDROOT
BRANCH   2   5
HETATM    5  C   UNL     2     -11.381  16.289  68.525  1.00  0.00    -0.330 C  
HETATM    6  O   UNL     2     -10.668  17.228  69.337  1.00  0.00    -0.376 OA 
HETATM    7  H   UNL     2     -10.856  18.105  69.027  1.00  0.00     0.000 HD 
ENDBRANCH   2   5
BRANCH   2   8
HETATM    8  C   UNL     2     -11.961  13.777  68.379  1.00  0.00    -0.360 C  
HETATM    9  O   UNL     2     -12.526  14.383  67.195  1.00  0.00    -0.590 OA 
HETATM   10  H   UNL     2     -13.066  13.711  66.799  1.00  0.00     0.000 HD 
BRANCH   8  11
HETATM   11  C   UNL     2     -11.229  12.438  68.061  1.00  0.00    -0.268 C  
HETATM   12  O   UNL     2     -10.103  12.235  68.936  1.00  0.00    -0.406 OA 
HETATM   13  H   UNL     2      -9.657  11.418  68.742  1.00  0.00     0.000 HD 
BRANCH  11  14
HETATM   14  C   UNL     2     -10.784  12.282  66.597  1.00  0.00    -0.245 C  
HETATM   15  C   UNL     2     -10.056  10.929  66.357  1.00  0.00    -0.231 C  
HETATM   16  O   UNL     2      -9.955  13.385  66.187  1.00  0.00    -0.284 OA 
HETATM   17  H   UNL     2      -9.680  13.289  65.283  1.00  0.00     0.000 HD 
HETATM   18  O   UNL     2     -10.521   9.958  67.031  1.00  0.00    -0.237 OA 
HETATM   19  O   UNL     2      -9.050  11.006  65.598  1.00  0.00    -0.198 OA 
ENDBRANCH  11  14
ENDBRANCH   8  11
ENDBRANCH   2   8
TORSDOF 4
ENDMDL
MODEL      214
REMARK 921   NORMALIZED FREE ENERGY PREDICTED BY IDOCK:   -3.29 KCAL/MOL
REMARK 922        TOTAL FREE ENERGY PREDICTED BY IDOCK:   -5.07 KCAL/MOL
REMARK 923 INTER-LIGAND FREE ENERGY PREDICTED BY IDOCK:   -4.07 KCAL/MOL
REMARK 924 INTRA-LIGAND FREE ENERGY PREDICTED BY IDOCK:   -1.00 KCAL/MOL
REMARK 927      BINDING AFFINITY PREDICTED BY RF-SCORE:    0.00 PKD
ROOT
HETATM    1  K   UNL     1      -8.560  13.344  66.174  1.00  0.00    -0.379 K  
HETATM    2  C   UNL     2      -8.783  10.683  68.635  1.00  0.00    -0.148 C  
HETATM    3  H   UNL     2      -7.834  12.184  67.767  1.00  0.00     0.000 HD 
HETATM    4  O   UNL     2      -7.858  11.240  67.665  1.00  0.00    -0.110 OA 
ENDROOT
BRANCH   2   5
HETATM    5  C   UNL     2      -8.821   9.162  68.471  1.00  0.00    -0.129 C  
HETATM    6  O   UNL     2     -10.188   8.736  68.437  1.00  0.00    -0.186 OA 
HETATM    7  H   UNL     2     -10.212   7.793  68.335  1.00  0.00     0.000 HD 
ENDBRANCH   2   5
BRANCH   2   8
HETATM    8  C   UNL     2     -10.180  11.355  68.587  1.00  0.00    -0.208 C  
HETATM    9  O   UNL     2     -10.801  11.046  69.855  1.00  0.00    -0.429 OA 
HETATM   10  H   UNL     2     -11.656  11.457  69.825  1.00  0.00     0.000 HD 
BRANCH   8  11
HETATM   11  C   UNL     2     -10.170  12.885  68.294  1.00  0.00    -0.245 C  
HETATM   12  O   UNL     2      -8.979  13.511  68.810  1.00  0.00    -0.371 OA 
HETATM   13  H   UNL     2      -8.974  14.444  68.632  1.00  0.00     0.000 HD 
BRANCH  11  14
HETATM   14  C   UNL     2     -11.413  13.642  68.795  1.00  0.00    -0.309 C  
HETATM   15  C   UNL     2     -11.503  15.069  68.183  1.00  0.00    -0.339 C  
HETATM   16  O   UNL     2     -11.438  13.701  70.233  1.00  0.00    -0.499 OA 
HETATM   17  H   UNL     2     -12.206  14.169  70.541  1.00  0.00     0.000 HD 
HETATM   18  O   UNL     2     -11.098  15.150  66.982  1.00  0.00    -0.329 OA 
HETATM   19  O   UNL     2     -11.879  15.961  68.995  1.00  0.00    -0.389 OA 
ENDBRANCH  11  14
ENDBRANCH   8  11
ENDBRANCH   2   8
TORSDOF 4
ENDMDL
MODEL      215
REMARK 921   NORMALIZED FREE ENERGY PREDICTED BY IDOCK:   -3.29 KCAL/MOL
REMARK 922        TOTAL FREE ENERGY PREDICTED BY IDOCK:   -5.06 KCAL/MOL
REMARK 923 INTER-LIGAND FREE ENERGY PREDICTED BY IDOCK:   -4.38 KCAL/MOL
REMARK 924 INTRA-LIGAND FREE ENERGY PREDICTED BY IDOCK:   -0.68 KCAL/MOL
REMARK 927      BINDING AFFINITY PREDICTED BY RF-SCORE:    0.00 PKD
ROOT
HETATM    1  K   UNL     1     -10.381   6.423  67.972  1.00  0.00    -0.131 K  
HETATM    2  C   UNL     2     -10.787   8.301  71.053  1.00  0.00    -0.233 C  
HETATM    3  H   UNL     2      -9.973   6.849  69.987  1.00  0.00     0.000 HD 
HETATM    4  O   UNL     2     -10.715   6.932  70.573  1.00  0.00    -0.222 OA 
ENDROOT
BRANCH   2   5
HETATM    5  C   UNL     2     -11.983   8.435  71.999  1.00  0.00    -0.357 C  
HETATM    6  O   UNL     2     -12.504   7.129  72.269  1.00  0.00    -0.494 OA 
HETATM    7  H   UNL     2     -13.246   7.212  72.856  1.00  0.00     0.000 HD 
ENDBRANCH   2   5
BRANCH   2   8
HETATM    8  C   UNL     2     -10.776   9.341  69.903  1.00  0.00    -0.234 C  
HETATM    9  O   UNL     2     -11.160   8.608  68.717  1.00  0.00    -0.434 OA 
HETATM   10  H   UNL     2     -11.153   9.245  68.013  1.00  0.00     0.000 HD 
BRANCH   8  11
HETATM   11  C   UNL     2     -11.670  10.595  70.134  1.00  0.00    -0.332 C  
HETATM   12  O   UNL     2     -13.002  10.392  69.623  1.00  0.00    -0.616 OA 
HETATM   13  H   UNL     2     -13.547  11.158  69.763  1.00  0.00     0.000 HD 
BRANCH  11  14
HETATM   14  C   UNL     2     -11.093  11.907  69.574  1.00  0.00    -0.102 C  
HETATM   15  C   UNL     2     -12.029  13.116  69.857  1.00  0.00    -0.317 C  
HETATM   16  O   UNL     2     -10.822  11.793  68.164  1.00  0.00    -0.197 OA 
HETATM   17  H   UNL     2     -10.465  12.602  67.819  1.00  0.00     0.000 HD 
HETATM   18  O   UNL     2     -12.628  13.062  70.976  1.00  0.00    -0.364 OA 
HETATM   19  O   UNL     2     -12.131  13.932  68.899  1.00  0.00    -0.351 OA 
ENDBRANCH  11  14
ENDBRANCH   8  11
ENDBRANCH   2   8
TORSDOF 4
ENDMDL
MODEL      216
REMARK 921   NORMALIZED FREE ENERGY PREDICTED BY IDOCK:   -3.25 KCAL/MOL
REMARK 922        TOTAL FREE ENERGY PREDICTED BY IDOCK:   -5.02 KCAL/MOL
REMARK 923 INTER-LIGAND FREE ENERGY PREDICTED BY IDOCK:   -4.39 KCAL/MOL
REMARK 924 INTRA-LIGAND FREE ENERGY PREDICTED BY IDOCK:   -0.64 KCAL/MOL
REMARK 927      BINDING AFFINITY PREDICTED BY RF-SCORE:    0.00 PKD
ROOT
HETATM    1  K   UNL     1      -7.771   9.178  66.327  1.00  0.00    -0.086 K  
HETATM    2  C   UNL     2     -10.219  11.810  66.847  1.00  0.00    -0.209 C  
HETATM    3  H   UNL     2      -9.498  10.269  65.840  1.00  0.00     0.000 HD 
HETATM    4  O   UNL     2      -9.418  11.213  65.793  1.00  0.00    -0.205 OA 
ENDROOT
BRANCH   2   5
HETATM    5  C   UNL     2     -10.089  13.332  66.770  1.00  0.00    -0.258 C  
HETATM    6  O   UNL     2     -10.439  13.759  65.448  1.00  0.00    -0.302 OA 
HETATM    7  H   UNL     2     -10.358  14.703  65.401  1.00  0.00     0.000 HD 
ENDBRANCH   2   5
BRANCH   2   8
HETATM    8  C   UNL     2      -9.902  11.222  68.246  1.00  0.00    -0.197 C  
HETATM    9  O   UNL     2      -9.315  12.309  68.997  1.00  0.00    -0.385 OA 
HETATM   10  H   UNL     2      -9.121  11.949  69.854  1.00  0.00     0.000 HD 
BRANCH   8  11
HETATM   11  C   UNL     2     -11.113  10.582  68.987  1.00  0.00    -0.249 C  
HETATM   12  O   UNL     2     -12.333  10.745  68.238  1.00  0.00    -0.717 OA 
HETATM   13  H   UNL     2     -13.072  10.355  68.690  1.00  0.00     0.000 HD 
BRANCH  11  14
HETATM   14  C   UNL     2     -11.319  11.079  70.429  1.00  0.00    -0.132 C  
HETATM   15  C   UNL     2     -12.377  10.228  71.186  1.00  0.00    -0.395 C  
HETATM   16  O   UNL     2     -11.677  12.473  70.450  1.00  0.00    -0.534 OA 
HETATM   17  H   UNL     2     -11.804  12.780  71.340  1.00  0.00     0.000 HD 
HETATM   18  O   UNL     2     -12.365   8.993  70.890  1.00  0.00    -0.238 OA 
HETATM   19  O   UNL     2     -13.159  10.899  71.917  1.00  0.00    -0.482 OA 
ENDBRANCH  11  14
ENDBRANCH   8  11
ENDBRANCH   2   8
TORSDOF 4
ENDMDL
MODEL      217
REMARK 921   NORMALIZED FREE ENERGY PREDICTED BY IDOCK:   -3.25 KCAL/MOL
REMARK 922        TOTAL FREE ENERGY PREDICTED BY IDOCK:   -5.01 KCAL/MOL
REMARK 923 INTER-LIGAND FREE ENERGY PREDICTED BY IDOCK:   -3.96 KCAL/MOL
REMARK 924 INTRA-LIGAND FREE ENERGY PREDICTED BY IDOCK:   -1.05 KCAL/MOL
REMARK 927      BINDING AFFINITY PREDICTED BY RF-SCORE:    0.00 PKD
ROOT
HETATM    1  K   UNL     1     -10.886  19.191  69.019  1.00  0.00    -0.440 K  
HETATM    2  C   UNL     2      -7.693  17.928  67.837  1.00  0.00    -0.224 C  
HETATM    3  H   UNL     2      -8.867  18.661  69.248  1.00  0.00     0.000 HD 
HETATM    4  O   UNL     2      -8.250  19.016  68.621  1.00  0.00    -0.349 OA 
ENDROOT
BRANCH   2   5
HETATM    5  C   UNL     2      -6.698  18.501  66.826  1.00  0.00    -0.189 C  
HETATM    6  O   UNL     2      -5.842  17.446  66.373  1.00  0.00    -0.187 OA 
HETATM    7  H   UNL     2      -5.225  17.802  65.746  1.00  0.00     0.000 HD 
ENDBRANCH   2   5
BRANCH   2   8
HETATM    8  C   UNL     2      -8.784  17.027  67.202  1.00  0.00    -0.210 C  
HETATM    9  O   UNL     2      -8.797  17.368  65.797  1.00  0.00    -0.522 OA 
HETATM   10  H   UNL     2      -9.465  16.816  65.409  1.00  0.00     0.000 HD 
BRANCH   8  11
HETATM   11  C   UNL     2      -8.600  15.498  67.435  1.00  0.00    -0.178 C  
HETATM   12  O   UNL     2      -7.276  15.067  67.068  1.00  0.00    -0.262 OA 
HETATM   13  H   UNL     2      -7.164  14.134  67.209  1.00  0.00     0.000 HD 
BRANCH  11  14
HETATM   14  C   UNL     2      -9.647  14.612  66.737  1.00  0.00    -0.253 C  
HETATM   15  C   UNL     2      -9.457  13.110  67.090  1.00  0.00    -0.239 C  
HETATM   16  O   UNL     2      -9.623  14.808  65.311  1.00  0.00    -0.465 OA 
HETATM   17  H   UNL     2     -10.269  14.261  64.881  1.00  0.00     0.000 HD 
HETATM   18  O   UNL     2      -9.075  12.896  68.282  1.00  0.00    -0.199 OA 
HETATM   19  O   UNL     2      -9.620  12.321  66.116  1.00  0.00    -0.242 OA 
ENDBRANCH  11  14
ENDBRANCH   8  11
ENDBRANCH   2   8
TORSDOF 4
ENDMDL
MODEL      218
REMARK 921   NORMALIZED FREE ENERGY PREDICTED BY IDOCK:   -3.24 KCAL/MOL
REMARK 922        TOTAL FREE ENERGY PREDICTED BY IDOCK:   -5.01 KCAL/MOL
REMARK 923 INTER-LIGAND FREE ENERGY PREDICTED BY IDOCK:   -4.42 KCAL/MOL
REMARK 924 INTRA-LIGAND FREE ENERGY PREDICTED BY IDOCK:   -0.59 KCAL/MOL
REMARK 927      BINDING AFFINITY PREDICTED BY RF-SCORE:    0.00 PKD
ROOT
HETATM    1  K   UNL     1     -11.141  16.886  68.457  1.00  0.00    -0.285 K  
HETATM    2  C   UNL     2      -8.307  14.681  67.915  1.00  0.00    -0.152 C  
HETATM    3  H   UNL     2     -10.012  15.150  68.800  1.00  0.00     0.000 HD 
HETATM    4  O   UNL     2      -9.089  15.261  68.993  1.00  0.00    -0.197 OA 
ENDROOT
BRANCH   2   5
HETATM    5  C   UNL     2      -6.820  14.861  68.226  1.00  0.00    -0.119 C  
HETATM    6  O   UNL     2      -6.113  15.060  66.997  1.00  0.00    -0.157 OA 
HETATM    7  H   UNL     2      -5.191  15.171  67.190  1.00  0.00     0.000 HD 
ENDBRANCH   2   5
BRANCH   2   8
HETATM    8  C   UNL     2      -8.726  15.210  66.519  1.00  0.00    -0.245 C  
HETATM    9  O   UNL     2      -9.403  14.107  65.876  1.00  0.00    -0.507 OA 
HETATM   10  H   UNL     2      -9.659  14.431  65.021  1.00  0.00     0.000 HD 
BRANCH   8  11
HETATM   11  C   UNL     2      -9.592  16.505  66.532  1.00  0.00    -0.271 C  
HETATM   12  O   UNL     2     -10.413  16.599  65.352  1.00  0.00    -0.571 OA 
HETATM   13  H   UNL     2     -10.941  17.389  65.360  1.00  0.00     0.000 HD 
BRANCH  11  14
HETATM   14  C   UNL     2      -8.795  17.808  66.715  1.00  0.00    -0.260 C  
HETATM   15  C   UNL     2      -9.703  19.063  66.579  1.00  0.00    -0.357 C  
HETATM   16  O   UNL     2      -7.692  17.875  65.793  1.00  0.00    -0.538 OA 
HETATM   17  H   UNL     2      -7.200  18.679  65.907  1.00  0.00     0.000 HD 
HETATM   18  O   UNL     2     -10.875  18.914  67.044  1.00  0.00    -0.427 OA 
HETATM   19  O   UNL     2      -9.178  20.019  65.942  1.00  0.00    -0.332 OA 
ENDBRANCH  11  14
ENDBRANCH   8  11
ENDBRANCH   2   8
TORSDOF 4
ENDMDL
MODEL      219
REMARK 921   NORMALIZED FREE ENERGY PREDICTED BY IDOCK:   -3.23 KCAL/MOL
REMARK 922        TOTAL FREE ENERGY PREDICTED BY IDOCK:   -5.00 KCAL/MOL
REMARK 923 INTER-LIGAND FREE ENERGY PREDICTED BY IDOCK:   -4.18 KCAL/MOL
REMARK 924 INTRA-LIGAND FREE ENERGY PREDICTED BY IDOCK:   -0.82 KCAL/MOL
REMARK 927      BINDING AFFINITY PREDICTED BY RF-SCORE:    0.00 PKD
ROOT
HETATM    1  K   UNL     1      -8.670  14.739  65.792  1.00  0.00    -0.405 K  
HETATM    2  C   UNL     2     -10.091  16.174  68.810  1.00  0.00    -0.237 C  
HETATM    3  H   UNL     2      -8.802  15.006  67.870  1.00  0.00     0.000 HD 
HETATM    4  O   UNL     2      -9.656  14.898  68.270  1.00  0.00    -0.203 OA 
ENDROOT
BRANCH   2   5
HETATM    5  C   UNL     2     -11.468  15.999  69.455  1.00  0.00    -0.336 C  
HETATM    6  O   UNL     2     -11.429  16.544  70.778  1.00  0.00    -0.562 OA 
HETATM    7  H   UNL     2     -12.283  16.435  71.178  1.00  0.00     0.000 HD 
ENDBRANCH   2   5
BRANCH   2   8
HETATM    8  C   UNL     2     -10.026  17.319  67.767  1.00  0.00    -0.301 C  
HETATM    9  O   UNL     2     -10.759  18.418  68.355  1.00  0.00    -0.315 OA 
HETATM   10  H   UNL     2     -10.720  19.119  67.717  1.00  0.00     0.000 HD 
BRANCH   8  11
HETATM   11  C   UNL     2      -8.591  17.738  67.329  1.00  0.00    -0.233 C  
HETATM   12  O   UNL     2      -7.802  18.166  68.455  1.00  0.00    -0.284 OA 
HETATM   13  H   UNL     2      -6.927  18.422  68.188  1.00  0.00     0.000 HD 
BRANCH  11  14
HETATM   14  C   UNL     2      -8.544  18.809  66.225  1.00  0.00    -0.234 C  
HETATM   15  C   UNL     2      -7.086  19.241  65.903  1.00  0.00    -0.280 C  
HETATM   16  O   UNL     2      -9.348  19.950  66.576  1.00  0.00    -0.360 OA 
HETATM   17  H   UNL     2      -9.319  20.611  65.894  1.00  0.00     0.000 HD 
HETATM   18  O   UNL     2      -6.234  18.301  65.973  1.00  0.00    -0.182 OA 
HETATM   19  O   UNL     2      -6.940  20.480  65.709  1.00  0.00    -0.247 OA 
ENDBRANCH  11  14
ENDBRANCH   8  11
ENDBRANCH   2   8
TORSDOF 4
ENDMDL
MODEL      220
REMARK 921   NORMALIZED FREE ENERGY PREDICTED BY IDOCK:   -3.23 KCAL/MOL
REMARK 922        TOTAL FREE ENERGY PREDICTED BY IDOCK:   -5.00 KCAL/MOL
REMARK 923 INTER-LIGAND FREE ENERGY PREDICTED BY IDOCK:   -4.21 KCAL/MOL
REMARK 924 INTRA-LIGAND FREE ENERGY PREDICTED BY IDOCK:   -0.79 KCAL/MOL
REMARK 927      BINDING AFFINITY PREDICTED BY RF-SCORE:    0.00 PKD
ROOT
HETATM    1  K   UNL     1     -11.303  17.189  64.781  1.00  0.00    -0.439 K  
HETATM    2  C   UNL     2      -9.926  18.396  67.917  1.00  0.00    -0.350 C  
HETATM    3  H   UNL     2     -11.188  18.520  66.401  1.00  0.00     0.000 HD 
HETATM    4  O   UNL     2     -10.335  18.879  66.610  1.00  0.00    -0.366 OA 
ENDROOT
BRANCH   2   5
HETATM    5  C   UNL     2      -8.550  18.975  68.254  1.00  0.00    -0.331 C  
HETATM    6  O   UNL     2      -7.868  19.282  67.033  1.00  0.00    -0.240 OA 
HETATM    7  H   UNL     2      -7.015  19.641  67.242  1.00  0.00     0.000 HD 
ENDBRANCH   2   5
BRANCH   2   8
HETATM    8  C   UNL     2     -10.004  16.852  68.036  1.00  0.00    -0.279 C  
HETATM    9  O   UNL     2     -11.407  16.526  67.919  1.00  0.00    -0.218 OA 
HETATM   10  H   UNL     2     -11.455  15.581  67.993  1.00  0.00     0.000 HD 
BRANCH   8  11
HETATM   11  C   UNL     2      -9.131  16.062  67.016  1.00  0.00    -0.214 C  
HETATM   12  O   UNL     2      -9.062  16.741  65.747  1.00  0.00    -0.515 OA 
HETATM   13  H   UNL     2      -8.529  16.259  65.125  1.00  0.00     0.000 HD 
BRANCH  11  14
HETATM   14  C   UNL     2      -9.559  14.600  66.801  1.00  0.00    -0.253 C  
HETATM   15  C   UNL     2      -8.571  13.605  67.472  1.00  0.00    -0.197 C  
HETATM   16  O   UNL     2      -9.706  14.305  65.399  1.00  0.00    -0.533 OA 
HETATM   17  H   UNL     2      -9.971  13.402  65.267  1.00  0.00     0.000 HD 
HETATM   18  O   UNL     2      -8.083  14.013  68.572  1.00  0.00    -0.139 OA 
HETATM   19  O   UNL     2      -8.322  12.574  66.785  1.00  0.00    -0.139 OA 
ENDBRANCH  11  14
ENDBRANCH   8  11
ENDBRANCH   2   8
TORSDOF 4
ENDMDL
MODEL      221
REMARK 921   NORMALIZED FREE ENERGY PREDICTED BY IDOCK:   -3.22 KCAL/MOL
REMARK 922        TOTAL FREE ENERGY PREDICTED BY IDOCK:   -4.98 KCAL/MOL
REMARK 923 INTER-LIGAND FREE ENERGY PREDICTED BY IDOCK:   -4.17 KCAL/MOL
REMARK 924 INTRA-LIGAND FREE ENERGY PREDICTED BY IDOCK:   -0.81 KCAL/MOL
REMARK 927      BINDING AFFINITY PREDICTED BY RF-SCORE:    0.00 PKD
ROOT
HETATM    1  K   UNL     1      -9.663  12.722  65.707  1.00  0.00    -0.232 K  
HETATM    2  C   UNL     2     -10.294  15.003  68.461  1.00  0.00    -0.230 C  
HETATM    3  H   UNL     2      -9.718  13.256  67.737  1.00  0.00     0.000 HD 
HETATM    4  O   UNL     2     -10.528  13.624  68.068  1.00  0.00    -0.237 OA 
ENDROOT
BRANCH   2   5
HETATM    5  C   UNL     2     -11.599  15.596  68.995  1.00  0.00    -0.386 C  
HETATM    6  O   UNL     2     -11.286  16.565  70.003  1.00  0.00    -0.407 OA 
HETATM    7  H   UNL     2     -12.096  16.933  70.334  1.00  0.00     0.000 HD 
ENDBRANCH   2   5
BRANCH   2   8
HETATM    8  C   UNL     2      -9.636  15.843  67.336  1.00  0.00    -0.221 C  
HETATM    9  O   UNL     2     -10.689  16.687  66.818  1.00  0.00    -0.253 OA 
HETATM   10  H   UNL     2     -10.286  17.201  66.130  1.00  0.00     0.000 HD 
BRANCH   8  11
HETATM   11  C   UNL     2      -8.384  16.664  67.768  1.00  0.00    -0.178 C  
HETATM   12  O   UNL     2      -8.234  16.679  69.200  1.00  0.00    -0.220 OA 
HETATM   13  H   UNL     2      -7.471  17.181  69.463  1.00  0.00     0.000 HD 
BRANCH  11  14
HETATM   14  C   UNL     2      -8.343  18.103  67.226  1.00  0.00    -0.241 C  
HETATM   15  C   UNL     2      -9.557  18.940  67.718  1.00  0.00    -0.312 C  
HETATM   16  O   UNL     2      -8.267  18.114  65.788  1.00  0.00    -0.509 OA 
HETATM   17  H   UNL     2      -8.241  19.002  65.454  1.00  0.00     0.000 HD 
HETATM   18  O   UNL     2      -9.932  18.672  68.902  1.00  0.00    -0.389 OA 
HETATM   19  O   UNL     2     -10.057  19.700  66.842  1.00  0.00    -0.357 OA 
ENDBRANCH  11  14
ENDBRANCH   8  11
ENDBRANCH   2   8
TORSDOF 4
ENDMDL
MODEL      222
REMARK 921   NORMALIZED FREE ENERGY PREDICTED BY IDOCK:   -3.22 KCAL/MOL
REMARK 922        TOTAL FREE ENERGY PREDICTED BY IDOCK:   -4.98 KCAL/MOL
REMARK 923 INTER-LIGAND FREE ENERGY PREDICTED BY IDOCK:   -4.25 KCAL/MOL
REMARK 924 INTRA-LIGAND FREE ENERGY PREDICTED BY IDOCK:   -0.73 KCAL/MOL
REMARK 927      BINDING AFFINITY PREDICTED BY RF-SCORE:    0.00 PKD
ROOT
HETATM    1  K   UNL     1      -7.626  13.048  66.218  1.00  0.00    -0.361 K  
HETATM    2  C   UNL     2     -10.792  13.826  67.817  1.00  0.00    -0.250 C  
HETATM    3  H   UNL     2      -9.395  14.154  66.459  1.00  0.00     0.000 HD 
HETATM    4  O   UNL     2      -9.590  14.478  67.329  1.00  0.00    -0.217 OA 
ENDROOT
BRANCH   2   5
HETATM    5  C   UNL     2     -11.108  14.348  69.220  1.00  0.00    -0.271 C  
HETATM    6  O   UNL     2     -12.529  14.369  69.395  1.00  0.00    -0.532 OA 
HETATM    7  H   UNL     2     -12.725  14.693  70.265  1.00  0.00     0.000 HD 
ENDBRANCH   2   5
BRANCH   2   8
HETATM    8  C   UNL     2     -10.714  12.280  67.725  1.00  0.00    -0.217 C  
HETATM    9  O   UNL     2      -9.510  11.998  66.977  1.00  0.00    -0.189 OA 
HETATM   10  H   UNL     2      -9.462  11.052  66.921  1.00  0.00     0.000 HD 
BRANCH   8  11
HETATM   11  C   UNL     2     -10.747  11.531  69.091  1.00  0.00    -0.168 C  
HETATM   12  O   UNL     2      -9.479  10.911  69.380  1.00  0.00    -0.408 OA 
HETATM   13  H   UNL     2      -9.499  10.454  70.213  1.00  0.00     0.000 HD 
BRANCH  11  14
HETATM   14  C   UNL     2     -11.875  10.494  69.228  1.00  0.00    -0.170 C  
HETATM   15  C   UNL     2     -12.598  10.607  70.600  1.00  0.00    -0.365 C  
HETATM   16  O   UNL     2     -11.378   9.159  69.022  1.00  0.00    -0.434 OA 
HETATM   17  H   UNL     2     -12.075   8.519  69.107  1.00  0.00     0.000 HD 
HETATM   18  O   UNL     2     -12.712  11.795  71.035  1.00  0.00    -0.348 OA 
HETATM   19  O   UNL     2     -12.885   9.497  71.131  1.00  0.00    -0.321 OA 
ENDBRANCH  11  14
ENDBRANCH   8  11
ENDBRANCH   2   8
TORSDOF 4
ENDMDL
MODEL      223
REMARK 921   NORMALIZED FREE ENERGY PREDICTED BY IDOCK:   -3.21 KCAL/MOL
REMARK 922        TOTAL FREE ENERGY PREDICTED BY IDOCK:   -4.97 KCAL/MOL
REMARK 923 INTER-LIGAND FREE ENERGY PREDICTED BY IDOCK:   -4.05 KCAL/MOL
REMARK 924 INTRA-LIGAND FREE ENERGY PREDICTED BY IDOCK:   -0.92 KCAL/MOL
REMARK 927      BINDING AFFINITY PREDICTED BY RF-SCORE:    0.00 PKD
ROOT
HETATM    1  K   UNL     1      -7.880  12.534  69.471  1.00  0.00    -0.315 K  
HETATM    2  C   UNL     2     -10.592  11.406  67.337  1.00  0.00    -0.218 C  
HETATM    3  H   UNL     2      -8.673  11.594  67.770  1.00  0.00     0.000 HD 
HETATM    4  O   UNL     2      -9.308  12.080  67.259  1.00  0.00    -0.174 OA 
ENDROOT
BRANCH   2   5
HETATM    5  C   UNL     2     -11.617  12.191  66.514  1.00  0.00    -0.359 C  
HETATM    6  O   UNL     2     -12.106  13.279  67.305  1.00  0.00    -0.357 OA 
HETATM    7  H   UNL     2     -12.742  13.765  66.795  1.00  0.00     0.000 HD 
ENDBRANCH   2   5
BRANCH   2   8
HETATM    8  C   UNL     2     -11.037  11.130  68.796  1.00  0.00    -0.236 C  
HETATM    9  O   UNL     2     -12.451  10.840  68.720  1.00  0.00    -0.793 OA 
HETATM   10  H   UNL     2     -12.724  10.671  69.613  1.00  0.00     0.000 HD 
BRANCH   8  11
HETATM   11  C   UNL     2     -10.246  10.007  69.530  1.00  0.00    -0.234 C  
HETATM   12  O   UNL     2      -8.891  10.413  69.805  1.00  0.00    -0.369 OA 
HETATM   13  H   UNL     2      -8.408   9.727  70.252  1.00  0.00     0.000 HD 
BRANCH  11  14
HETATM   14  C   UNL     2     -10.245   8.647  68.810  1.00  0.00    -0.207 C  
HETATM   15  C   UNL     2     -10.443   7.469  69.805  1.00  0.00    -0.230 C  
HETATM   16  O   UNL     2      -9.040   8.468  68.043  1.00  0.00    -0.140 OA 
HETATM   17  H   UNL     2      -9.040   7.629  67.598  1.00  0.00     0.000 HD 
HETATM   18  O   UNL     2     -11.228   7.724  70.770  1.00  0.00    -0.265 OA 
HETATM   19  O   UNL     2      -9.724   6.458  69.565  1.00  0.00    -0.149 OA 
ENDBRANCH  11  14
ENDBRANCH   8  11
ENDBRANCH   2   8
TORSDOF 4
ENDMDL
MODEL      224
REMARK 921   NORMALIZED FREE ENERGY PREDICTED BY IDOCK:   -3.20 KCAL/MOL
REMARK 922        TOTAL FREE ENERGY PREDICTED BY IDOCK:   -4.96 KCAL/MOL
REMARK 923 INTER-LIGAND FREE ENERGY PREDICTED BY IDOCK:   -4.28 KCAL/MOL
REMARK 924 INTRA-LIGAND FREE ENERGY PREDICTED BY IDOCK:   -0.68 KCAL/MOL
REMARK 927      BINDING AFFINITY PREDICTED BY RF-SCORE:    0.00 PKD
ROOT
HETATM    1  K   UNL     1      -9.998   3.987  70.894  1.00  0.00    -0.137 K  
HETATM    2  C   UNL     2     -10.739   6.536  68.416  1.00  0.00    -0.279 C  
HETATM    3  H   UNL     2     -10.880   4.697  69.125  1.00  0.00     0.000 HD 
HETATM    4  O   UNL     2     -10.317   5.150  68.510  1.00  0.00    -0.148 OA 
ENDROOT
BRANCH   2   5
HETATM    5  C   UNL     2      -9.832   7.268  67.424  1.00  0.00    -0.159 C  
HETATM    6  O   UNL     2     -10.298   7.006  66.096  1.00  0.00    -0.405 OA 
HETATM    7  H   UNL     2      -9.735   7.459  65.480  1.00  0.00     0.000 HD 
ENDBRANCH   2   5
BRANCH   2   8
HETATM    8  C   UNL     2     -10.840   7.227  69.801  1.00  0.00    -0.235 C  
HETATM    9  O   UNL     2     -11.100   8.620  69.519  1.00  0.00    -0.425 OA 
HETATM   10  H   UNL     2     -11.162   9.043  70.367  1.00  0.00     0.000 HD 
BRANCH   8  11
HETATM   11  C   UNL     2     -11.895   6.617  70.771  1.00  0.00    -0.383 C  
HETATM   12  O   UNL     2     -13.143   7.335  70.710  1.00  0.00    -0.603 OA 
HETATM   13  H   UNL     2     -13.786   6.963  71.302  1.00  0.00     0.000 HD 
BRANCH  11  14
HETATM   14  C   UNL     2     -11.433   6.504  72.234  1.00  0.00    -0.289 C  
HETATM   15  C   UNL     2     -11.091   7.896  72.839  1.00  0.00    -0.379 C  
HETATM   16  O   UNL     2     -10.313   5.607  72.356  1.00  0.00    -0.191 OA 
HETATM   17  H   UNL     2     -10.028   5.538  73.260  1.00  0.00     0.000 HD 
HETATM   18  O   UNL     2     -11.838   8.840  72.435  1.00  0.00    -0.357 OA 
HETATM   19  O   UNL     2     -10.062   7.907  73.573  1.00  0.00    -0.293 OA 
ENDBRANCH  11  14
ENDBRANCH   8  11
ENDBRANCH   2   8
TORSDOF 4
ENDMDL
MODEL      225
REMARK 921   NORMALIZED FREE ENERGY PREDICTED BY IDOCK:   -3.19 KCAL/MOL
REMARK 922        TOTAL FREE ENERGY PREDICTED BY IDOCK:   -4.95 KCAL/MOL
REMARK 923 INTER-LIGAND FREE ENERGY PREDICTED BY IDOCK:   -4.38 KCAL/MOL
REMARK 924 INTRA-LIGAND FREE ENERGY PREDICTED BY IDOCK:   -0.57 KCAL/MOL
REMARK 927      BINDING AFFINITY PREDICTED BY RF-SCORE:    0.00 PKD
ROOT
HETATM    1  K   UNL     1     -12.359   8.121  73.580  1.00  0.00    -0.604 K  
HETATM    2  C   UNL     2     -10.065   8.441  70.784  1.00  0.00    -0.193 C  
HETATM    3  H   UNL     2     -10.467   8.030  72.675  1.00  0.00     0.000 HD 
HETATM    4  O   UNL     2     -10.180   8.793  72.188  1.00  0.00    -0.325 OA 
ENDROOT
BRANCH   2   5
HETATM    5  C   UNL     2      -9.602   9.670  69.999  1.00  0.00    -0.243 C  
HETATM    6  O   UNL     2      -8.372  10.140  70.561  1.00  0.00    -0.379 OA 
HETATM    7  H   UNL     2      -8.085  10.902  70.074  1.00  0.00     0.000 HD 
ENDBRANCH   2   5
BRANCH   2   8
HETATM    8  C   UNL     2     -11.353   7.786  70.222  1.00  0.00    -0.163 C  
HETATM    9  O   UNL     2     -11.043   7.434  68.855  1.00  0.00    -0.433 OA 
HETATM   10  H   UNL     2     -11.831   7.033  68.511  1.00  0.00     0.000 HD 
BRANCH   8  11
HETATM   11  C   UNL     2     -11.887   6.569  71.035  1.00  0.00    -0.330 C  
HETATM   12  O   UNL     2     -13.059   6.920  71.797  1.00  0.00    -0.427 OA 
HETATM   13  H   UNL     2     -13.385   6.178  72.293  1.00  0.00     0.000 HD 
BRANCH  11  14
HETATM   14  C   UNL     2     -10.849   5.907  71.957  1.00  0.00    -0.252 C  
HETATM   15  C   UNL     2     -10.247   4.623  71.318  1.00  0.00    -0.135 C  
HETATM   16  O   UNL     2     -11.413   5.615  73.248  1.00  0.00    -0.493 OA 
HETATM   17  H   UNL     2     -10.771   5.207  73.817  1.00  0.00     0.000 HD 
HETATM   18  O   UNL     2     -10.092   4.688  70.058  1.00  0.00    -0.238 OA 
HETATM   19  O   UNL     2     -10.084   3.666  72.125  1.00  0.00    -0.168 OA 
ENDBRANCH  11  14
ENDBRANCH   8  11
ENDBRANCH   2   8
TORSDOF 4
ENDMDL
MODEL      226
REMARK 921   NORMALIZED FREE ENERGY PREDICTED BY IDOCK:   -3.19 KCAL/MOL
REMARK 922        TOTAL FREE ENERGY PREDICTED BY IDOCK:   -4.95 KCAL/MOL
REMARK 923 INTER-LIGAND FREE ENERGY PREDICTED BY IDOCK:   -4.22 KCAL/MOL
REMARK 924 INTRA-LIGAND FREE ENERGY PREDICTED BY IDOCK:   -0.73 KCAL/MOL
REMARK 927      BINDING AFFINITY PREDICTED BY RF-SCORE:    0.00 PKD
ROOT
HETATM    1  K   UNL     1      -8.602   6.835  70.388  1.00  0.00    -0.125 K  
HETATM    2  C   UNL     2     -10.461   5.983  73.388  1.00  0.00    -0.249 C  
HETATM    3  H   UNL     2      -8.913   6.792  72.464  1.00  0.00     0.000 HD 
HETATM    4  O   UNL     2      -9.110   5.951  72.858  1.00  0.00    -0.124 OA 
ENDROOT
BRANCH   2   5
HETATM    5  C   UNL     2     -10.780   4.627  74.022  1.00  0.00    -0.289 C  
HETATM    6  O   UNL     2     -10.760   3.625  73.000  1.00  0.00    -0.174 OA 
HETATM    7  H   UNL     2     -10.958   2.783  73.394  1.00  0.00     0.000 HD 
ENDBRANCH   2   5
BRANCH   2   8
HETATM    8  C   UNL     2     -11.506   6.447  72.341  1.00  0.00    -0.282 C  
HETATM    9  O   UNL     2     -12.722   5.738  72.668  1.00  0.00    -0.473 OA 
HETATM   10  H   UNL     2     -13.362   6.022  72.027  1.00  0.00     0.000 HD 
BRANCH   8  11
HETATM   11  C   UNL     2     -11.728   7.987  72.261  1.00  0.00    -0.371 C  
HETATM   12  O   UNL     2     -12.996   8.365  72.829  1.00  0.00    -0.626 OA 
HETATM   13  H   UNL     2     -13.131   9.304  72.780  1.00  0.00     0.000 HD 
BRANCH  11  14
HETATM   14  C   UNL     2     -11.592   8.582  70.849  1.00  0.00    -0.263 C  
HETATM   15  C   UNL     2     -10.268   9.380  70.685  1.00  0.00    -0.288 C  
HETATM   16  O   UNL     2     -12.727   9.406  70.523  1.00  0.00    -0.500 OA 
HETATM   17  H   UNL     2     -12.643   9.774  69.651  1.00  0.00     0.000 HD 
HETATM   18  O   UNL     2      -9.278   8.887  71.310  1.00  0.00    -0.219 OA 
HETATM   19  O   UNL     2     -10.384  10.455  70.031  1.00  0.00    -0.235 OA 
ENDBRANCH  11  14
ENDBRANCH   8  11
ENDBRANCH   2   8
TORSDOF 4
ENDMDL
MODEL      227
REMARK 921   NORMALIZED FREE ENERGY PREDICTED BY IDOCK:   -3.18 KCAL/MOL
REMARK 922        TOTAL FREE ENERGY PREDICTED BY IDOCK:   -4.94 KCAL/MOL
REMARK 923 INTER-LIGAND FREE ENERGY PREDICTED BY IDOCK:   -4.09 KCAL/MOL
REMARK 924 INTRA-LIGAND FREE ENERGY PREDICTED BY IDOCK:   -0.85 KCAL/MOL
REMARK 927      BINDING AFFINITY PREDICTED BY RF-SCORE:    0.00 PKD
ROOT
HETATM    1  K   UNL     1      -9.273  13.937  69.055  1.00  0.00    -0.180 K  
HETATM    2  C   UNL     2     -11.109  14.225  65.936  1.00  0.00    -0.310 C  
HETATM    3  H   UNL     2     -10.035  14.992  67.407  1.00  0.00     0.000 HD 
HETATM    4  O   UNL     2     -10.959  14.893  67.217  1.00  0.00    -0.305 OA 
ENDROOT
BRANCH   2   5
HETATM    5  C   UNL     2     -12.600  14.066  65.628  1.00  0.00    -0.512 C  
HETATM    6  O   UNL     2     -12.762  13.882  64.218  1.00  0.00    -0.664 OA 
HETATM    7  H   UNL     2     -13.687  13.783  64.027  1.00  0.00     0.000 HD 
ENDBRANCH   2   5
BRANCH   2   8
HETATM    8  C   UNL     2     -10.306  12.902  65.852  1.00  0.00    -0.285 C  
HETATM    9  O   UNL     2      -9.802  12.841  64.499  1.00  0.00    -0.547 OA 
HETATM   10  H   UNL     2      -9.310  12.031  64.448  1.00  0.00     0.000 HD 
BRANCH   8  11
HETATM   11  C   UNL     2      -9.172  12.745  66.909  1.00  0.00    -0.229 C  
HETATM   12  O   UNL     2      -8.202  13.805  66.800  1.00  0.00    -0.412 OA 
HETATM   13  H   UNL     2      -7.511  13.709  67.445  1.00  0.00     0.000 HD 
BRANCH  11  14
HETATM   14  C   UNL     2      -8.458  11.383  66.887  1.00  0.00    -0.157 C  
HETATM   15  C   UNL     2      -7.082  11.442  67.609  1.00  0.00    -0.092 C  
HETATM   16  O   UNL     2      -8.305  10.900  65.540  1.00  0.00    -0.244 OA 
HETATM   17  H   UNL     2      -7.865  10.058  65.527  1.00  0.00     0.000 HD 
HETATM   18  O   UNL     2      -7.056  12.204  68.625  1.00  0.00    -0.092 OA 
HETATM   19  O   UNL     2      -6.162  10.797  67.032  1.00  0.00    -0.060 OA 
ENDBRANCH  11  14
ENDBRANCH   8  11
ENDBRANCH   2   8
TORSDOF 4
ENDMDL
MODEL      228
REMARK 921   NORMALIZED FREE ENERGY PREDICTED BY IDOCK:   -3.18 KCAL/MOL
REMARK 922        TOTAL FREE ENERGY PREDICTED BY IDOCK:   -4.93 KCAL/MOL
REMARK 923 INTER-LIGAND FREE ENERGY PREDICTED BY IDOCK:   -3.95 KCAL/MOL
REMARK 924 INTRA-LIGAND FREE ENERGY PREDICTED BY IDOCK:   -0.98 KCAL/MOL
REMARK 927      BINDING AFFINITY PREDICTED BY RF-SCORE:    0.00 PKD
ROOT
HETATM    1  K   UNL     1      -9.209   8.256  67.599  1.00  0.00    -0.129 K  
HETATM    2  C   UNL     2      -8.922   8.514  71.209  1.00  0.00    -0.192 C  
HETATM    3  H   UNL     2      -8.645   9.212  69.381  1.00  0.00     0.000 HD 
HETATM    4  O   UNL     2      -8.136   8.707  70.003  1.00  0.00    -0.103 OA 
ENDROOT
BRANCH   2   5
HETATM    5  C   UNL     2      -8.101   7.700  72.213  1.00  0.00    -0.107 C  
HETATM    6  O   UNL     2      -7.925   8.479  73.401  1.00  0.00    -0.363 OA 
HETATM    7  H   UNL     2      -7.415   7.975  74.024  1.00  0.00     0.000 HD 
ENDBRANCH   2   5
BRANCH   2   8
HETATM    8  C   UNL     2     -10.326   7.923  70.921  1.00  0.00    -0.200 C  
HETATM    9  O   UNL     2     -10.762   7.339  72.169  1.00  0.00    -0.210 OA 
HETATM   10  H   UNL     2     -11.622   6.977  71.993  1.00  0.00     0.000 HD 
BRANCH   8  11
HETATM   11  C   UNL     2     -11.366   8.932  70.350  1.00  0.00    -0.202 C  
HETATM   12  O   UNL     2     -11.053   9.295  68.991  1.00  0.00    -0.431 OA 
HETATM   13  H   UNL     2     -11.688   9.911  68.642  1.00  0.00     0.000 HD 
BRANCH  11  14
HETATM   14  C   UNL     2     -11.560  10.202  71.195  1.00  0.00    -0.346 C  
HETATM   15  C   UNL     2     -12.897  10.168  71.989  1.00  0.00    -0.376 C  
HETATM   16  O   UNL     2     -11.483  11.385  70.379  1.00  0.00    -0.479 OA 
HETATM   17  H   UNL     2     -11.603  12.169  70.901  1.00  0.00     0.000 HD 
HETATM   18  O   UNL     2     -13.225   9.016  72.411  1.00  0.00    -0.420 OA 
HETATM   19  O   UNL     2     -13.512  11.270  72.022  1.00  0.00    -0.389 OA 
ENDBRANCH  11  14
ENDBRANCH   8  11
ENDBRANCH   2   8
TORSDOF 4
ENDMDL
MODEL      229
REMARK 921   NORMALIZED FREE ENERGY PREDICTED BY IDOCK:   -3.17 KCAL/MOL
REMARK 922        TOTAL FREE ENERGY PREDICTED BY IDOCK:   -4.92 KCAL/MOL
REMARK 923 INTER-LIGAND FREE ENERGY PREDICTED BY IDOCK:   -4.11 KCAL/MOL
REMARK 924 INTRA-LIGAND FREE ENERGY PREDICTED BY IDOCK:   -0.81 KCAL/MOL
REMARK 927      BINDING AFFINITY PREDICTED BY RF-SCORE:    0.00 PKD
ROOT
HETATM    1  K   UNL     1      -8.809  20.289  67.620  1.00  0.00    -0.284 K  
HETATM    2  C   UNL     2      -7.336  17.159  68.724  1.00  0.00    -0.241 C  
HETATM    3  H   UNL     2      -7.990  18.994  69.056  1.00  0.00     0.000 HD 
HETATM    4  O   UNL     2      -7.154  18.594  68.855  1.00  0.00    -0.285 OA 
ENDROOT
BRANCH   2   5
HETATM    5  C   UNL     2      -5.988  16.513  68.399  1.00  0.00    -0.123 C  
HETATM    6  O   UNL     2      -5.976  16.144  67.015  1.00  0.00    -0.322 OA 
HETATM    7  H   UNL     2      -5.139  15.743  66.814  1.00  0.00     0.000 HD 
ENDBRANCH   2   5
BRANCH   2   8
HETATM    8  C   UNL     2      -8.467  16.787  67.730  1.00  0.00    -0.193 C  
HETATM    9  O   UNL     2      -8.574  15.346  67.789  1.00  0.00    -0.152 OA 
HETATM   10  H   UNL     2      -9.266  15.118  67.181  1.00  0.00     0.000 HD 
BRANCH   8  11
HETATM   11  C   UNL     2      -9.834  17.488  67.987  1.00  0.00    -0.299 C  
HETATM   12  O   UNL     2     -10.648  16.732  68.905  1.00  0.00    -0.310 OA 
HETATM   13  H   UNL     2     -11.482  17.160  69.062  1.00  0.00     0.000 HD 
BRANCH  11  14
HETATM   14  C   UNL     2     -10.642  17.805  66.717  1.00  0.00    -0.233 C  
HETATM   15  C   UNL     2     -10.872  16.535  65.849  1.00  0.00    -0.095 C  
HETATM   16  O   UNL     2     -10.008  18.841  65.945  1.00  0.00    -0.508 OA 
HETATM   17  H   UNL     2     -10.507  19.037  65.161  1.00  0.00     0.000 HD 
HETATM   18  O   UNL     2     -11.049  15.470  66.517  1.00  0.00    -0.287 OA 
HETATM   19  O   UNL     2     -10.757  16.726  64.605  1.00  0.00    -0.778 OA 
ENDBRANCH  11  14
ENDBRANCH   8  11
ENDBRANCH   2   8
TORSDOF 4
ENDMDL
MODEL      230
REMARK 921   NORMALIZED FREE ENERGY PREDICTED BY IDOCK:   -3.16 KCAL/MOL
REMARK 922        TOTAL FREE ENERGY PREDICTED BY IDOCK:   -4.91 KCAL/MOL
REMARK 923 INTER-LIGAND FREE ENERGY PREDICTED BY IDOCK:   -4.17 KCAL/MOL
REMARK 924 INTRA-LIGAND FREE ENERGY PREDICTED BY IDOCK:   -0.74 KCAL/MOL
REMARK 927      BINDING AFFINITY PREDICTED BY RF-SCORE:    0.00 PKD
ROOT
HETATM    1  K   UNL     1      -9.340  19.536  67.810  1.00  0.00    -0.279 K  
HETATM    2  C   UNL     2     -10.919  16.333  68.469  1.00  0.00    -0.345 C  
HETATM    3  H   UNL     2     -10.799  18.056  67.508  1.00  0.00     0.000 HD 
HETATM    4  O   UNL     2     -11.256  17.732  68.275  1.00  0.00     0.007 OA 
ENDROOT
BRANCH   2   5
HETATM    5  C   UNL     2     -11.654  15.810  69.704  1.00  0.00    -0.358 C  
HETATM    6  O   UNL     2     -11.412  16.704  70.797  1.00  0.00    -0.540 OA 
HETATM    7  H   UNL     2     -11.869  16.379  71.563  1.00  0.00     0.000 HD 
ENDBRANCH   2   5
BRANCH   2   8
HETATM    8  C   UNL     2      -9.389  16.083  68.496  1.00  0.00    -0.213 C  
HETATM    9  O   UNL     2      -9.144  15.316  69.696  1.00  0.00    -0.381 OA 
HETATM   10  H   UNL     2      -8.208  15.163  69.713  1.00  0.00     0.000 HD 
BRANCH   8  11
HETATM   11  C   UNL     2      -8.807  15.390  67.228  1.00  0.00    -0.195 C  
HETATM   12  O   UNL     2      -7.562  14.725  67.517  1.00  0.00    -0.163 OA 
HETATM   13  H   UNL     2      -7.207  14.302  66.743  1.00  0.00     0.000 HD 
BRANCH  11  14
HETATM   14  C   UNL     2      -8.629  16.318  66.014  1.00  0.00    -0.211 C  
HETATM   15  C   UNL     2      -7.701  17.523  66.340  1.00  0.00    -0.297 C  
HETATM   16  O   UNL     2      -9.902  16.776  65.521  1.00  0.00    -0.564 OA 
HETATM   17  H   UNL     2      -9.792  17.348  64.771  1.00  0.00     0.000 HD 
HETATM   18  O   UNL     2      -6.744  17.247  67.128  1.00  0.00    -0.151 OA 
HETATM   19  O   UNL     2      -8.083  18.623  65.850  1.00  0.00    -0.483 OA 
ENDBRANCH  11  14
ENDBRANCH   8  11
ENDBRANCH   2   8
TORSDOF 4
ENDMDL
MODEL      231
REMARK 921   NORMALIZED FREE ENERGY PREDICTED BY IDOCK:   -3.15 KCAL/MOL
REMARK 922        TOTAL FREE ENERGY PREDICTED BY IDOCK:   -4.89 KCAL/MOL
REMARK 923 INTER-LIGAND FREE ENERGY PREDICTED BY IDOCK:   -4.10 KCAL/MOL
REMARK 924 INTRA-LIGAND FREE ENERGY PREDICTED BY IDOCK:   -0.79 KCAL/MOL
REMARK 927      BINDING AFFINITY PREDICTED BY RF-SCORE:    0.00 PKD
ROOT
HETATM    1  K   UNL     1     -10.259  10.331  69.954  1.00  0.00    -0.182 K  
HETATM    2  C   UNL     2     -10.424  11.804  66.639  1.00  0.00    -0.224 C  
HETATM    3  H   UNL     2     -11.263  10.980  68.228  1.00  0.00     0.000 HD 
HETATM    4  O   UNL     2     -10.935  10.672  67.392  1.00  0.00    -0.286 OA 
ENDROOT
BRANCH   2   5
HETATM    5  C   UNL     2      -9.895  11.308  65.291  1.00  0.00    -0.246 C  
HETATM    6  O   UNL     2      -9.897  12.401  64.366  1.00  0.00    -0.491 OA 
HETATM    7  H   UNL     2      -9.569  12.093  63.529  1.00  0.00     0.000 HD 
ENDBRANCH   2   5
BRANCH   2   8
HETATM    8  C   UNL     2      -9.401  12.646  67.444  1.00  0.00    -0.189 C  
HETATM    9  O   UNL     2      -8.225  12.727  66.607  1.00  0.00    -0.406 OA 
HETATM   10  H   UNL     2      -7.598  13.243  67.100  1.00  0.00     0.000 HD 
BRANCH   8  11
HETATM   11  C   UNL     2      -9.902  14.052  67.889  1.00  0.00    -0.233 C  
HETATM   12  O   UNL     2     -10.439  14.019  69.226  1.00  0.00    -0.407 OA 
HETATM   13  H   UNL     2     -10.745  14.877  69.497  1.00  0.00     0.000 HD 
BRANCH  11  14
HETATM   14  C   UNL     2     -10.921  14.701  66.936  1.00  0.00    -0.324 C  
HETATM   15  C   UNL     2     -10.282  15.848  66.103  1.00  0.00    -0.324 C  
HETATM   16  O   UNL     2     -12.074  15.177  67.657  1.00  0.00    -0.420 OA 
HETATM   17  H   UNL     2     -12.703  15.577  67.068  1.00  0.00     0.000 HD 
HETATM   18  O   UNL     2      -9.075  15.640  65.765  1.00  0.00    -0.303 OA 
HETATM   19  O   UNL     2     -11.021  16.863  65.960  1.00  0.00    -0.063 OA 
ENDBRANCH  11  14
ENDBRANCH   8  11
ENDBRANCH   2   8
TORSDOF 4
ENDMDL
MODEL      232
REMARK 921   NORMALIZED FREE ENERGY PREDICTED BY IDOCK:   -3.14 KCAL/MOL
REMARK 922        TOTAL FREE ENERGY PREDICTED BY IDOCK:   -4.88 KCAL/MOL
REMARK 923 INTER-LIGAND FREE ENERGY PREDICTED BY IDOCK:   -3.74 KCAL/MOL
REMARK 924 INTRA-LIGAND FREE ENERGY PREDICTED BY IDOCK:   -1.15 KCAL/MOL
REMARK 927      BINDING AFFINITY PREDICTED BY RF-SCORE:    0.00 PKD
ROOT
HETATM    1  K   UNL     1      -8.530  14.572  69.714  1.00  0.00    -0.311 K  
HETATM    2  C   UNL     2      -9.901  14.671  66.353  1.00  0.00    -0.285 C  
HETATM    3  H   UNL     2      -8.834  15.442  67.827  1.00  0.00     0.000 HD 
HETATM    4  O   UNL     2      -9.729  15.516  67.521  1.00  0.00    -0.214 OA 
ENDROOT
BRANCH   2   5
HETATM    5  C   UNL     2     -11.345  14.791  65.860  1.00  0.00    -0.331 C  
HETATM    6  O   UNL     2     -11.509  13.957  64.707  1.00  0.00    -0.335 OA 
HETATM    7  H   UNL     2     -12.404  14.032  64.401  1.00  0.00     0.000 HD 
ENDBRANCH   2   5
BRANCH   2   8
HETATM    8  C   UNL     2      -9.441  13.210  66.597  1.00  0.00    -0.260 C  
HETATM    9  O   UNL     2      -8.035  13.298  66.923  1.00  0.00    -0.392 OA 
HETATM   10  H   UNL     2      -7.753  12.404  67.072  1.00  0.00     0.000 HD 
BRANCH   8  11
HETATM   11  C   UNL     2     -10.247  12.432  67.679  1.00  0.00    -0.207 C  
HETATM   12  O   UNL     2     -10.031  12.983  68.993  1.00  0.00    -0.420 OA 
HETATM   13  H   UNL     2     -10.523  12.508  69.653  1.00  0.00     0.000 HD 
BRANCH  11  14
HETATM   14  C   UNL     2      -9.990  10.915  67.704  1.00  0.00    -0.173 C  
HETATM   15  C   UNL     2     -10.766  10.218  68.857  1.00  0.00    -0.227 C  
HETATM   16  O   UNL     2      -8.582  10.630  67.793  1.00  0.00    -0.121 OA 
HETATM   17  H   UNL     2      -8.424   9.694  67.807  1.00  0.00     0.000 HD 
HETATM   18  O   UNL     2     -11.911  10.716  69.094  1.00  0.00    -0.276 OA 
HETATM   19  O   UNL     2     -10.112   9.318  69.455  1.00  0.00    -0.183 OA 
ENDBRANCH  11  14
ENDBRANCH   8  11
ENDBRANCH   2   8
TORSDOF 4
ENDMDL
MODEL      233
REMARK 921   NORMALIZED FREE ENERGY PREDICTED BY IDOCK:   -3.14 KCAL/MOL
REMARK 922        TOTAL FREE ENERGY PREDICTED BY IDOCK:   -4.88 KCAL/MOL
REMARK 923 INTER-LIGAND FREE ENERGY PREDICTED BY IDOCK:   -3.77 KCAL/MOL
REMARK 924 INTRA-LIGAND FREE ENERGY PREDICTED BY IDOCK:   -1.11 KCAL/MOL
REMARK 927      BINDING AFFINITY PREDICTED BY RF-SCORE:    0.00 PKD
ROOT
HETATM    1  K   UNL     1     -12.591   6.800  69.455  1.00  0.00    -0.608 K  
HETATM    2  C   UNL     2     -10.301   7.917  66.868  1.00  0.00    -0.330 C  
HETATM    3  H   UNL     2     -12.061   7.252  67.474  1.00  0.00     0.000 HD 
HETATM    4  O   UNL     2     -11.263   6.864  67.137  1.00  0.00    -0.352 OA 
ENDROOT
BRANCH   2   5
HETATM    5  C   UNL     2      -9.015   7.291  66.324  1.00  0.00    -0.156 C  
HETATM    6  O   UNL     2      -8.082   8.336  66.029  1.00  0.00    -0.100 OA 
HETATM    7  H   UNL     2      -7.285   7.948  65.691  1.00  0.00     0.000 HD 
ENDBRANCH   2   5
BRANCH   2   8
HETATM    8  C   UNL     2     -10.078   8.852  68.085  1.00  0.00    -0.189 C  
HETATM    9  O   UNL     2     -11.365   9.457  68.347  1.00  0.00    -0.479 OA 
HETATM   10  H   UNL     2     -11.229  10.029  69.092  1.00  0.00     0.000 HD 
BRANCH   8  11
HETATM   11  C   UNL     2      -9.484   8.164  69.350  1.00  0.00    -0.162 C  
HETATM   12  O   UNL     2     -10.401   7.200  69.903  1.00  0.00    -0.202 OA 
HETATM   13  H   UNL     2     -10.039   6.780  70.675  1.00  0.00     0.000 HD 
BRANCH  11  14
HETATM   14  C   UNL     2      -9.024   9.134  70.452  1.00  0.00    -0.229 C  
HETATM   15  C   UNL     2      -8.300   8.390  71.609  1.00  0.00    -0.156 C  
HETATM   16  O   UNL     2     -10.129   9.907  70.956  1.00  0.00    -0.310 OA 
HETATM   17  H   UNL     2      -9.844  10.506  71.636  1.00  0.00     0.000 HD 
HETATM   18  O   UNL     2      -7.592   7.403  71.236  1.00  0.00    -0.080 OA 
HETATM   19  O   UNL     2      -8.591   8.812  72.764  1.00  0.00    -0.412 OA 
ENDBRANCH  11  14
ENDBRANCH   8  11
ENDBRANCH   2   8
TORSDOF 4
ENDMDL
MODEL      234
REMARK 921   NORMALIZED FREE ENERGY PREDICTED BY IDOCK:   -3.13 KCAL/MOL
REMARK 922        TOTAL FREE ENERGY PREDICTED BY IDOCK:   -4.87 KCAL/MOL
REMARK 923 INTER-LIGAND FREE ENERGY PREDICTED BY IDOCK:   -4.27 KCAL/MOL
REMARK 924 INTRA-LIGAND FREE ENERGY PREDICTED BY IDOCK:   -0.61 KCAL/MOL
REMARK 927      BINDING AFFINITY PREDICTED BY RF-SCORE:    0.00 PKD
ROOT
HETATM    1  K   UNL     1      -9.479  20.689  65.003  1.00  0.00    -0.507 K  
HETATM    2  C   UNL     2     -10.746  18.560  67.657  1.00  0.00    -0.364 C  
HETATM    3  H   UNL     2     -10.883  20.126  66.459  1.00  0.00     0.000 HD 
HETATM    4  O   UNL     2     -10.559  19.963  67.337  1.00  0.00    -0.419 OA 
ENDROOT
BRANCH   2   5
HETATM    5  C   UNL     2     -10.224  18.298  69.072  1.00  0.00    -0.192 C  
HETATM    6  O   UNL     2      -9.292  19.330  69.417  1.00  0.00    -0.169 OA 
HETATM    7  H   UNL     2      -8.968  19.167  70.294  1.00  0.00     0.000 HD 
ENDBRANCH   2   5
BRANCH   2   8
HETATM    8  C   UNL     2     -10.149  17.614  66.583  1.00  0.00    -0.335 C  
HETATM    9  O   UNL     2     -10.431  18.246  65.314  1.00  0.00    -0.492 OA 
HETATM   10  H   UNL     2     -10.066  17.667  64.656  1.00  0.00     0.000 HD 
BRANCH   8  11
HETATM   11  C   UNL     2      -8.635  17.288  66.753  1.00  0.00    -0.249 C  
HETATM   12  O   UNL     2      -7.878  17.692  65.595  1.00  0.00    -0.533 OA 
HETATM   13  H   UNL     2      -6.955  17.492  65.699  1.00  0.00     0.000 HD 
BRANCH  11  14
HETATM   14  C   UNL     2      -8.329  15.818  67.087  1.00  0.00    -0.202 C  
HETATM   15  C   UNL     2      -6.832  15.610  67.453  1.00  0.00    -0.197 C  
HETATM   16  O   UNL     2      -8.714  14.950  66.006  1.00  0.00    -0.422 OA 
HETATM   17  H   UNL     2      -8.525  14.042  66.213  1.00  0.00     0.000 HD 
HETATM   18  O   UNL     2      -6.311  16.575  68.096  1.00  0.00    -0.125 OA 
HETATM   19  O   UNL     2      -6.321  14.556  66.980  1.00  0.00    -0.062 OA 
ENDBRANCH  11  14
ENDBRANCH   8  11
ENDBRANCH   2   8
TORSDOF 4
ENDMDL
MODEL      235
REMARK 921   NORMALIZED FREE ENERGY PREDICTED BY IDOCK:   -3.12 KCAL/MOL
REMARK 922        TOTAL FREE ENERGY PREDICTED BY IDOCK:   -4.86 KCAL/MOL
REMARK 923 INTER-LIGAND FREE ENERGY PREDICTED BY IDOCK:   -4.03 KCAL/MOL
REMARK 924 INTRA-LIGAND FREE ENERGY PREDICTED BY IDOCK:   -0.84 KCAL/MOL
REMARK 927      BINDING AFFINITY PREDICTED BY RF-SCORE:    0.00 PKD
ROOT
HETATM    1  K   UNL     1      -6.070  13.194  67.529  1.00  0.00    -0.083 K  
HETATM    2  C   UNL     2      -9.472  12.152  66.802  1.00  0.00    -0.212 C  
HETATM    3  H   UNL     2      -7.677  11.843  67.570  1.00  0.00     0.000 HD 
HETATM    4  O   UNL     2      -8.109  11.655  66.746  1.00  0.00    -0.162 OA 
ENDROOT
BRANCH   2   5
HETATM    5  C   UNL     2     -10.168  11.848  65.473  1.00  0.00    -0.254 C  
HETATM    6  O   UNL     2      -9.546  12.620  64.441  1.00  0.00    -0.526 OA 
HETATM    7  H   UNL     2      -9.978  12.432  63.616  1.00  0.00     0.000 HD 
ENDBRANCH   2   5
BRANCH   2   8
HETATM    8  C   UNL     2      -9.550  13.642  67.225  1.00  0.00    -0.238 C  
HETATM    9  O   UNL     2      -8.393  14.272  66.632  1.00  0.00    -0.412 OA 
HETATM   10  H   UNL     2      -8.440  15.184  66.891  1.00  0.00     0.000 HD 
BRANCH   8  11
HETATM   11  C   UNL     2     -10.874  14.370  66.849  1.00  0.00    -0.301 C  
HETATM   12  O   UNL     2     -10.677  15.286  65.754  1.00  0.00    -0.317 OA 
HETATM   13  H   UNL     2     -11.484  15.730  65.524  1.00  0.00     0.000 HD 
BRANCH  11  14
HETATM   14  C   UNL     2     -11.561  15.099  68.017  1.00  0.00    -0.328 C  
HETATM   15  C   UNL     2     -10.685  16.261  68.566  1.00  0.00    -0.307 C  
HETATM   16  O   UNL     2     -11.904  14.179  69.070  1.00  0.00    -0.308 OA 
HETATM   17  H   UNL     2     -12.328  14.629  69.791  1.00  0.00     0.000 HD 
HETATM   18  O   UNL     2     -10.021  16.880  67.678  1.00  0.00    -0.257 OA 
HETATM   19  O   UNL     2     -10.687  16.365  69.825  1.00  0.00    -0.322 OA 
ENDBRANCH  11  14
ENDBRANCH   8  11
ENDBRANCH   2   8
TORSDOF 4
ENDMDL
MODEL      236
REMARK 921   NORMALIZED FREE ENERGY PREDICTED BY IDOCK:   -3.11 KCAL/MOL
REMARK 922        TOTAL FREE ENERGY PREDICTED BY IDOCK:   -4.85 KCAL/MOL
REMARK 923 INTER-LIGAND FREE ENERGY PREDICTED BY IDOCK:   -4.25 KCAL/MOL
REMARK 924 INTRA-LIGAND FREE ENERGY PREDICTED BY IDOCK:   -0.60 KCAL/MOL
REMARK 927      BINDING AFFINITY PREDICTED BY RF-SCORE:    0.00 PKD
ROOT
HETATM    1  K   UNL     1     -12.108  10.205  67.857  1.00  0.00    -0.499 K  
HETATM    2  C   UNL     2      -9.858   7.373  67.544  1.00  0.00    -0.158 C  
HETATM    3  H   UNL     2     -10.580   9.106  66.927  1.00  0.00     0.000 HD 
HETATM    4  O   UNL     2     -10.751   8.191  66.743  1.00  0.00    -0.278 OA 
ENDROOT
BRANCH   2   5
HETATM    5  C   UNL     2     -10.134   5.897  67.248  1.00  0.00    -0.174 C  
HETATM    6  O   UNL     2     -11.272   5.806  66.384  1.00  0.00    -0.743 OA 
HETATM    7  H   UNL     2     -11.443   4.891  66.200  1.00  0.00     0.000 HD 
ENDBRANCH   2   5
BRANCH   2   8
HETATM    8  C   UNL     2      -9.906   7.731  69.052  1.00  0.00    -0.169 C  
HETATM    9  O   UNL     2      -8.781   7.047  69.647  1.00  0.00    -0.140 OA 
HETATM   10  H   UNL     2      -8.811   7.266  70.570  1.00  0.00     0.000 HD 
BRANCH   8  11
HETATM   11  C   UNL     2      -9.904   9.256  69.372  1.00  0.00    -0.174 C  
HETATM   12  O   UNL     2      -8.574   9.730  69.658  1.00  0.00    -0.158 OA 
HETATM   13  H   UNL     2      -8.572  10.660  69.853  1.00  0.00     0.000 HD 
BRANCH  11  14
HETATM   14  C   UNL     2     -10.858   9.675  70.504  1.00  0.00    -0.309 C  
HETATM   15  C   UNL     2     -10.449   9.047  71.866  1.00  0.00    -0.303 C  
HETATM   16  O   UNL     2     -12.222   9.345  70.180  1.00  0.00    -0.453 OA 
HETATM   17  H   UNL     2     -12.811   9.604  70.878  1.00  0.00     0.000 HD 
HETATM   18  O   UNL     2      -9.195   8.946  72.040  1.00  0.00    -0.348 OA 
HETATM   19  O   UNL     2     -11.420   8.642  72.565  1.00  0.00    -0.348 OA 
ENDBRANCH  11  14
ENDBRANCH   8  11
ENDBRANCH   2   8
TORSDOF 4
ENDMDL
MODEL      237
REMARK 921   NORMALIZED FREE ENERGY PREDICTED BY IDOCK:   -3.11 KCAL/MOL
REMARK 922        TOTAL FREE ENERGY PREDICTED BY IDOCK:   -4.85 KCAL/MOL
REMARK 923 INTER-LIGAND FREE ENERGY PREDICTED BY IDOCK:   -3.65 KCAL/MOL
REMARK 924 INTRA-LIGAND FREE ENERGY PREDICTED BY IDOCK:   -1.20 KCAL/MOL
REMARK 927      BINDING AFFINITY PREDICTED BY RF-SCORE:    0.00 PKD
ROOT
HETATM    1  K   UNL     1     -10.297   6.175  67.484  1.00  0.00    -0.125 K  
HETATM    2  C   UNL     2     -11.357   7.459  70.710  1.00  0.00    -0.280 C  
HETATM    3  H   UNL     2     -10.272   6.253  69.582  1.00  0.00     0.000 HD 
HETATM    4  O   UNL     2     -11.108   6.201  70.029  1.00  0.00    -0.332 OA 
ENDROOT
BRANCH   2   5
HETATM    5  C   UNL     2     -12.704   7.377  71.432  1.00  0.00    -0.369 C  
HETATM    6  O   UNL     2     -12.571   7.979  72.724  1.00  0.00    -0.592 OA 
HETATM    7  H   UNL     2     -13.407   7.927  73.172  1.00  0.00     0.000 HD 
ENDBRANCH   2   5
BRANCH   2   8
HETATM    8  C   UNL     2     -11.222   8.686  69.771  1.00  0.00     0.016 C  
HETATM    9  O   UNL     2     -12.192   9.646  70.248  1.00  0.00    -0.469 OA 
HETATM   10  H   UNL     2     -12.109  10.397  69.674  1.00  0.00     0.000 HD 
BRANCH   8  11
HETATM   11  C   UNL     2      -9.791   9.295  69.677  1.00  0.00    -0.186 C  
HETATM   12  O   UNL     2      -9.827  10.734  69.735  1.00  0.00    -0.429 OA 
HETATM   13  H   UNL     2      -8.954  11.105  69.677  1.00  0.00     0.000 HD 
BRANCH  11  14
HETATM   14  C   UNL     2      -8.982   8.845  68.448  1.00  0.00    -0.134 C  
HETATM   15  C   UNL     2      -9.742   9.129  67.122  1.00  0.00    -0.182 C  
HETATM   16  O   UNL     2      -8.626   7.453  68.544  1.00  0.00    -0.128 OA 
HETATM   17  H   UNL     2      -8.126   7.176  67.785  1.00  0.00     0.000 HD 
HETATM   18  O   UNL     2     -10.425  10.200  67.129  1.00  0.00    -0.224 OA 
HETATM   19  O   UNL     2      -9.648   8.210  66.261  1.00  0.00    -0.217 OA 
ENDBRANCH  11  14
ENDBRANCH   8  11
ENDBRANCH   2   8
TORSDOF 4
ENDMDL
MODEL      238
REMARK 921   NORMALIZED FREE ENERGY PREDICTED BY IDOCK:   -3.10 KCAL/MOL
REMARK 922        TOTAL FREE ENERGY PREDICTED BY IDOCK:   -4.83 KCAL/MOL
REMARK 923 INTER-LIGAND FREE ENERGY PREDICTED BY IDOCK:   -4.20 KCAL/MOL
REMARK 924 INTRA-LIGAND FREE ENERGY PREDICTED BY IDOCK:   -0.63 KCAL/MOL
REMARK 927      BINDING AFFINITY PREDICTED BY RF-SCORE:    0.00 PKD
ROOT
HETATM    1  K   UNL     1     -11.273   7.135  66.523  1.00  0.00    -0.332 K  
HETATM    2  C   UNL     2     -10.421   9.583  69.066  1.00  0.00    -0.213 C  
HETATM    3  H   UNL     2      -9.992   8.024  67.929  1.00  0.00     0.000 HD 
HETATM    4  O   UNL     2     -10.332   8.157  68.805  1.00  0.00    -0.205 OA 
ENDROOT
BRANCH   2   5
HETATM    5  C   UNL     2     -10.969   9.797  70.479  1.00  0.00    -0.321 C  
HETATM    6  O   UNL     2     -12.144   8.996  70.643  1.00  0.00    -0.461 OA 
HETATM    7  H   UNL     2     -12.485   9.129  71.519  1.00  0.00     0.000 HD 
ENDBRANCH   2   5
BRANCH   2   8
HETATM    8  C   UNL     2     -11.203  10.346  67.966  1.00  0.00    -0.272 C  
HETATM    9  O   UNL     2     -12.435  10.769  68.592  1.00  0.00    -0.793 OA 
HETATM   10  H   UNL     2     -12.914  11.237  67.919  1.00  0.00     0.000 HD 
BRANCH   8  11
HETATM   11  C   UNL     2     -10.438  11.535  67.312  1.00  0.00    -0.212 C  
HETATM   12  O   UNL     2      -9.421  11.069  66.404  1.00  0.00    -0.184 OA 
HETATM   13  H   UNL     2      -8.954  11.794  66.005  1.00  0.00     0.000 HD 
BRANCH  11  14
HETATM   14  C   UNL     2      -9.825  12.531  68.311  1.00  0.00    -0.227 C  
HETATM   15  C   UNL     2     -10.676  13.827  68.428  1.00  0.00    -0.254 C  
HETATM   16  O   UNL     2      -8.465  12.846  67.960  1.00  0.00    -0.159 OA 
HETATM   17  H   UNL     2      -8.086  13.461  68.577  1.00  0.00     0.000 HD 
HETATM   18  O   UNL     2     -11.929  13.640  68.339  1.00  0.00    -0.355 OA 
HETATM   19  O   UNL     2      -9.999  14.891  68.500  1.00  0.00    -0.211 OA 
ENDBRANCH  11  14
ENDBRANCH   8  11
ENDBRANCH   2   8
TORSDOF 4
ENDMDL
MODEL      239
REMARK 921   NORMALIZED FREE ENERGY PREDICTED BY IDOCK:   -3.10 KCAL/MOL
REMARK 922        TOTAL FREE ENERGY PREDICTED BY IDOCK:   -4.83 KCAL/MOL
REMARK 923 INTER-LIGAND FREE ENERGY PREDICTED BY IDOCK:   -4.19 KCAL/MOL
REMARK 924 INTRA-LIGAND FREE ENERGY PREDICTED BY IDOCK:   -0.64 KCAL/MOL
REMARK 927      BINDING AFFINITY PREDICTED BY RF-SCORE:    0.00 PKD
ROOT
HETATM    1  K   UNL     1     -10.978  13.520  70.518  1.00  0.00    -0.473 K  
HETATM    2  C   UNL     2     -12.514  10.250  70.886  1.00  0.00    -0.370 C  
HETATM    3  H   UNL     2     -12.580  12.167  70.407  1.00  0.00     0.000 HD 
HETATM    4  O   UNL     2     -12.768  11.650  71.180  1.00  0.00    -0.381 OA 
ENDROOT
BRANCH   2   5
HETATM    5  C   UNL     2     -12.817   9.416  72.133  1.00  0.00    -0.401 C  
HETATM    6  O   UNL     2     -14.096   8.793  71.971  1.00  0.00    -0.423 OA 
HETATM    7  H   UNL     2     -14.284   8.276  72.744  1.00  0.00     0.000 HD 
ENDBRANCH   2   5
BRANCH   2   8
HETATM    8  C   UNL     2     -11.101  10.008  70.296  1.00  0.00    -0.318 C  
HETATM    9  O   UNL     2     -10.566   8.881  71.027  1.00  0.00    -0.212 OA 
HETATM   10  H   UNL     2      -9.701   8.733  70.666  1.00  0.00     0.000 HD 
BRANCH   8  11
HETATM   11  C   UNL     2     -11.054   9.785  68.755  1.00  0.00    -0.095 C  
HETATM   12  O   UNL     2      -9.976   8.904  68.385  1.00  0.00    -0.166 OA 
HETATM   13  H   UNL     2      -9.948   8.768  67.445  1.00  0.00     0.000 HD 
BRANCH  11  14
HETATM   14  C   UNL     2     -10.979  11.077  67.922  1.00  0.00    -0.264 C  
HETATM   15  C   UNL     2      -9.691  11.890  68.236  1.00  0.00    -0.200 C  
HETATM   16  O   UNL     2     -12.153  11.887  68.115  1.00  0.00    -0.516 OA 
HETATM   17  H   UNL     2     -12.106  12.684  67.600  1.00  0.00     0.000 HD 
HETATM   18  O   UNL     2      -8.667  11.178  68.477  1.00  0.00    -0.150 OA 
HETATM   19  O   UNL     2      -9.867  13.140  68.299  1.00  0.00    -0.223 OA 
ENDBRANCH  11  14
ENDBRANCH   8  11
ENDBRANCH   2   8
TORSDOF 4
ENDMDL
MODEL      240
REMARK 921   NORMALIZED FREE ENERGY PREDICTED BY IDOCK:   -3.09 KCAL/MOL
REMARK 922        TOTAL FREE ENERGY PREDICTED BY IDOCK:   -4.82 KCAL/MOL
REMARK 923 INTER-LIGAND FREE ENERGY PREDICTED BY IDOCK:   -3.78 KCAL/MOL
REMARK 924 INTRA-LIGAND FREE ENERGY PREDICTED BY IDOCK:   -1.04 KCAL/MOL
REMARK 927      BINDING AFFINITY PREDICTED BY RF-SCORE:    0.00 PKD
ROOT
HETATM    1  K   UNL     1      -9.138  11.733  69.278  1.00  0.00    -0.323 K  
HETATM    2  C   UNL     2      -8.816  14.431  66.868  1.00  0.00    -0.223 C  
HETATM    3  H   UNL     2      -8.587  12.548  67.422  1.00  0.00     0.000 HD 
HETATM    4  O   UNL     2      -8.053  13.332  67.433  1.00  0.00    -0.169 OA 
ENDROOT
BRANCH   2   5
HETATM    5  C   UNL     2      -7.956  15.696  66.885  1.00  0.00    -0.243 C  
HETATM    6  O   UNL     2      -7.692  16.056  68.245  1.00  0.00    -0.136 OA 
HETATM    7  H   UNL     2      -7.159  16.841  68.255  1.00  0.00     0.000 HD 
ENDBRANCH   2   5
BRANCH   2   8
HETATM    8  C   UNL     2     -10.202  14.605  67.541  1.00  0.00    -0.225 C  
HETATM    9  O   UNL     2     -10.489  16.021  67.474  1.00  0.00    -0.284 OA 
HETATM   10  H   UNL     2     -11.337  16.127  67.886  1.00  0.00     0.000 HD 
BRANCH   8  11
HETATM   11  C   UNL     2     -11.349  13.744  66.933  1.00  0.00    -0.328 C  
HETATM   12  O   UNL     2     -12.508  14.547  66.636  1.00  0.00    -0.494 OA 
HETATM   13  H   UNL     2     -13.207  14.022  66.265  1.00  0.00     0.000 HD 
BRANCH  11  14
HETATM   14  C   UNL     2     -11.762  12.531  67.784  1.00  0.00    -0.359 C  
HETATM   15  C   UNL     2     -12.006  12.925  69.268  1.00  0.00    -0.260 C  
HETATM   16  O   UNL     2     -10.786  11.477  67.691  1.00  0.00    -0.193 OA 
HETATM   17  H   UNL     2     -11.041  10.728  68.217  1.00  0.00     0.000 HD 
HETATM   18  O   UNL     2     -12.527  14.073  69.426  1.00  0.00    -0.283 OA 
HETATM   19  O   UNL     2     -11.568  12.089  70.108  1.00  0.00    -0.261 OA 
ENDBRANCH  11  14
ENDBRANCH   8  11
ENDBRANCH   2   8
TORSDOF 4
ENDMDL
MODEL      241
REMARK 921   NORMALIZED FREE ENERGY PREDICTED BY IDOCK:   -3.07 KCAL/MOL
REMARK 922        TOTAL FREE ENERGY PREDICTED BY IDOCK:   -4.80 KCAL/MOL
REMARK 923 INTER-LIGAND FREE ENERGY PREDICTED BY IDOCK:   -4.32 KCAL/MOL
REMARK 924 INTRA-LIGAND FREE ENERGY PREDICTED BY IDOCK:   -0.47 KCAL/MOL
REMARK 927      BINDING AFFINITY PREDICTED BY RF-SCORE:    0.00 PKD
ROOT
HETATM    1  K   UNL     1     -11.673  17.169  68.486  1.00  0.00    -0.256 K  
HETATM    2  C   UNL     2      -8.135  16.371  68.323  1.00  0.00    -0.171 C  
HETATM    3  H   UNL     2      -9.999  15.946  68.821  1.00  0.00     0.000 HD 
HETATM    4  O   UNL     2      -9.251  16.342  69.251  1.00  0.00    -0.250 OA 
ENDROOT
BRANCH   2   5
HETATM    5  C   UNL     2      -6.928  17.008  69.016  1.00  0.00    -0.229 C  
HETATM    6  O   UNL     2      -7.187  18.404  69.202  1.00  0.00    -0.263 OA 
HETATM    7  H   UNL     2      -6.438  18.799  69.631  1.00  0.00     0.000 HD 
ENDBRANCH   2   5
BRANCH   2   8
HETATM    8  C   UNL     2      -8.500  17.029  66.967  1.00  0.00    -0.210 C  
HETATM    9  O   UNL     2      -8.431  15.965  65.991  1.00  0.00    -0.311 OA 
HETATM   10  H   UNL     2      -8.654  16.368  65.161  1.00  0.00     0.000 HD 
BRANCH   8  11
HETATM   11  C   UNL     2      -9.871  17.768  66.936  1.00  0.00    -0.312 C  
HETATM   12  O   UNL     2     -10.470  17.708  65.626  1.00  0.00    -0.606 OA 
HETATM   13  H   UNL     2     -11.306  18.158  65.607  1.00  0.00     0.000 HD 
BRANCH  11  14
HETATM   14  C   UNL     2      -9.825  19.227  67.419  1.00  0.00    -0.336 C  
HETATM   15  C   UNL     2      -8.607  19.992  66.828  1.00  0.00    -0.331 C  
HETATM   16  O   UNL     2      -9.821  19.296  68.857  1.00  0.00    -0.422 OA 
HETATM   17  H   UNL     2      -9.793  20.198  69.156  1.00  0.00     0.000 HD 
HETATM   18  O   UNL     2      -8.310  19.663  65.638  1.00  0.00    -0.385 OA 
HETATM   19  O   UNL     2      -8.030  20.764  67.645  1.00  0.00    -0.242 OA 
ENDBRANCH  11  14
ENDBRANCH   8  11
ENDBRANCH   2   8
TORSDOF 4
ENDMDL
MODEL      242
REMARK 921   NORMALIZED FREE ENERGY PREDICTED BY IDOCK:   -3.07 KCAL/MOL
REMARK 922        TOTAL FREE ENERGY PREDICTED BY IDOCK:   -4.80 KCAL/MOL
REMARK 923 INTER-LIGAND FREE ENERGY PREDICTED BY IDOCK:   -4.56 KCAL/MOL
REMARK 924 INTRA-LIGAND FREE ENERGY PREDICTED BY IDOCK:   -0.24 KCAL/MOL
REMARK 927      BINDING AFFINITY PREDICTED BY RF-SCORE:    0.00 PKD
ROOT
HETATM    1  K   UNL     1      -9.271  12.664  63.749  1.00  0.00    -0.510 K  
HETATM    2  C   UNL     2     -11.805  14.140  65.890  1.00  0.00    -0.384 C  
HETATM    3  H   UNL     2     -10.656  14.149  64.282  1.00  0.00     0.000 HD 
HETATM    4  O   UNL     2     -10.601  14.500  65.163  1.00  0.00    -0.356 OA 
ENDROOT
BRANCH   2   5
HETATM    5  C   UNL     2     -11.718  14.704  67.310  1.00  0.00    -0.385 C  
HETATM    6  O   UNL     2     -10.618  15.619  67.374  1.00  0.00    -0.289 OA 
HETATM    7  H   UNL     2     -10.563  15.969  68.255  1.00  0.00     0.000 HD 
ENDBRANCH   2   5
BRANCH   2   8
HETATM    8  C   UNL     2     -12.106  12.619  65.837  1.00  0.00    -0.396 C  
HETATM    9  O   UNL     2     -11.760  12.205  64.496  1.00  0.00    -0.345 OA 
HETATM   10  H   UNL     2     -11.944  11.274  64.463  1.00  0.00     0.000 HD 
BRANCH   8  11
HETATM   11  C   UNL     2     -11.387  11.762  66.921  1.00  0.00    -0.320 C  
HETATM   12  O   UNL     2     -12.134  11.739  68.152  1.00  0.00    -0.556 OA 
HETATM   13  H   UNL     2     -11.695  11.216  68.814  1.00  0.00     0.000 HD 
BRANCH  11  14
HETATM   14  C   UNL     2      -9.932  12.173  67.203  1.00  0.00    -0.200 C  
HETATM   15  C   UNL     2      -8.918  11.214  66.518  1.00  0.00    -0.178 C  
HETATM   16  O   UNL     2      -9.681  12.252  68.619  1.00  0.00    -0.347 OA 
HETATM   17  H   UNL     2      -8.783  12.506  68.793  1.00  0.00     0.000 HD 
HETATM   18  O   UNL     2      -9.292  10.781  65.384  1.00  0.00    -0.187 OA 
HETATM   19  O   UNL     2      -7.911  10.928  67.225  1.00  0.00    -0.110 OA 
ENDBRANCH  11  14
ENDBRANCH   8  11
ENDBRANCH   2   8
TORSDOF 4
ENDMDL
MODEL      243
REMARK 921   NORMALIZED FREE ENERGY PREDICTED BY IDOCK:   -3.07 KCAL/MOL
REMARK 922        TOTAL FREE ENERGY PREDICTED BY IDOCK:   -4.80 KCAL/MOL
REMARK 923 INTER-LIGAND FREE ENERGY PREDICTED BY IDOCK:   -4.50 KCAL/MOL
REMARK 924 INTRA-LIGAND FREE ENERGY PREDICTED BY IDOCK:   -0.30 KCAL/MOL
REMARK 927      BINDING AFFINITY PREDICTED BY RF-SCORE:    0.00 PKD
ROOT
HETATM    1  K   UNL     1      -9.759  13.176  69.562  1.00  0.00    -0.386 K  
HETATM    2  C   UNL     2     -10.884  12.775  66.133  1.00  0.00    -0.279 C  
HETATM    3  H   UNL     2     -10.001  13.802  67.572  1.00  0.00     0.000 HD 
HETATM    4  O   UNL     2     -10.875  13.755  67.204  1.00  0.00    -0.279 OA 
ENDROOT
BRANCH   2   5
HETATM    5  C   UNL     2     -12.292  12.699  65.539  1.00  0.00    -0.391 C  
HETATM    6  O   UNL     2     -12.450  13.761  64.592  1.00  0.00    -0.548 OA 
HETATM    7  H   UNL     2     -13.324  13.714  64.223  1.00  0.00     0.000 HD 
ENDBRANCH   2   5
BRANCH   2   8
HETATM    8  C   UNL     2     -10.312  11.401  66.571  1.00  0.00    -0.236 C  
HETATM    9  O   UNL     2      -8.947  11.661  66.970  1.00  0.00    -0.170 OA 
HETATM   10  H   UNL     2      -8.597  10.821  67.239  1.00  0.00     0.000 HD 
BRANCH   8  11
HETATM   11  C   UNL     2     -11.121  10.671  67.685  1.00  0.00    -0.319 C  
HETATM   12  O   UNL     2     -12.280  11.432  68.077  1.00  0.00    -0.607 OA 
HETATM   13  H   UNL     2     -12.773  10.987  68.756  1.00  0.00     0.000 HD 
BRANCH  11  14
HETATM   14  C   UNL     2     -10.301  10.294  68.931  1.00  0.00    -0.204 C  
HETATM   15  C   UNL     2     -10.411   8.778  69.256  1.00  0.00    -0.219 C  
HETATM   16  O   UNL     2     -10.691  11.089  70.067  1.00  0.00    -0.461 OA 
HETATM   17  H   UNL     2     -10.184  10.856  70.836  1.00  0.00     0.000 HD 
HETATM   18  O   UNL     2     -10.475   8.027  68.234  1.00  0.00    -0.204 OA 
HETATM   19  O   UNL     2     -10.515   8.515  70.488  1.00  0.00    -0.196 OA 
ENDBRANCH  11  14
ENDBRANCH   8  11
ENDBRANCH   2   8
TORSDOF 4
ENDMDL
MODEL      244
REMARK 921   NORMALIZED FREE ENERGY PREDICTED BY IDOCK:   -3.07 KCAL/MOL
REMARK 922        TOTAL FREE ENERGY PREDICTED BY IDOCK:   -4.79 KCAL/MOL
REMARK 923 INTER-LIGAND FREE ENERGY PREDICTED BY IDOCK:   -4.10 KCAL/MOL
REMARK 924 INTRA-LIGAND FREE ENERGY PREDICTED BY IDOCK:   -0.70 KCAL/MOL
REMARK 927      BINDING AFFINITY PREDICTED BY RF-SCORE:    0.00 PKD
ROOT
HETATM    1  K   UNL     1     -13.425  12.042  63.698  1.00  0.00    -0.634 K  
HETATM    2  C   UNL     2      -9.812  11.784  63.945  1.00  0.00    -0.274 C  
HETATM    3  H   UNL     2     -11.459  12.492  63.113  1.00  0.00     0.000 HD 
HETATM    4  O   UNL     2     -10.874  11.761  62.955  1.00  0.00    -0.246 OA 
ENDROOT
BRANCH   2   5
HETATM    5  C   UNL     2      -8.868  10.606  63.690  1.00  0.00    -0.177 C  
HETATM    6  O   UNL     2      -8.143  10.851  62.480  1.00  0.00    -0.290 OA 
HETATM    7  H   UNL     2      -7.558  10.120  62.321  1.00  0.00     0.000 HD 
ENDBRANCH   2   5
BRANCH   2   8
HETATM    8  C   UNL     2     -10.348  11.856  65.398  1.00  0.00    -0.267 C  
HETATM    9  O   UNL     2      -9.678  10.791  66.110  1.00  0.00    -0.193 OA 
HETATM   10  H   UNL     2     -10.006  10.835  66.999  1.00  0.00     0.000 HD 
BRANCH   8  11
HETATM   11  C   UNL     2     -10.173  13.234  66.103  1.00  0.00    -0.296 C  
HETATM   12  O   UNL     2      -9.829  14.267  65.158  1.00  0.00    -0.554 OA 
HETATM   13  H   UNL     2      -9.722  15.107  65.588  1.00  0.00     0.000 HD 
BRANCH  11  14
HETATM   14  C   UNL     2      -9.165  13.237  67.265  1.00  0.00    -0.222 C  
HETATM   15  C   UNL     2      -9.152  14.601  68.012  1.00  0.00    -0.189 C  
HETATM   16  O   UNL     2      -7.844  12.895  66.806  1.00  0.00    -0.399 OA 
HETATM   17  H   UNL     2      -7.222  12.897  67.525  1.00  0.00     0.000 HD 
HETATM   18  O   UNL     2     -10.288  15.162  68.099  1.00  0.00    -0.234 OA 
HETATM   19  O   UNL     2      -8.001  15.002  68.345  1.00  0.00    -0.122 OA 
ENDBRANCH  11  14
ENDBRANCH   8  11
ENDBRANCH   2   8
TORSDOF 4
ENDMDL
MODEL      245
REMARK 921   NORMALIZED FREE ENERGY PREDICTED BY IDOCK:   -3.07 KCAL/MOL
REMARK 922        TOTAL FREE ENERGY PREDICTED BY IDOCK:   -4.79 KCAL/MOL
REMARK 923 INTER-LIGAND FREE ENERGY PREDICTED BY IDOCK:   -4.17 KCAL/MOL
REMARK 924 INTRA-LIGAND FREE ENERGY PREDICTED BY IDOCK:   -0.63 KCAL/MOL
REMARK 927      BINDING AFFINITY PREDICTED BY RF-SCORE:    0.00 PKD
ROOT
HETATM    1  K   UNL     1     -10.294  19.599  69.828  1.00  0.00    -0.464 K  
HETATM    2  C   UNL     2      -6.846  19.497  68.694  1.00  0.00    -0.308 C  
HETATM    3  H   UNL     2      -8.232  19.939  70.032  1.00  0.00     0.000 HD 
HETATM    4  O   UNL     2      -7.795  20.398  69.325  1.00  0.00     0.344 OA 
ENDROOT
BRANCH   2   5
HETATM    5  C   UNL     2      -6.140  20.235  67.555  1.00  0.00    -0.206 C  
HETATM    6  O   UNL     2      -6.940  21.359  67.169  1.00  0.00    -0.717 OA 
HETATM    7  H   UNL     2      -6.502  21.817  66.463  1.00  0.00     0.000 HD 
ENDBRANCH   2   5
BRANCH   2   8
HETATM    8  C   UNL     2      -7.489  18.152  68.268  1.00  0.00    -0.274 C  
HETATM    9  O   UNL     2      -7.103  17.200  69.285  1.00  0.00    -0.235 OA 
HETATM   10  H   UNL     2      -7.496  16.377  69.023  1.00  0.00     0.000 HD 
BRANCH   8  11
HETATM   11  C   UNL     2      -9.032  18.192  68.056  1.00  0.00    -0.283 C  
HETATM   12  O   UNL     2      -9.705  17.258  68.922  1.00  0.00    -0.275 OA 
HETATM   13  H   UNL     2     -10.646  17.282  68.792  1.00  0.00     0.000 HD 
BRANCH  11  14
HETATM   14  C   UNL     2      -9.486  17.972  66.602  1.00  0.00    -0.297 C  
HETATM   15  C   UNL     2     -10.095  19.264  65.988  1.00  0.00    -0.387 C  
HETATM   16  O   UNL     2     -10.416  16.877  66.510  1.00  0.00    -0.305 OA 
HETATM   17  H   UNL     2     -10.696  16.741  65.613  1.00  0.00     0.000 HD 
HETATM   18  O   UNL     2      -9.536  20.339  66.368  1.00  0.00    -0.359 OA 
HETATM   19  O   UNL     2     -11.117  19.069  65.272  1.00  0.00    -0.401 OA 
ENDBRANCH  11  14
ENDBRANCH   8  11
ENDBRANCH   2   8
TORSDOF 4
ENDMDL
MODEL      246
REMARK 921   NORMALIZED FREE ENERGY PREDICTED BY IDOCK:   -3.06 KCAL/MOL
REMARK 922        TOTAL FREE ENERGY PREDICTED BY IDOCK:   -4.78 KCAL/MOL
REMARK 923 INTER-LIGAND FREE ENERGY PREDICTED BY IDOCK:   -4.20 KCAL/MOL
REMARK 924 INTRA-LIGAND FREE ENERGY PREDICTED BY IDOCK:   -0.58 KCAL/MOL
REMARK 927      BINDING AFFINITY PREDICTED BY RF-SCORE:    0.00 PKD
ROOT
HETATM    1  K   UNL     1      -9.261   9.540  72.749  1.00  0.00     0.068 K  
HETATM    2  C   UNL     2     -12.585   9.001  71.390  1.00  0.00    -0.311 C  
HETATM    3  H   UNL     2     -10.844   9.936  71.427  1.00  0.00     0.000 HD 
HETATM    4  O   UNL     2     -11.703  10.077  71.807  1.00  0.00    -0.293 OA 
ENDROOT
BRANCH   2   5
HETATM    5  C   UNL     2     -13.970   9.227  72.001  1.00  0.00    -0.327 C  
HETATM    6  O   UNL     2     -13.859   9.166  73.427  1.00  0.00    -1.055 OA 
HETATM    7  H   UNL     2     -14.718   9.306  73.806  1.00  0.00     0.000 HD 
ENDBRANCH   2   5
BRANCH   2   8
HETATM    8  C   UNL     2     -11.994   7.596  71.676  1.00  0.00    -0.299 C  
HETATM    9  O   UNL     2     -13.134   6.716  71.797  1.00  0.00    -0.366 OA 
HETATM   10  H   UNL     2     -12.772   5.856  71.972  1.00  0.00     0.000 HD 
BRANCH   8  11
HETATM   11  C   UNL     2     -10.963   7.083  70.626  1.00  0.00    -0.260 C  
HETATM   12  O   UNL     2     -11.621   6.573  69.451  1.00  0.00    -0.619 OA 
HETATM   13  H   UNL     2     -10.992   6.260  68.811  1.00  0.00     0.000 HD 
BRANCH  11  14
HETATM   14  C   UNL     2      -9.970   6.038  71.161  1.00  0.00    -0.186 C  
HETATM   15  C   UNL     2      -8.496   6.446  70.878  1.00  0.00    -0.131 C  
HETATM   16  O   UNL     2     -10.249   4.733  70.620  1.00  0.00    -0.230 OA 
HETATM   17  H   UNL     2      -9.636   4.088  70.950  1.00  0.00     0.000 HD 
HETATM   18  O   UNL     2      -8.274   7.694  70.957  1.00  0.00    -0.104 OA 
HETATM   19  O   UNL     2      -7.750   5.491  70.520  1.00  0.00    -0.088 OA 
ENDBRANCH  11  14
ENDBRANCH   8  11
ENDBRANCH   2   8
TORSDOF 4
ENDMDL
MODEL      247
REMARK 921   NORMALIZED FREE ENERGY PREDICTED BY IDOCK:   -3.05 KCAL/MOL
REMARK 922        TOTAL FREE ENERGY PREDICTED BY IDOCK:   -4.78 KCAL/MOL
REMARK 923 INTER-LIGAND FREE ENERGY PREDICTED BY IDOCK:   -4.13 KCAL/MOL
REMARK 924 INTRA-LIGAND FREE ENERGY PREDICTED BY IDOCK:   -0.65 KCAL/MOL
REMARK 927      BINDING AFFINITY PREDICTED BY RF-SCORE:    0.00 PKD
ROOT
HETATM    1  K   UNL     1      -8.229  13.262  69.340  1.00  0.00    -0.323 K  
HETATM    2  C   UNL     2      -9.927  14.759  66.501  1.00  0.00    -0.271 C  
HETATM    3  H   UNL     2      -8.304  14.101  67.417  1.00  0.00     0.000 HD 
HETATM    4  O   UNL     2      -8.743  14.937  67.323  1.00  0.00    -0.182 OA 
ENDROOT
BRANCH   2   5
HETATM    5  C   UNL     2     -10.635  16.107  66.349  1.00  0.00    -0.269 C  
HETATM    6  O   UNL     2     -11.117  16.226  65.006  1.00  0.00    -0.371 OA 
HETATM    7  H   UNL     2     -11.556  17.062  64.912  1.00  0.00     0.000 HD 
ENDBRANCH   2   5
BRANCH   2   8
HETATM    8  C   UNL     2     -10.846  13.620  67.012  1.00  0.00    -0.286 C  
HETATM    9  O   UNL     2     -12.187  14.157  66.967  1.00  0.00    -0.498 OA 
HETATM   10  H   UNL     2     -12.750  13.460  67.280  1.00  0.00     0.000 HD 
BRANCH   8  11
HETATM   11  C   UNL     2     -10.727  12.273  66.238  1.00  0.00    -0.259 C  
HETATM   12  O   UNL     2     -12.000  11.858  65.707  1.00  0.00    -0.451 OA 
HETATM   13  H   UNL     2     -11.928  11.036  65.236  1.00  0.00     0.000 HD 
BRANCH  11  14
HETATM   14  C   UNL     2     -10.101  11.123  67.045  1.00  0.00    -0.200 C  
HETATM   15  C   UNL     2      -9.979   9.824  66.198  1.00  0.00    -0.268 C  
HETATM   16  O   UNL     2     -10.843  10.874  68.254  1.00  0.00    -0.192 OA 
HETATM   17  H   UNL     2     -10.456  10.164  68.752  1.00  0.00     0.000 HD 
HETATM   18  O   UNL     2      -9.703  10.022  64.974  1.00  0.00    -0.289 OA 
HETATM   19  O   UNL     2     -10.262   8.765  66.825  1.00  0.00    -0.266 OA 
ENDBRANCH  11  14
ENDBRANCH   8  11
ENDBRANCH   2   8
TORSDOF 4
ENDMDL
MODEL      248
REMARK 921   NORMALIZED FREE ENERGY PREDICTED BY IDOCK:   -3.05 KCAL/MOL
REMARK 922        TOTAL FREE ENERGY PREDICTED BY IDOCK:   -4.78 KCAL/MOL
REMARK 923 INTER-LIGAND FREE ENERGY PREDICTED BY IDOCK:   -3.87 KCAL/MOL
REMARK 924 INTRA-LIGAND FREE ENERGY PREDICTED BY IDOCK:   -0.91 KCAL/MOL
REMARK 927      BINDING AFFINITY PREDICTED BY RF-SCORE:    0.00 PKD
ROOT
HETATM    1  K   UNL     1      -7.245   7.449  69.148  1.00  0.00    -0.063 K  
HETATM    2  C   UNL     2      -9.959   7.646  71.553  1.00  0.00    -0.173 C  
HETATM    3  H   UNL     2      -8.087   7.964  71.002  1.00  0.00     0.000 HD 
HETATM    4  O   UNL     2      -8.555   7.284  71.471  1.00  0.00    -0.117 OA 
ENDROOT
BRANCH   2   5
HETATM    5  C   UNL     2     -10.713   6.551  72.310  1.00  0.00    -0.223 C  
HETATM    6  O   UNL     2     -11.226   7.102  73.528  1.00  0.00    -0.561 OA 
HETATM    7  H   UNL     2     -11.693   6.423  73.998  1.00  0.00     0.000 HD 
ENDBRANCH   2   5
BRANCH   2   8
HETATM    8  C   UNL     2     -10.571   7.990  70.171  1.00  0.00    -0.237 C  
HETATM    9  O   UNL     2     -11.974   7.661  70.278  1.00  0.00    -0.491 OA 
HETATM   10  H   UNL     2     -12.349   7.871  69.431  1.00  0.00     0.000 HD 
BRANCH   8  11
HETATM   11  C   UNL     2     -10.346   9.455  69.690  1.00  0.00    -0.216 C  
HETATM   12  O   UNL     2      -9.258  10.078  70.399  1.00  0.00    -0.364 OA 
HETATM   13  H   UNL     2      -9.121  10.972  70.106  1.00  0.00     0.000 HD 
BRANCH  11  14
HETATM   14  C   UNL     2     -11.594  10.352  69.760  1.00  0.00    -0.269 C  
HETATM   15  C   UNL     2     -11.290  11.799  69.279  1.00  0.00    -0.286 C  
HETATM   16  O   UNL     2     -12.149  10.363  71.089  1.00  0.00    -0.348 OA 
HETATM   17  H   UNL     2     -12.920  10.917  71.131  1.00  0.00     0.000 HD 
HETATM   18  O   UNL     2     -10.458  11.869  68.322  1.00  0.00    -0.192 OA 
HETATM   19  O   UNL     2     -11.842  12.704  69.967  1.00  0.00    -0.329 OA 
ENDBRANCH  11  14
ENDBRANCH   8  11
ENDBRANCH   2   8
TORSDOF 4
ENDMDL
MODEL      249
REMARK 921   NORMALIZED FREE ENERGY PREDICTED BY IDOCK:   -3.05 KCAL/MOL
REMARK 922        TOTAL FREE ENERGY PREDICTED BY IDOCK:   -4.77 KCAL/MOL
REMARK 923 INTER-LIGAND FREE ENERGY PREDICTED BY IDOCK:   -4.29 KCAL/MOL
REMARK 924 INTRA-LIGAND FREE ENERGY PREDICTED BY IDOCK:   -0.48 KCAL/MOL
REMARK 927      BINDING AFFINITY PREDICTED BY RF-SCORE:    0.00 PKD
ROOT
HETATM    1  K   UNL     1      -8.323  11.117  64.056  1.00  0.00    -0.279 K  
HETATM    2  C   UNL     2      -9.013  10.370  67.542  1.00  0.00    -0.135 C  
HETATM    3  H   UNL     2      -8.002  11.303  66.123  1.00  0.00     0.000 HD 
HETATM    4  O   UNL     2      -7.898  10.502  66.622  1.00  0.00    -0.116 OA 
ENDROOT
BRANCH   2   5
HETATM    5  C   UNL     2      -8.844   9.079  68.346  1.00  0.00    -0.134 C  
HETATM    6  O   UNL     2      -7.950   9.328  69.436  1.00  0.00    -0.090 OA 
HETATM    7  H   UNL     2      -7.845   8.527  69.934  1.00  0.00     0.000 HD 
ENDBRANCH   2   5
BRANCH   2   8
HETATM    8  C   UNL     2     -10.389  10.498  66.840  1.00  0.00    -0.239 C  
HETATM    9  O   UNL     2     -11.321   9.784  67.683  1.00  0.00    -0.453 OA 
HETATM   10  H   UNL     2     -12.163   9.862  67.253  1.00  0.00     0.000 HD 
BRANCH   8  11
HETATM   11  C   UNL     2     -10.855  11.956  66.553  1.00  0.00    -0.278 C  
HETATM   12  O   UNL     2     -12.155  12.213  67.120  1.00  0.00    -0.575 OA 
HETATM   13  H   UNL     2     -12.439  13.103  66.945  1.00  0.00     0.000 HD 
BRANCH  11  14
HETATM   14  C   UNL     2     -10.850  12.351  65.066  1.00  0.00    -0.295 C  
HETATM   15  C   UNL     2     -11.716  13.615  64.803  1.00  0.00    -0.377 C  
HETATM   16  O   UNL     2     -11.281  11.256  64.238  1.00  0.00    -0.299 OA 
HETATM   17  H   UNL     2     -11.277  11.500  63.320  1.00  0.00     0.000 HD 
HETATM   18  O   UNL     2     -11.680  14.478  65.733  1.00  0.00    -0.358 OA 
HETATM   19  O   UNL     2     -12.406  13.563  63.745  1.00  0.00    -0.661 OA 
ENDBRANCH  11  14
ENDBRANCH   8  11
ENDBRANCH   2   8
TORSDOF 4
ENDMDL
MODEL      250
REMARK 921   NORMALIZED FREE ENERGY PREDICTED BY IDOCK:   -3.05 KCAL/MOL
REMARK 922        TOTAL FREE ENERGY PREDICTED BY IDOCK:   -4.77 KCAL/MOL
REMARK 923 INTER-LIGAND FREE ENERGY PREDICTED BY IDOCK:   -4.21 KCAL/MOL
REMARK 924 INTRA-LIGAND FREE ENERGY PREDICTED BY IDOCK:   -0.56 KCAL/MOL
REMARK 927      BINDING AFFINITY PREDICTED BY RF-SCORE:    0.00 PKD
ROOT
HETATM    1  K   UNL     1     -13.114  15.377  68.941  1.00  0.00    -0.457 K  
HETATM    2  C   UNL     2     -10.843  14.179  66.374  1.00  0.00    -0.304 C  
HETATM    3  H   UNL     2     -11.219  15.109  68.076  1.00  0.00     0.000 HD 
HETATM    4  O   UNL     2     -11.115  15.363  67.168  1.00  0.00    -0.327 OA 
ENDROOT
BRANCH   2   5
HETATM    5  C   UNL     2     -10.675  14.588  64.909  1.00  0.00    -0.429 C  
HETATM    6  O   UNL     2     -10.891  15.999  64.798  1.00  0.00    -0.638 OA 
HETATM    7  H   UNL     2     -10.787  16.254  63.889  1.00  0.00     0.000 HD 
ENDBRANCH   2   5
BRANCH   2   8
HETATM    8  C   UNL     2     -11.887  13.055  66.596  1.00  0.00    -0.393 C  
HETATM    9  O   UNL     2     -11.789  12.202  65.433  1.00  0.00    -0.375 OA 
HETATM   10  H   UNL     2     -12.429  11.514  65.569  1.00  0.00     0.000 HD 
BRANCH   8  11
HETATM   11  C   UNL     2     -11.732  12.257  67.925  1.00  0.00    -0.347 C  
HETATM   12  O   UNL     2     -11.752  13.133  69.068  1.00  0.00    -0.281 OA 
HETATM   13  H   UNL     2     -11.657  12.646  69.879  1.00  0.00     0.000 HD 
BRANCH  11  14
HETATM   14  C   UNL     2     -10.491  11.349  67.987  1.00  0.00    -0.188 C  
HETATM   15  C   UNL     2     -10.269  10.774  69.415  1.00  0.00    -0.160 C  
HETATM   16  O   UNL     2      -9.317  12.046  67.531  1.00  0.00    -0.172 OA 
HETATM   17  H   UNL     2      -8.551  11.485  67.569  1.00  0.00     0.000 HD 
HETATM   18  O   UNL     2     -11.340  10.503  70.042  1.00  0.00    -0.272 OA 
HETATM   19  O   UNL     2      -9.061  10.745  69.783  1.00  0.00     0.131 OA 
ENDBRANCH  11  14
ENDBRANCH   8  11
ENDBRANCH   2   8
TORSDOF 4
ENDMDL
MODEL      251
REMARK 921   NORMALIZED FREE ENERGY PREDICTED BY IDOCK:   -3.04 KCAL/MOL
REMARK 922        TOTAL FREE ENERGY PREDICTED BY IDOCK:   -4.76 KCAL/MOL
REMARK 923 INTER-LIGAND FREE ENERGY PREDICTED BY IDOCK:   -4.05 KCAL/MOL
REMARK 924 INTRA-LIGAND FREE ENERGY PREDICTED BY IDOCK:   -0.71 KCAL/MOL
REMARK 927      BINDING AFFINITY PREDICTED BY RF-SCORE:    0.00 PKD
ROOT
HETATM    1  K   UNL     1     -12.648  16.049  68.456  1.00  0.00    -0.515 K  
HETATM    2  C   UNL     2      -9.562  17.889  67.930  1.00  0.00    -0.286 C  
HETATM    3  H   UNL     2     -11.246  17.546  68.906  1.00  0.00     0.000 HD 
HETATM    4  O   UNL     2     -10.972  18.114  68.196  1.00  0.00    -0.213 OA 
ENDROOT
BRANCH   2   5
HETATM    5  C   UNL     2      -9.120  18.804  66.786  1.00  0.00    -0.312 C  
HETATM    6  O   UNL     2     -10.245  19.058  65.938  1.00  0.00    -0.487 OA 
HETATM    7  H   UNL     2      -9.971  19.625  65.228  1.00  0.00     0.000 HD 
ENDBRANCH   2   5
BRANCH   2   8
HETATM    8  C   UNL     2      -9.225  16.393  67.704  1.00  0.00    -0.199 C  
HETATM    9  O   UNL     2      -7.822  16.260  68.026  1.00  0.00    -0.145 OA 
HETATM   10  H   UNL     2      -7.616  15.344  67.887  1.00  0.00     0.000 HD 
BRANCH   8  11
HETATM   11  C   UNL     2     -10.108  15.386  68.500  1.00  0.00    -0.213 C  
HETATM   12  O   UNL     2      -9.658  15.256  69.862  1.00  0.00    -0.439 OA 
HETATM   13  H   UNL     2     -10.197  14.641  70.348  1.00  0.00     0.000 HD 
BRANCH  11  14
HETATM   14  C   UNL     2     -10.231  13.993  67.858  1.00  0.00    -0.240 C  
HETATM   15  C   UNL     2     -11.180  13.066  68.670  1.00  0.00    -0.277 C  
HETATM   16  O   UNL     2      -8.938  13.382  67.696  1.00  0.00    -0.181 OA 
HETATM   17  H   UNL     2      -9.014  12.522  67.299  1.00  0.00     0.000 HD 
HETATM   18  O   UNL     2     -12.173  13.662  69.192  1.00  0.00    -0.326 OA 
HETATM   19  O   UNL     2     -10.780  11.872  68.772  1.00  0.00    -0.219 OA 
ENDBRANCH  11  14
ENDBRANCH   8  11
ENDBRANCH   2   8
TORSDOF 4
ENDMDL
MODEL      252
REMARK 921   NORMALIZED FREE ENERGY PREDICTED BY IDOCK:   -3.04 KCAL/MOL
REMARK 922        TOTAL FREE ENERGY PREDICTED BY IDOCK:   -4.76 KCAL/MOL
REMARK 923 INTER-LIGAND FREE ENERGY PREDICTED BY IDOCK:   -4.30 KCAL/MOL
REMARK 924 INTRA-LIGAND FREE ENERGY PREDICTED BY IDOCK:   -0.46 KCAL/MOL
REMARK 927      BINDING AFFINITY PREDICTED BY RF-SCORE:    0.00 PKD
ROOT
HETATM    1  K   UNL     1     -10.672   7.071  65.824  1.00  0.00    -0.414 K  
HETATM    2  C   UNL     2      -8.837   9.669  64.072  1.00  0.00    -0.227 C  
HETATM    3  H   UNL     2      -9.559   7.835  64.215  1.00  0.00     0.000 HD 
HETATM    4  O   UNL     2      -8.736   8.262  64.419  1.00  0.00     0.006 OA 
ENDROOT
BRANCH   2   5
HETATM    5  C   UNL     2      -7.511  10.358  64.401  1.00  0.00    -0.010 C  
HETATM    6  O   UNL     2      -7.103   9.970  65.717  1.00  0.00    -0.103 OA 
HETATM    7  H   UNL     2      -6.281  10.398  65.921  1.00  0.00     0.000 HD 
ENDBRANCH   2   5
BRANCH   2   8
HETATM    8  C   UNL     2     -10.075  10.355  64.704  1.00  0.00    -0.308 C  
HETATM    9  O   UNL     2      -9.617  10.890  65.967  1.00  0.00    -0.193 OA 
HETATM   10  H   UNL     2     -10.375  11.310  66.354  1.00  0.00     0.000 HD 
BRANCH   8  11
HETATM   11  C   UNL     2     -10.757  11.441  63.819  1.00  0.00    -0.403 C  
HETATM   12  O   UNL     2     -10.166  11.494  62.506  1.00  0.00    -0.501 OA 
HETATM   13  H   UNL     2     -10.582  12.156  61.966  1.00  0.00     0.000 HD 
BRANCH  11  14
HETATM   14  C   UNL     2     -10.780  12.850  64.435  1.00  0.00    -0.386 C  
HETATM   15  C   UNL     2     -12.232  13.354  64.666  1.00  0.00    -0.407 C  
HETATM   16  O   UNL     2     -10.040  13.782  63.624  1.00  0.00    -0.039 OA 
HETATM   17  H   UNL     2     -10.055  14.652  64.005  1.00  0.00     0.000 HD 
HETATM   18  O   UNL     2     -13.052  12.448  65.015  1.00  0.00    -0.678 OA 
HETATM   19  O   UNL     2     -12.412  14.572  64.385  1.00  0.00    -0.633 OA 
ENDBRANCH  11  14
ENDBRANCH   8  11
ENDBRANCH   2   8
TORSDOF 4
ENDMDL
MODEL      253
REMARK 921   NORMALIZED FREE ENERGY PREDICTED BY IDOCK:   -3.02 KCAL/MOL
REMARK 922        TOTAL FREE ENERGY PREDICTED BY IDOCK:   -4.74 KCAL/MOL
REMARK 923 INTER-LIGAND FREE ENERGY PREDICTED BY IDOCK:   -4.24 KCAL/MOL
REMARK 924 INTRA-LIGAND FREE ENERGY PREDICTED BY IDOCK:   -0.50 KCAL/MOL
REMARK 927      BINDING AFFINITY PREDICTED BY RF-SCORE:    0.00 PKD
ROOT
HETATM    1  K   UNL     1      -9.226  14.031  64.822  1.00  0.00    -0.510 K  
HETATM    2  C   UNL     2      -8.174  15.961  67.712  1.00  0.00    -0.146 C  
HETATM    3  H   UNL     2      -7.794  14.868  66.110  1.00  0.00     0.000 HD 
HETATM    4  O   UNL     2      -7.896  14.705  67.040  1.00  0.00    -0.174 OA 
ENDROOT
BRANCH   2   5
HETATM    5  C   UNL     2      -8.338  15.699  69.211  1.00  0.00    -0.256 C  
HETATM    6  O   UNL     2      -9.282  14.637  69.391  1.00  0.00    -0.398 OA 
HETATM    7  H   UNL     2      -9.384  14.474  70.321  1.00  0.00     0.000 HD 
ENDBRANCH   2   5
BRANCH   2   8
HETATM    8  C   UNL     2      -9.359  16.733  67.076  1.00  0.00    -0.233 C  
HETATM    9  O   UNL     2     -10.225  17.086  68.178  1.00  0.00    -0.288 OA 
HETATM   10  H   UNL     2     -10.951  17.558  67.788  1.00  0.00     0.000 HD 
BRANCH   8  11
HETATM   11  C   UNL     2      -8.961  17.973  66.220  1.00  0.00    -0.172 C  
HETATM   12  O   UNL     2      -7.531  18.133  66.161  1.00  0.00    -0.269 OA 
HETATM   13  H   UNL     2      -7.288  18.889  65.640  1.00  0.00     0.000 HD 
BRANCH  11  14
HETATM   14  C   UNL     2      -9.614  19.294  66.663  1.00  0.00    -0.349 C  
HETATM   15  C   UNL     2      -9.306  19.619  68.152  1.00  0.00    -0.352 C  
HETATM   16  O   UNL     2     -11.035  19.273  66.430  1.00  0.00    -0.319 OA 
HETATM   17  H   UNL     2     -11.437  20.089  66.703  1.00  0.00     0.000 HD 
HETATM   18  O   UNL     2      -8.143  19.276  68.532  1.00  0.00    -0.341 OA 
HETATM   19  O   UNL     2     -10.284  20.091  68.795  1.00  0.00    -0.436 OA 
ENDBRANCH  11  14
ENDBRANCH   8  11
ENDBRANCH   2   8
TORSDOF 4
ENDMDL
MODEL      254
REMARK 921   NORMALIZED FREE ENERGY PREDICTED BY IDOCK:   -3.02 KCAL/MOL
REMARK 922        TOTAL FREE ENERGY PREDICTED BY IDOCK:   -4.74 KCAL/MOL
REMARK 923 INTER-LIGAND FREE ENERGY PREDICTED BY IDOCK:   -3.85 KCAL/MOL
REMARK 924 INTRA-LIGAND FREE ENERGY PREDICTED BY IDOCK:   -0.89 KCAL/MOL
REMARK 927      BINDING AFFINITY PREDICTED BY RF-SCORE:    0.00 PKD
ROOT
HETATM    1  K   UNL     1     -12.513   6.781  69.247  1.00  0.00    -0.595 K  
HETATM    2  C   UNL     2     -10.073   6.577  71.928  1.00  0.00    -0.182 C  
HETATM    3  H   UNL     2     -10.779   6.032  70.164  1.00  0.00     0.000 HD 
HETATM    4  O   UNL     2     -10.859   5.721  71.058  1.00  0.00    -0.260 OA 
ENDROOT
BRANCH   2   5
HETATM    5  C   UNL     2     -10.201   6.075  73.368  1.00  0.00    -0.216 C  
HETATM    6  O   UNL     2     -10.799   7.105  74.163  1.00  0.00    -0.532 OA 
HETATM    7  H   UNL     2     -10.878   6.794  75.057  1.00  0.00     0.000 HD 
ENDBRANCH   2   5
BRANCH   2   8
HETATM    8  C   UNL     2     -10.410   8.081  71.755  1.00  0.00    -0.217 C  
HETATM    9  O   UNL     2      -9.384   8.793  72.482  1.00  0.00    -0.326 OA 
HETATM   10  H   UNL     2      -9.591   9.713  72.376  1.00  0.00     0.000 HD 
BRANCH   8  11
HETATM   11  C   UNL     2     -10.530   8.568  70.280  1.00  0.00    -0.220 C  
HETATM   12  O   UNL     2      -9.877   7.659  69.372  1.00  0.00    -0.167 OA 
HETATM   13  H   UNL     2      -9.950   7.957  68.472  1.00  0.00     0.000 HD 
BRANCH  11  14
HETATM   14  C   UNL     2     -10.025  10.000  70.034  1.00  0.00    -0.222 C  
HETATM   15  C   UNL     2     -10.211  10.430  68.551  1.00  0.00    -0.173 C  
HETATM   16  O   UNL     2      -8.650  10.141  70.437  1.00  0.00    -0.344 OA 
HETATM   17  H   UNL     2      -8.339  11.026  70.286  1.00  0.00     0.000 HD 
HETATM   18  O   UNL     2     -11.264   9.979  68.003  1.00  0.00    -0.244 OA 
HETATM   19  O   UNL     2      -9.243  11.088  68.075  1.00  0.00    -0.150 OA 
ENDBRANCH  11  14
ENDBRANCH   8  11
ENDBRANCH   2   8
TORSDOF 4
ENDMDL
MODEL      255
REMARK 921   NORMALIZED FREE ENERGY PREDICTED BY IDOCK:   -3.01 KCAL/MOL
REMARK 922        TOTAL FREE ENERGY PREDICTED BY IDOCK:   -4.73 KCAL/MOL
REMARK 923 INTER-LIGAND FREE ENERGY PREDICTED BY IDOCK:   -4.20 KCAL/MOL
REMARK 924 INTRA-LIGAND FREE ENERGY PREDICTED BY IDOCK:   -0.53 KCAL/MOL
REMARK 927      BINDING AFFINITY PREDICTED BY RF-SCORE:    0.00 PKD
ROOT
HETATM    1  K   UNL     1     -13.975   6.908  71.041  1.00  0.00    -0.359 K  
HETATM    2  C   UNL     2     -10.523   8.013  71.266  1.00  0.00    -0.200 C  
HETATM    3  H   UNL     2     -11.899   6.602  71.117  1.00  0.00     0.000 HD 
HETATM    4  O   UNL     2     -11.423   7.019  71.824  1.00  0.00    -0.248 OA 
ENDROOT
BRANCH   2   5
HETATM    5  C   UNL     2      -9.755   8.686  72.406  1.00  0.00    -0.243 C  
HETATM    6  O   UNL     2      -8.367   8.734  72.061  1.00  0.00    -0.324 OA 
HETATM    7  H   UNL     2      -7.890   9.151  72.768  1.00  0.00     0.000 HD 
ENDBRANCH   2   5
BRANCH   2   8
HETATM    8  C   UNL     2     -11.243   9.009  70.320  1.00  0.00    -0.205 C  
HETATM    9  O   UNL     2     -12.597   9.102  70.816  1.00  0.00    -0.499 OA 
HETATM   10  H   UNL     2     -13.038   9.712  70.237  1.00  0.00     0.000 HD 
BRANCH   8  11
HETATM   11  C   UNL     2     -10.567  10.407  70.190  1.00  0.00    -0.188 C  
HETATM   12  O   UNL     2     -11.503  11.469  70.455  1.00  0.00    -0.473 OA 
HETATM   13  H   UNL     2     -11.091  12.322  70.375  1.00  0.00     0.000 HD 
BRANCH  11  14
HETATM   14  C   UNL     2      -9.865  10.657  68.844  1.00  0.00    -0.201 C  
HETATM   15  C   UNL     2     -10.866  10.609  67.654  1.00  0.00    -0.292 C  
HETATM   16  O   UNL     2      -8.788   9.724  68.641  1.00  0.00    -0.121 OA 
HETATM   17  H   UNL     2      -8.354   9.879  67.810  1.00  0.00     0.000 HD 
HETATM   18  O   UNL     2     -12.015  11.082  67.918  1.00  0.00    -0.620 OA 
HETATM   19  O   UNL     2     -10.424  10.024  66.626  1.00  0.00    -0.223 OA 
ENDBRANCH  11  14
ENDBRANCH   8  11
ENDBRANCH   2   8
TORSDOF 4
ENDMDL
MODEL      256
REMARK 921   NORMALIZED FREE ENERGY PREDICTED BY IDOCK:   -3.01 KCAL/MOL
REMARK 922        TOTAL FREE ENERGY PREDICTED BY IDOCK:   -4.72 KCAL/MOL
REMARK 923 INTER-LIGAND FREE ENERGY PREDICTED BY IDOCK:   -3.80 KCAL/MOL
REMARK 924 INTRA-LIGAND FREE ENERGY PREDICTED BY IDOCK:   -0.92 KCAL/MOL
REMARK 927      BINDING AFFINITY PREDICTED BY RF-SCORE:    0.00 PKD
ROOT
HETATM    1  K   UNL     1      -8.580   8.537  70.278  1.00  0.00    -0.108 K  
HETATM    2  C   UNL     2     -12.059   9.335  70.946  1.00  0.00    -0.233 C  
HETATM    3  H   UNL     2     -10.618   8.641  69.784  1.00  0.00     0.000 HD 
HETATM    4  O   UNL     2     -11.054   9.475  69.907  1.00  0.00    -0.236 OA 
ENDROOT
BRANCH   2   5
HETATM    5  C   UNL     2     -12.762  10.680  71.144  1.00  0.00    -0.422 C  
HETATM    6  O   UNL     2     -13.761  10.532  72.159  1.00  0.00    -0.409 OA 
HETATM    7  H   UNL     2     -14.197  11.366  72.283  1.00  0.00     0.000 HD 
ENDBRANCH   2   5
BRANCH   2   8
HETATM    8  C   UNL     2     -11.490   8.725  72.252  1.00  0.00    -0.306 C  
HETATM    9  O   UNL     2     -12.636   8.221  72.975  1.00  0.00    -0.680 OA 
HETATM   10  H   UNL     2     -12.287   7.847  73.775  1.00  0.00     0.000 HD 
BRANCH   8  11
HETATM   11  C   UNL     2     -10.394   7.635  72.054  1.00  0.00    -0.207 C  
HETATM   12  O   UNL     2     -10.873   6.553  71.231  1.00  0.00    -0.233 OA 
HETATM   13  H   UNL     2     -10.205   5.888  71.111  1.00  0.00     0.000 HD 
BRANCH  11  14
HETATM   14  C   UNL     2      -9.804   7.073  73.359  1.00  0.00    -0.237 C  
HETATM   15  C   UNL     2      -8.529   6.223  73.095  1.00  0.00    -0.116 C  
HETATM   16  O   UNL     2     -10.785   6.308  74.084  1.00  0.00    -0.403 OA 
HETATM   17  H   UNL     2     -10.420   5.962  74.890  1.00  0.00     0.000 HD 
HETATM   18  O   UNL     2      -7.797   6.656  72.152  1.00  0.00    -0.096 OA 
HETATM   19  O   UNL     2      -8.449   5.173  73.793  1.00  0.00    -0.111 OA 
ENDBRANCH  11  14
ENDBRANCH   8  11
ENDBRANCH   2   8
TORSDOF 4
ENDMDL
MODEL      257
REMARK 921   NORMALIZED FREE ENERGY PREDICTED BY IDOCK:   -3.00 KCAL/MOL
REMARK 922        TOTAL FREE ENERGY PREDICTED BY IDOCK:   -4.71 KCAL/MOL
REMARK 923 INTER-LIGAND FREE ENERGY PREDICTED BY IDOCK:   -4.64 KCAL/MOL
REMARK 924 INTRA-LIGAND FREE ENERGY PREDICTED BY IDOCK:   -0.07 KCAL/MOL
REMARK 927      BINDING AFFINITY PREDICTED BY RF-SCORE:    0.00 PKD
ROOT
HETATM    1  K   UNL     1      -9.518  13.568  64.187  1.00  0.00    -0.589 K  
HETATM    2  C   UNL     2     -10.812  13.531  67.580  1.00  0.00    -0.264 C  
HETATM    3  H   UNL     2      -9.528  12.951  66.194  1.00  0.00     0.000 HD 
HETATM    4  O   UNL     2     -10.347  12.625  66.546  1.00  0.00    -0.237 OA 
ENDROOT
BRANCH   2   5
HETATM    5  C   UNL     2     -12.133  13.005  68.146  1.00  0.00    -0.157 C  
HETATM    6  O   UNL     2     -12.361  13.612  69.423  1.00  0.00    -0.292 OA 
HETATM    7  H   UNL     2     -13.180  13.285  69.775  1.00  0.00     0.000 HD 
ENDBRANCH   2   5
BRANCH   2   8
HETATM    8  C   UNL     2     -10.878  15.005  67.100  1.00  0.00    -0.314 C  
HETATM    9  O   UNL     2     -10.668  15.806  68.285  1.00  0.00    -0.260 OA 
HETATM   10  H   UNL     2     -10.708  16.707  67.992  1.00  0.00     0.000 HD 
BRANCH   8  11
HETATM   11  C   UNL     2      -9.886  15.375  65.957  1.00  0.00    -0.326 C  
HETATM   12  O   UNL     2      -8.518  15.206  66.374  1.00  0.00    -0.413 OA 
HETATM   13  H   UNL     2      -7.913  15.432  65.676  1.00  0.00     0.000 HD 
BRANCH  11  14
HETATM   14  C   UNL     2     -10.080  16.784  65.371  1.00  0.00     0.024 C  
HETATM   15  C   UNL     2      -9.931  17.886  66.458  1.00  0.00    -0.357 C  
HETATM   16  O   UNL     2     -11.350  16.897  64.703  1.00  0.00    -0.841 OA 
HETATM   17  H   UNL     2     -11.469  17.768  64.341  1.00  0.00     0.000 HD 
HETATM   18  O   UNL     2      -9.054  17.634  67.342  1.00  0.00    -0.236 OA 
HETATM   19  O   UNL     2     -10.765  18.830  66.362  1.00  0.00    -0.379 OA 
ENDBRANCH  11  14
ENDBRANCH   8  11
ENDBRANCH   2   8
TORSDOF 4
ENDMDL
MODEL      258
REMARK 921   NORMALIZED FREE ENERGY PREDICTED BY IDOCK:   -3.00 KCAL/MOL
REMARK 922        TOTAL FREE ENERGY PREDICTED BY IDOCK:   -4.71 KCAL/MOL
REMARK 923 INTER-LIGAND FREE ENERGY PREDICTED BY IDOCK:   -4.16 KCAL/MOL
REMARK 924 INTRA-LIGAND FREE ENERGY PREDICTED BY IDOCK:   -0.55 KCAL/MOL
REMARK 927      BINDING AFFINITY PREDICTED BY RF-SCORE:    0.00 PKD
ROOT
HETATM    1  K   UNL     1     -12.318  16.194  70.712  1.00  0.00    -0.350 K  
HETATM    2  C   UNL     2      -9.728  15.277  68.338  1.00  0.00    -0.213 C  
HETATM    3  H   UNL     2     -11.447  14.954  69.258  1.00  0.00     0.000 HD 
HETATM    4  O   UNL     2     -10.543  14.697  69.391  1.00  0.00    -0.241 OA 
ENDROOT
BRANCH   2   5
HETATM    5  C   UNL     2      -8.271  14.862  68.551  1.00  0.00    -0.153 C  
HETATM    6  O   UNL     2      -7.949  15.006  69.939  1.00  0.00    -0.387 OA 
HETATM    7  H   UNL     2      -7.045  14.749  70.071  1.00  0.00     0.000 HD 
ENDBRANCH   2   5
BRANCH   2   8
HETATM    8  C   UNL     2      -9.931  16.808  68.197  1.00  0.00    -0.270 C  
HETATM    9  O   UNL     2     -10.512  17.237  69.449  1.00  0.00    -0.313 OA 
HETATM   10  H   UNL     2     -10.636  18.174  69.363  1.00  0.00     0.000 HD 
BRANCH   8  11
HETATM   11  C   UNL     2      -8.650  17.617  67.835  1.00  0.00    -0.238 C  
HETATM   12  O   UNL     2      -8.546  18.816  68.626  1.00  0.00    -0.335 OA 
HETATM   13  H   UNL     2      -7.765  19.310  68.404  1.00  0.00     0.000 HD 
BRANCH  11  14
HETATM   14  C   UNL     2      -8.511  17.964  66.343  1.00  0.00    -0.234 C  
HETATM   15  C   UNL     2      -7.041  17.834  65.855  1.00  0.00    -0.243 C  
HETATM   16  O   UNL     2      -9.024  19.281  66.068  1.00  0.00    -0.429 OA 
HETATM   17  H   UNL     2      -8.938  19.495  65.146  1.00  0.00     0.000 HD 
HETATM   18  O   UNL     2      -6.393  16.882  66.393  1.00  0.00    -0.236 OA 
HETATM   19  O   UNL     2      -6.670  18.747  65.065  1.00  0.00    -0.514 OA 
ENDBRANCH  11  14
ENDBRANCH   8  11
ENDBRANCH   2   8
TORSDOF 4
ENDMDL
MODEL      259
REMARK 921   NORMALIZED FREE ENERGY PREDICTED BY IDOCK:   -2.98 KCAL/MOL
REMARK 922        TOTAL FREE ENERGY PREDICTED BY IDOCK:   -4.69 KCAL/MOL
REMARK 923 INTER-LIGAND FREE ENERGY PREDICTED BY IDOCK:   -4.25 KCAL/MOL
REMARK 924 INTRA-LIGAND FREE ENERGY PREDICTED BY IDOCK:   -0.44 KCAL/MOL
REMARK 927      BINDING AFFINITY PREDICTED BY RF-SCORE:    0.00 PKD
ROOT
HETATM    1  K   UNL     1     -10.192  15.327  67.818  1.00  0.00    -0.219 K  
HETATM    2  C   UNL     2     -10.518  18.907  67.305  1.00  0.00    -0.439 C  
HETATM    3  H   UNL     2     -11.181  17.052  67.142  1.00  0.00     0.000 HD 
HETATM    4  O   UNL     2     -10.687  17.651  66.596  1.00  0.00    -0.254 OA 
ENDROOT
BRANCH   2   5
HETATM    5  C   UNL     2      -9.722  19.873  66.425  1.00  0.00    -0.447 C  
HETATM    6  O   UNL     2      -9.748  21.172  67.027  1.00  0.00    -0.632 OA 
HETATM    7  H   UNL     2      -9.254  21.771  66.481  1.00  0.00     0.000 HD 
ENDBRANCH   2   5
BRANCH   2   8
HETATM    8  C   UNL     2      -9.926  18.719  68.726  1.00  0.00    -0.391 C  
HETATM    9  O   UNL     2     -10.632  17.591  69.292  1.00  0.00    -0.403 OA 
HETATM   10  H   UNL     2     -10.269  17.476  70.161  1.00  0.00     0.000 HD 
BRANCH   8  11
HETATM   11  C   UNL     2      -8.380  18.532  68.781  1.00  0.00    -0.246 C  
HETATM   12  O   UNL     2      -7.695  19.796  68.682  1.00  0.00    -0.329 OA 
HETATM   13  H   UNL     2      -6.752  19.682  68.716  1.00  0.00     0.000 HD 
BRANCH  11  14
HETATM   14  C   UNL     2      -7.814  17.551  67.740  1.00  0.00    -0.207 C  
HETATM   15  C   UNL     2      -7.424  16.191  68.383  1.00  0.00    -0.153 C  
HETATM   16  O   UNL     2      -6.693  18.126  67.044  1.00  0.00    -0.178 OA 
HETATM   17  H   UNL     2      -6.344  17.520  66.400  1.00  0.00     0.000 HD 
HETATM   18  O   UNL     2      -8.194  15.814  69.320  1.00  0.00    -0.228 OA 
HETATM   19  O   UNL     2      -6.346  15.698  67.946  1.00  0.00    -0.122 OA 
ENDBRANCH  11  14
ENDBRANCH   8  11
ENDBRANCH   2   8
TORSDOF 4
ENDMDL
MODEL      260
REMARK 921   NORMALIZED FREE ENERGY PREDICTED BY IDOCK:   -2.97 KCAL/MOL
REMARK 922        TOTAL FREE ENERGY PREDICTED BY IDOCK:   -4.68 KCAL/MOL
REMARK 923 INTER-LIGAND FREE ENERGY PREDICTED BY IDOCK:   -3.78 KCAL/MOL
REMARK 924 INTRA-LIGAND FREE ENERGY PREDICTED BY IDOCK:   -0.90 KCAL/MOL
REMARK 927      BINDING AFFINITY PREDICTED BY RF-SCORE:    0.00 PKD
ROOT
HETATM    1  K   UNL     1      -8.456   6.994  66.226  1.00  0.00    -0.100 K  
HETATM    2  C   UNL     2      -8.669   9.999  68.253  1.00  0.00    -0.119 C  
HETATM    3  H   UNL     2      -7.727   8.811  66.985  1.00  0.00     0.000 HD 
HETATM    4  O   UNL     2      -7.745   8.927  67.927  1.00  0.00    -0.099 OA 
ENDROOT
BRANCH   2   5
HETATM    5  C   UNL     2      -8.699  10.187  69.772  1.00  0.00    -0.126 C  
HETATM    6  O   UNL     2      -7.433  10.705  70.196  1.00  0.00    -0.403 OA 
HETATM    7  H   UNL     2      -7.451  10.821  71.138  1.00  0.00     0.000 HD 
ENDBRANCH   2   5
BRANCH   2   8
HETATM    8  C   UNL     2     -10.070   9.796  67.619  1.00  0.00    -0.190 C  
HETATM    9  O   UNL     2     -10.964  10.639  68.380  1.00  0.00    -0.214 OA 
HETATM   10  H   UNL     2     -11.821  10.515  67.992  1.00  0.00     0.000 HD 
BRANCH   8  11
HETATM   11  C   UNL     2     -10.153  10.082  66.089  1.00  0.00    -0.247 C  
HETATM   12  O   UNL     2      -9.440   9.087  65.330  1.00  0.00    -0.441 OA 
HETATM   13  H   UNL     2      -9.491   9.261  64.397  1.00  0.00     0.000 HD 
BRANCH  11  14
HETATM   14  C   UNL     2      -9.685  11.487  65.673  1.00  0.00    -0.232 C  
HETATM   15  C   UNL     2     -10.884  12.417  65.334  1.00  0.00    -0.285 C  
HETATM   16  O   UNL     2      -8.765  11.420  64.567  1.00  0.00    -0.369 OA 
HETATM   17  H   UNL     2      -8.476  12.288  64.310  1.00  0.00     0.000 HD 
HETATM   18  O   UNL     2     -11.911  12.232  66.059  1.00  0.00    -0.570 OA 
HETATM   19  O   UNL     2     -10.701  13.159  64.329  1.00  0.00    -0.386 OA 
ENDBRANCH  11  14
ENDBRANCH   8  11
ENDBRANCH   2   8
TORSDOF 4
ENDMDL
MODEL      261
REMARK 921   NORMALIZED FREE ENERGY PREDICTED BY IDOCK:   -2.97 KCAL/MOL
REMARK 922        TOTAL FREE ENERGY PREDICTED BY IDOCK:   -4.67 KCAL/MOL
REMARK 923 INTER-LIGAND FREE ENERGY PREDICTED BY IDOCK:   -3.70 KCAL/MOL
REMARK 924 INTRA-LIGAND FREE ENERGY PREDICTED BY IDOCK:   -0.97 KCAL/MOL
REMARK 927      BINDING AFFINITY PREDICTED BY RF-SCORE:    0.00 PKD
ROOT
HETATM    1  K   UNL     1     -13.324   7.010  70.411  1.00  0.00    -0.590 K  
HETATM    2  C   UNL     2     -10.113   5.322  70.584  1.00  0.00    -0.239 C  
HETATM    3  H   UNL     2     -11.285   6.786  69.959  1.00  0.00     0.000 HD 
HETATM    4  O   UNL     2     -11.004   5.944  69.621  1.00  0.00    -0.347 OA 
ENDROOT
BRANCH   2   5
HETATM    5  C   UNL     2      -9.660   3.966  70.039  1.00  0.00    -0.199 C  
HETATM    6  O   UNL     2      -8.229   3.936  70.011  1.00  0.00    -0.056 OA 
HETATM    7  H   UNL     2      -7.947   3.095  69.673  1.00  0.00     0.000 HD 
ENDBRANCH   2   5
BRANCH   2   8
HETATM    8  C   UNL     2     -10.723   5.255  72.008  1.00  0.00    -0.196 C  
HETATM    9  O   UNL     2      -9.919   4.292  72.727  1.00  0.00    -0.141 OA 
HETATM   10  H   UNL     2     -10.292   4.251  73.599  1.00  0.00     0.000 HD 
BRANCH   8  11
HETATM   11  C   UNL     2     -10.815   6.619  72.756  1.00  0.00    -0.251 C  
HETATM   12  O   UNL     2     -12.053   7.295  72.464  1.00  0.00    -0.494 OA 
HETATM   13  H   UNL     2     -12.108   8.127  72.920  1.00  0.00     0.000 HD 
BRANCH  11  14
HETATM   14  C   UNL     2      -9.631   7.569  72.505  1.00  0.00    -0.165 C  
HETATM   15  C   UNL     2      -8.696   7.664  73.743  1.00  0.00    -0.239 C  
HETATM   16  O   UNL     2     -10.091   8.876  72.113  1.00  0.00    -0.325 OA 
HETATM   17  H   UNL     2      -9.360   9.463  71.958  1.00  0.00     0.000 HD 
HETATM   18  O   UNL     2      -8.567   6.576  74.386  1.00  0.00    -0.131 OA 
HETATM   19  O   UNL     2      -8.271   8.828  73.988  1.00  0.00    -0.329 OA 
ENDBRANCH  11  14
ENDBRANCH   8  11
ENDBRANCH   2   8
TORSDOF 4
ENDMDL
MODEL      262
REMARK 921   NORMALIZED FREE ENERGY PREDICTED BY IDOCK:   -2.96 KCAL/MOL
REMARK 922        TOTAL FREE ENERGY PREDICTED BY IDOCK:   -4.66 KCAL/MOL
REMARK 923 INTER-LIGAND FREE ENERGY PREDICTED BY IDOCK:   -3.60 KCAL/MOL
REMARK 924 INTRA-LIGAND FREE ENERGY PREDICTED BY IDOCK:   -1.06 KCAL/MOL
REMARK 927      BINDING AFFINITY PREDICTED BY RF-SCORE:    0.00 PKD
ROOT
HETATM    1  K   UNL     1      -7.151  18.760  67.116  1.00  0.00    -0.191 K  
HETATM    2  C   UNL     2      -7.670  15.617  68.859  1.00  0.00    -0.181 C  
HETATM    3  H   UNL     2      -7.720  17.591  68.764  1.00  0.00     0.000 HD 
HETATM    4  O   UNL     2      -7.103  16.937  69.069  1.00  0.00    -0.214 OA 
ENDROOT
BRANCH   2   5
HETATM    5  C   UNL     2      -6.675  14.564  69.350  1.00  0.00    -0.142 C  
HETATM    6  O   UNL     2      -7.394  13.370  69.679  1.00  0.00    -0.299 OA 
HETATM    7  H   UNL     2      -6.776  12.716  69.984  1.00  0.00     0.000 HD 
ENDBRANCH   2   5
BRANCH   2   8
HETATM    8  C   UNL     2      -8.151  15.396  67.401  1.00  0.00    -0.180 C  
HETATM    9  O   UNL     2      -7.251  14.413  66.843  1.00  0.00    -0.325 OA 
HETATM   10  H   UNL     2      -7.545  14.278  65.951  1.00  0.00     0.000 HD 
BRANCH   8  11
HETATM   11  C   UNL     2      -9.644  14.978  67.251  1.00  0.00    -0.207 C  
HETATM   12  O   UNL     2     -10.377  15.202  68.471  1.00  0.00    -0.221 OA 
HETATM   13  H   UNL     2     -11.288  14.946  68.380  1.00  0.00     0.000 HD 
BRANCH  11  14
HETATM   14  C   UNL     2      -9.861  13.531  66.773  1.00  0.00    -0.267 C  
HETATM   15  C   UNL     2     -11.283  13.327  66.180  1.00  0.00    -0.296 C  
HETATM   16  O   UNL     2      -9.613  12.592  67.836  1.00  0.00    -0.197 OA 
HETATM   17  H   UNL     2      -9.746  11.699  67.541  1.00  0.00     0.000 HD 
HETATM   18  O   UNL     2     -11.731  14.328  65.537  1.00  0.00    -0.337 OA 
HETATM   19  O   UNL     2     -11.829  12.234  66.498  1.00  0.00    -0.539 OA 
ENDBRANCH  11  14
ENDBRANCH   8  11
ENDBRANCH   2   8
TORSDOF 4
ENDMDL
MODEL      263
REMARK 921   NORMALIZED FREE ENERGY PREDICTED BY IDOCK:   -2.95 KCAL/MOL
REMARK 922        TOTAL FREE ENERGY PREDICTED BY IDOCK:   -4.65 KCAL/MOL
REMARK 923 INTER-LIGAND FREE ENERGY PREDICTED BY IDOCK:   -4.35 KCAL/MOL
REMARK 924 INTRA-LIGAND FREE ENERGY PREDICTED BY IDOCK:   -0.30 KCAL/MOL
REMARK 927      BINDING AFFINITY PREDICTED BY RF-SCORE:    0.00 PKD
ROOT
HETATM    1  K   UNL     1      -9.944  13.330  70.015  1.00  0.00    -0.110 K  
HETATM    2  C   UNL     2     -11.325  14.023  66.729  1.00  0.00    -0.334 C  
HETATM    3  H   UNL     2     -11.240  14.307  68.683  1.00  0.00     0.000 HD 
HETATM    4  O   UNL     2     -11.749  13.764  68.094  1.00  0.00    -0.317 OA 
ENDROOT
BRANCH   2   5
HETATM    5  C   UNL     2     -12.145  13.148  65.778  1.00  0.00    -0.447 C  
HETATM    6  O   UNL     2     -13.297  13.884  65.354  1.00  0.00    -0.710 OA 
HETATM    7  H   UNL     2     -13.806  13.341  64.764  1.00  0.00     0.000 HD 
ENDBRANCH   2   5
BRANCH   2   8
HETATM    8  C   UNL     2      -9.791  13.888  66.542  1.00  0.00    -0.290 C  
HETATM    9  O   UNL     2      -9.538  14.245  65.164  1.00  0.00    -0.528 OA 
HETATM   10  H   UNL     2      -8.600  14.162  65.050  1.00  0.00     0.000 HD 
BRANCH   8  11
HETATM   11  C   UNL     2      -8.926  14.721  67.534  1.00  0.00    -0.187 C  
HETATM   12  O   UNL     2      -8.173  13.868  68.418  1.00  0.00    -0.146 OA 
HETATM   13  H   UNL     2      -7.645  14.376  69.023  1.00  0.00     0.000 HD 
BRANCH  11  14
HETATM   14  C   UNL     2      -9.710  15.758  68.356  1.00  0.00    -0.203 C  
HETATM   15  C   UNL     2      -9.762  17.139  67.643  1.00  0.00    -0.263 C  
HETATM   16  O   UNL     2      -9.163  15.889  69.681  1.00  0.00    -0.236 OA 
HETATM   17  H   UNL     2      -9.648  16.530  70.188  1.00  0.00     0.000 HD 
HETATM   18  O   UNL     2      -9.847  17.071  66.377  1.00  0.00    -0.271 OA 
HETATM   19  O   UNL     2      -9.618  18.129  68.413  1.00  0.00    -0.307 OA 
ENDBRANCH  11  14
ENDBRANCH   8  11
ENDBRANCH   2   8
TORSDOF 4
ENDMDL
MODEL      264
REMARK 921   NORMALIZED FREE ENERGY PREDICTED BY IDOCK:   -2.95 KCAL/MOL
REMARK 922        TOTAL FREE ENERGY PREDICTED BY IDOCK:   -4.65 KCAL/MOL
REMARK 923 INTER-LIGAND FREE ENERGY PREDICTED BY IDOCK:   -4.39 KCAL/MOL
REMARK 924 INTRA-LIGAND FREE ENERGY PREDICTED BY IDOCK:   -0.26 KCAL/MOL
REMARK 927      BINDING AFFINITY PREDICTED BY RF-SCORE:    0.00 PKD
ROOT
HETATM    1  K   UNL     1     -10.406  10.237  65.654  1.00  0.00    -0.216 K  
HETATM    2  C   UNL     2     -10.874  12.100  68.736  1.00  0.00    -0.228 C  
HETATM    3  H   UNL     2     -10.943  10.434  67.675  1.00  0.00     0.000 HD 
HETATM    4  O   UNL     2     -11.552  11.127  67.898  1.00  0.00    -0.470 OA 
ENDROOT
BRANCH   2   5
HETATM    5  C   UNL     2     -11.855  13.218  69.095  1.00  0.00    -0.329 C  
HETATM    6  O   UNL     2     -11.475  13.775  70.358  1.00  0.00    -0.504 OA 
HETATM    7  H   UNL     2     -12.084  14.468  70.582  1.00  0.00     0.000 HD 
ENDBRANCH   2   5
BRANCH   2   8
HETATM    8  C   UNL     2      -9.547  12.606  68.113  1.00  0.00    -0.219 C  
HETATM    9  O   UNL     2      -8.496  11.978  68.883  1.00  0.00    -0.360 OA 
HETATM   10  H   UNL     2      -7.684  12.288  68.502  1.00  0.00     0.000 HD 
BRANCH   8  11
HETATM   11  C   UNL     2      -9.390  12.349  66.585  1.00  0.00    -0.227 C  
HETATM   12  O   UNL     2      -8.002  12.252  66.209  1.00  0.00    -0.357 OA 
HETATM   13  H   UNL     2      -7.907  12.096  65.276  1.00  0.00     0.000 HD 
BRANCH  11  14
HETATM   14  C   UNL     2     -10.102  13.373  65.685  1.00  0.00    -0.274 C  
HETATM   15  C   UNL     2      -9.846  14.832  66.158  1.00  0.00    -0.312 C  
HETATM   16  O   UNL     2     -11.514  13.103  65.610  1.00  0.00    -0.309 OA 
HETATM   17  H   UNL     2     -11.954  13.735  65.054  1.00  0.00     0.000 HD 
HETATM   18  O   UNL     2      -8.682  15.034  66.626  1.00  0.00    -0.265 OA 
HETATM   19  O   UNL     2     -10.858  15.585  66.097  1.00  0.00    -0.322 OA 
ENDBRANCH  11  14
ENDBRANCH   8  11
ENDBRANCH   2   8
TORSDOF 4
ENDMDL
MODEL      265
REMARK 921   NORMALIZED FREE ENERGY PREDICTED BY IDOCK:   -2.94 KCAL/MOL
REMARK 922        TOTAL FREE ENERGY PREDICTED BY IDOCK:   -4.63 KCAL/MOL
REMARK 923 INTER-LIGAND FREE ENERGY PREDICTED BY IDOCK:   -3.76 KCAL/MOL
REMARK 924 INTRA-LIGAND FREE ENERGY PREDICTED BY IDOCK:   -0.87 KCAL/MOL
REMARK 927      BINDING AFFINITY PREDICTED BY RF-SCORE:    0.00 PKD
ROOT
HETATM    1  K   UNL     1      -8.235  10.729  68.612  1.00  0.00    -0.093 K  
HETATM    2  C   UNL     2     -11.578  12.061  69.092  1.00  0.00    -0.312 C  
HETATM    3  H   UNL     2      -9.815  12.049  68.200  1.00  0.00     0.000 HD 
HETATM    4  O   UNL     2     -10.205  12.505  68.936  1.00  0.00    -0.131 OA 
ENDROOT
BRANCH   2   5
HETATM    5  C   UNL     2     -12.207  12.796  70.279  1.00  0.00    -0.277 C  
HETATM    6  O   UNL     2     -11.600  14.088  70.394  1.00  0.00    -0.449 OA 
HETATM    7  H   UNL     2     -11.990  14.543  71.130  1.00  0.00     0.000 HD 
ENDBRANCH   2   5
BRANCH   2   8
HETATM    8  C   UNL     2     -11.705  10.518  69.171  1.00  0.00    -0.189 C  
HETATM    9  O   UNL     2     -11.200  10.025  67.909  1.00  0.00    -0.468 OA 
HETATM   10  H   UNL     2     -11.278   9.080  67.957  1.00  0.00     0.000 HD 
BRANCH   8  11
HETATM   11  C   UNL     2     -10.993   9.855  70.388  1.00  0.00    -0.318 C  
HETATM   12  O   UNL     2      -9.635  10.318  70.518  1.00  0.00    -0.262 OA 
HETATM   13  H   UNL     2      -9.201   9.913  71.260  1.00  0.00     0.000 HD 
BRANCH  11  14
HETATM   14  C   UNL     2     -11.020   8.316  70.386  1.00  0.00    -0.239 C  
HETATM   15  C   UNL     2     -11.164   7.742  71.824  1.00  0.00    -0.256 C  
HETATM   16  O   UNL     2      -9.853   7.779  69.738  1.00  0.00    -0.175 OA 
HETATM   17  H   UNL     2      -9.870   6.829  69.737  1.00  0.00     0.000 HD 
HETATM   18  O   UNL     2     -11.903   8.432  72.592  1.00  0.00    -0.393 OA 
HETATM   19  O   UNL     2     -10.452   6.723  72.052  1.00  0.00    -0.201 OA 
ENDBRANCH  11  14
ENDBRANCH   8  11
ENDBRANCH   2   8
TORSDOF 4
ENDMDL
MODEL      266
REMARK 921   NORMALIZED FREE ENERGY PREDICTED BY IDOCK:   -2.92 KCAL/MOL
REMARK 922        TOTAL FREE ENERGY PREDICTED BY IDOCK:   -4.61 KCAL/MOL
REMARK 923 INTER-LIGAND FREE ENERGY PREDICTED BY IDOCK:   -3.87 KCAL/MOL
REMARK 924 INTRA-LIGAND FREE ENERGY PREDICTED BY IDOCK:   -0.73 KCAL/MOL
REMARK 927      BINDING AFFINITY PREDICTED BY RF-SCORE:    0.00 PKD
ROOT
HETATM    1  K   UNL     1      -7.932  13.168  66.858  1.00  0.00    -0.154 K  
HETATM    2  C   UNL     2     -10.367  14.577  69.154  1.00  0.00    -0.189 C  
HETATM    3  H   UNL     2      -9.366  13.055  68.388  1.00  0.00     0.000 HD 
HETATM    4  O   UNL     2     -10.205  13.469  68.229  1.00  0.00    -0.237 OA 
ENDROOT
BRANCH   2   5
HETATM    5  C   UNL     2     -11.720  15.245  68.899  1.00  0.00    -0.342 C  
HETATM    6  O   UNL     2     -12.174  14.881  67.591  1.00  0.00    -0.524 OA 
HETATM    7  H   UNL     2     -13.014  15.295  67.433  1.00  0.00     0.000 HD 
ENDBRANCH   2   5
BRANCH   2   8
HETATM    8  C   UNL     2      -9.167  15.559  69.128  1.00  0.00    -0.246 C  
HETATM    9  O   UNL     2      -8.071  14.845  69.741  1.00  0.00    -0.421 OA 
HETATM   10  H   UNL     2      -7.336  15.446  69.726  1.00  0.00     0.000 HD 
BRANCH   8  11
HETATM   11  C   UNL     2      -8.794  16.114  67.722  1.00  0.00    -0.183 C  
HETATM   12  O   UNL     2      -7.549  15.562  67.253  1.00  0.00    -0.181 OA 
HETATM   13  H   UNL     2      -7.321  15.901  66.395  1.00  0.00     0.000 HD 
BRANCH  11  14
HETATM   14  C   UNL     2      -8.749  17.649  67.629  1.00  0.00    -0.232 C  
HETATM   15  C   UNL     2      -9.661  18.185  66.490  1.00  0.00    -0.344 C  
HETATM   16  O   UNL     2      -7.398  18.118  67.462  1.00  0.00    -0.204 OA 
HETATM   17  H   UNL     2      -7.370  19.066  67.405  1.00  0.00     0.000 HD 
HETATM   18  O   UNL     2     -10.736  17.527  66.327  1.00  0.00    -0.233 OA 
HETATM   19  O   UNL     2      -9.163  19.139  65.828  1.00  0.00    -0.383 OA 
ENDBRANCH  11  14
ENDBRANCH   8  11
ENDBRANCH   2   8
TORSDOF 4
ENDMDL
MODEL      267
REMARK 921   NORMALIZED FREE ENERGY PREDICTED BY IDOCK:   -2.91 KCAL/MOL
REMARK 922        TOTAL FREE ENERGY PREDICTED BY IDOCK:   -4.60 KCAL/MOL
REMARK 923 INTER-LIGAND FREE ENERGY PREDICTED BY IDOCK:   -4.33 KCAL/MOL
REMARK 924 INTRA-LIGAND FREE ENERGY PREDICTED BY IDOCK:   -0.27 KCAL/MOL
REMARK 927      BINDING AFFINITY PREDICTED BY RF-SCORE:    0.00 PKD
ROOT
HETATM    1  K   UNL     1     -12.565  14.791  69.120  1.00  0.00    -0.393 K  
HETATM    2  C   UNL     2     -10.290  12.023  68.530  1.00  0.00    -0.217 C  
HETATM    3  H   UNL     2     -10.676  13.873  69.109  1.00  0.00     0.000 HD 
HETATM    4  O   UNL     2     -10.401  13.453  68.304  1.00  0.00    -0.236 OA 
ENDROOT
BRANCH   2   5
HETATM    5  C   UNL     2      -9.846  11.346  67.232  1.00  0.00    -0.189 C  
HETATM    6  O   UNL     2      -8.469  11.662  66.995  1.00  0.00    -0.155 OA 
HETATM    7  H   UNL     2      -8.194  11.242  66.190  1.00  0.00     0.000 HD 
ENDBRANCH   2   5
BRANCH   2   8
HETATM    8  C   UNL     2     -11.573  11.413  69.150  1.00  0.00    -0.314 C  
HETATM    9  O   UNL     2     -12.133  10.566  68.121  1.00  0.00    -0.756 OA 
HETATM   10  H   UNL     2     -12.919  10.192  68.501  1.00  0.00     0.000 HD 
BRANCH   8  11
HETATM   11  C   UNL     2     -11.364  10.649  70.491  1.00  0.00    -0.267 C  
HETATM   12  O   UNL     2     -10.020  10.144  70.604  1.00  0.00    -0.340 OA 
HETATM   13  H   UNL     2      -9.893   9.678  71.422  1.00  0.00     0.000 HD 
BRANCH  11  14
HETATM   14  C   UNL     2     -12.369   9.512  70.746  1.00  0.00    -0.162 C  
HETATM   15  C   UNL     2     -13.344   9.854  71.908  1.00  0.00    -0.424 C  
HETATM   16  O   UNL     2     -11.690   8.268  71.000  1.00  0.00    -0.281 OA 
HETATM   17  H   UNL     2     -12.311   7.566  71.157  1.00  0.00     0.000 HD 
HETATM   18  O   UNL     2     -13.676  11.078  71.970  1.00  0.00    -0.157 OA 
HETATM   19  O   UNL     2     -13.594   8.886  72.681  1.00  0.00    -0.439 OA 
ENDBRANCH  11  14
ENDBRANCH   8  11
ENDBRANCH   2   8
TORSDOF 4
ENDMDL
MODEL      268
REMARK 921   NORMALIZED FREE ENERGY PREDICTED BY IDOCK:   -2.91 KCAL/MOL
REMARK 922        TOTAL FREE ENERGY PREDICTED BY IDOCK:   -4.60 KCAL/MOL
REMARK 923 INTER-LIGAND FREE ENERGY PREDICTED BY IDOCK:   -4.32 KCAL/MOL
REMARK 924 INTRA-LIGAND FREE ENERGY PREDICTED BY IDOCK:   -0.28 KCAL/MOL
REMARK 927      BINDING AFFINITY PREDICTED BY RF-SCORE:    0.00 PKD
ROOT
HETATM    1  K   UNL     1     -12.261  10.139  68.520  1.00  0.00    -0.517 K  
HETATM    2  C   UNL     2     -10.135   7.197  68.605  1.00  0.00    -0.173 C  
HETATM    3  H   UNL     2     -10.504   9.071  68.097  1.00  0.00     0.000 HD 
HETATM    4  O   UNL     2     -10.599   8.220  67.686  1.00  0.00    -0.241 OA 
ENDROOT
BRANCH   2   5
HETATM    5  C   UNL     2     -10.289   5.826  67.943  1.00  0.00    -0.214 C  
HETATM    6  O   UNL     2     -10.952   5.994  66.685  1.00  0.00    -0.579 OA 
HETATM    7  H   UNL     2     -11.048   5.143  66.275  1.00  0.00     0.000 HD 
ENDBRANCH   2   5
BRANCH   2   8
HETATM    8  C   UNL     2     -10.801   7.298  70.002  1.00  0.00    -0.253 C  
HETATM    9  O   UNL     2     -12.006   6.505  69.913  1.00  0.00    -0.611 OA 
HETATM   10  H   UNL     2     -12.414   6.567  70.768  1.00  0.00     0.000 HD 
BRANCH   8  11
HETATM   11  C   UNL     2      -9.902   6.869  71.199  1.00  0.00    -0.177 C  
HETATM   12  O   UNL     2     -10.023   5.458  71.467  1.00  0.00    -0.169 OA 
HETATM   13  H   UNL     2      -9.474   5.196  72.197  1.00  0.00     0.000 HD 
BRANCH  11  14
HETATM   14  C   UNL     2     -10.134   7.665  72.494  1.00  0.00    -0.229 C  
HETATM   15  C   UNL     2      -8.809   8.259  73.051  1.00  0.00    -0.232 C  
HETATM   16  O   UNL     2     -10.787   6.855  73.490  1.00  0.00    -0.455 OA 
HETATM   17  H   UNL     2     -10.931   7.348  74.290  1.00  0.00     0.000 HD 
HETATM   18  O   UNL     2      -7.991   8.641  72.158  1.00  0.00    -0.277 OA 
HETATM   19  O   UNL     2      -8.695   8.192  74.307  1.00  0.00    -0.194 OA 
ENDBRANCH  11  14
ENDBRANCH   8  11
ENDBRANCH   2   8
TORSDOF 4
ENDMDL
MODEL      269
REMARK 921   NORMALIZED FREE ENERGY PREDICTED BY IDOCK:   -2.90 KCAL/MOL
REMARK 922        TOTAL FREE ENERGY PREDICTED BY IDOCK:   -4.59 KCAL/MOL
REMARK 923 INTER-LIGAND FREE ENERGY PREDICTED BY IDOCK:   -4.08 KCAL/MOL
REMARK 924 INTRA-LIGAND FREE ENERGY PREDICTED BY IDOCK:   -0.51 KCAL/MOL
REMARK 927      BINDING AFFINITY PREDICTED BY RF-SCORE:    0.00 PKD
ROOT
HETATM    1  K   UNL     1     -11.775   9.003  69.212  1.00  0.00    -0.437 K  
HETATM    2  C   UNL     2      -9.475   6.282  69.909  1.00  0.00    -0.149 C  
HETATM    3  H   UNL     2      -9.979   7.944  68.966  1.00  0.00     0.000 HD 
HETATM    4  O   UNL     2     -10.043   7.013  68.790  1.00  0.00    -0.160 OA 
ENDROOT
BRANCH   2   5
HETATM    5  C   UNL     2      -9.578   4.781  69.626  1.00  0.00    -0.183 C  
HETATM    6  O   UNL     2     -10.007   4.116  70.820  1.00  0.00    -0.194 OA 
HETATM    7  H   UNL     2     -10.071   3.186  70.645  1.00  0.00     0.000 HD 
ENDBRANCH   2   5
BRANCH   2   8
HETATM    8  C   UNL     2     -10.078   6.707  71.272  1.00  0.00    -0.188 C  
HETATM    9  O   UNL     2      -9.379   7.916  71.643  1.00  0.00    -0.139 OA 
HETATM   10  H   UNL     2      -9.749   8.177  72.478  1.00  0.00     0.000 HD 
BRANCH   8  11
HETATM   11  C   UNL     2     -11.625   6.895  71.284  1.00  0.00    -0.310 C  
HETATM   12  O   UNL     2     -12.169   6.850  69.951  1.00  0.00    -0.626 OA 
HETATM   13  H   UNL     2     -13.113   6.965  69.958  1.00  0.00     0.000 HD 
BRANCH  11  14
HETATM   14  C   UNL     2     -12.111   8.166  72.001  1.00  0.00    -0.340 C  
HETATM   15  C   UNL     2     -13.649   8.351  71.866  1.00  0.00    -0.379 C  
HETATM   16  O   UNL     2     -11.415   9.331  71.520  1.00  0.00    -0.331 OA 
HETATM   17  H   UNL     2     -11.715  10.116  71.963  1.00  0.00     0.000 HD 
HETATM   18  O   UNL     2     -14.311   7.267  71.886  1.00  0.00    -0.394 OA 
HETATM   19  O   UNL     2     -14.016   9.543  71.664  1.00  0.00    -0.253 OA 
ENDBRANCH  11  14
ENDBRANCH   8  11
ENDBRANCH   2   8
TORSDOF 4
ENDMDL
MODEL      270
REMARK 921   NORMALIZED FREE ENERGY PREDICTED BY IDOCK:   -2.89 KCAL/MOL
REMARK 922        TOTAL FREE ENERGY PREDICTED BY IDOCK:   -4.58 KCAL/MOL
REMARK 923 INTER-LIGAND FREE ENERGY PREDICTED BY IDOCK:   -3.84 KCAL/MOL
REMARK 924 INTRA-LIGAND FREE ENERGY PREDICTED BY IDOCK:   -0.74 KCAL/MOL
REMARK 927      BINDING AFFINITY PREDICTED BY RF-SCORE:    0.00 PKD
ROOT
HETATM    1  K   UNL     1      -9.850   7.180  68.660  1.00  0.00    -0.144 K  
HETATM    2  C   UNL     2     -10.110   6.223  72.153  1.00  0.00    -0.182 C  
HETATM    3  H   UNL     2      -9.279   7.245  70.679  1.00  0.00     0.000 HD 
HETATM    4  O   UNL     2      -9.116   6.416  71.112  1.00  0.00    -0.149 OA 
ENDROOT
BRANCH   2   5
HETATM    5  C   UNL     2      -9.848   4.887  72.851  1.00  0.00    -0.150 C  
HETATM    6  O   UNL     2     -10.376   3.832  72.040  1.00  0.00    -0.131 OA 
HETATM    7  H   UNL     2     -10.214   3.003  72.474  1.00  0.00     0.000 HD 
ENDBRANCH   2   5
BRANCH   2   8
HETATM    8  C   UNL     2     -11.562   6.385  71.632  1.00  0.00    -0.310 C  
HETATM    9  O   UNL     2     -12.411   6.152  72.778  1.00  0.00    -0.435 OA 
HETATM   10  H   UNL     2     -13.300   6.251  72.460  1.00  0.00     0.000 HD 
BRANCH   8  11
HETATM   11  C   UNL     2     -11.871   7.746  70.939  1.00  0.00    -0.239 C  
HETATM   12  O   UNL     2     -10.687   8.559  70.828  1.00  0.00    -0.206 OA 
HETATM   13  H   UNL     2     -10.875   9.389  70.406  1.00  0.00     0.000 HD 
BRANCH  11  14
HETATM   14  C   UNL     2     -13.000   8.559  71.596  1.00  0.00    -0.343 C  
HETATM   15  C   UNL     2     -13.034  10.023  71.074  1.00  0.00    -0.360 C  
HETATM   16  O   UNL     2     -12.890   8.532  73.031  1.00  0.00    -0.701 OA 
HETATM   17  H   UNL     2     -13.587   9.034  73.436  1.00  0.00     0.000 HD 
HETATM   18  O   UNL     2     -12.734  10.148  69.846  1.00  0.00    -0.000 OA 
HETATM   19  O   UNL     2     -13.264  10.889  71.964  1.00  0.00    -0.492 OA 
ENDBRANCH  11  14
ENDBRANCH   8  11
ENDBRANCH   2   8
TORSDOF 4
ENDMDL
MODEL      271
REMARK 921   NORMALIZED FREE ENERGY PREDICTED BY IDOCK:   -2.88 KCAL/MOL
REMARK 922        TOTAL FREE ENERGY PREDICTED BY IDOCK:   -4.57 KCAL/MOL
REMARK 923 INTER-LIGAND FREE ENERGY PREDICTED BY IDOCK:   -3.79 KCAL/MOL
REMARK 924 INTRA-LIGAND FREE ENERGY PREDICTED BY IDOCK:   -0.78 KCAL/MOL
REMARK 927      BINDING AFFINITY PREDICTED BY RF-SCORE:    0.00 PKD
ROOT
HETATM    1  K   UNL     1     -11.229  20.020  66.066  1.00  0.00    -0.419 K  
HETATM    2  C   UNL     2      -8.568  19.794  68.526  1.00  0.00    -0.224 C  
HETATM    3  H   UNL     2     -10.029  20.768  67.618  1.00  0.00     0.000 HD 
HETATM    4  O   UNL     2      -9.088  20.696  67.514  1.00  0.00    -0.323 OA 
ENDROOT
BRANCH   2   5
HETATM    5  C   UNL     2      -7.051  19.679  68.359  1.00  0.00    -0.309 C  
HETATM    6  O   UNL     2      -6.722  19.893  66.982  1.00  0.00    -0.203 OA 
HETATM    7  H   UNL     2      -5.781  19.821  66.878  1.00  0.00     0.000 HD 
ENDBRANCH   2   5
BRANCH   2   8
HETATM    8  C   UNL     2      -9.303  18.429  68.547  1.00  0.00    -0.335 C  
HETATM    9  O   UNL     2     -10.633  18.715  69.035  1.00  0.00    -0.367 OA 
HETATM   10  H   UNL     2     -11.083  17.879  69.048  1.00  0.00     0.000 HD 
BRANCH   8  11
HETATM   11  C   UNL     2      -9.326  17.666  67.189  1.00  0.00    -0.245 C  
HETATM   12  O   UNL     2     -10.605  17.792  66.538  1.00  0.00    -0.313 OA 
HETATM   13  H   UNL     2     -10.619  17.326  65.710  1.00  0.00     0.000 HD 
BRANCH  11  14
HETATM   14  C   UNL     2      -8.933  16.181  67.280  1.00  0.00    -0.196 C  
HETATM   15  C   UNL     2      -9.894  15.387  68.210  1.00  0.00    -0.213 C  
HETATM   16  O   UNL     2      -7.568  16.032  67.713  1.00  0.00    -0.129 OA 
HETATM   17  H   UNL     2      -7.326  15.116  67.768  1.00  0.00     0.000 HD 
HETATM   18  O   UNL     2     -11.105  15.766  68.157  1.00  0.00    -0.314 OA 
HETATM   19  O   UNL     2      -9.320  14.542  68.953  1.00  0.00    -0.199 OA 
ENDBRANCH  11  14
ENDBRANCH   8  11
ENDBRANCH   2   8
TORSDOF 4
ENDMDL
MODEL      272
REMARK 921   NORMALIZED FREE ENERGY PREDICTED BY IDOCK:   -2.88 KCAL/MOL
REMARK 922        TOTAL FREE ENERGY PREDICTED BY IDOCK:   -4.57 KCAL/MOL
REMARK 923 INTER-LIGAND FREE ENERGY PREDICTED BY IDOCK:   -4.36 KCAL/MOL
REMARK 924 INTRA-LIGAND FREE ENERGY PREDICTED BY IDOCK:   -0.20 KCAL/MOL
REMARK 927      BINDING AFFINITY PREDICTED BY RF-SCORE:    0.00 PKD
ROOT
HETATM    1  K   UNL     1     -13.401  14.589  66.940  1.00  0.00    -0.547 K  
HETATM    2  C   UNL     2     -12.222  14.545  70.374  1.00  0.00    -0.329 C  
HETATM    3  H   UNL     2     -13.624  14.842  69.012  1.00  0.00     0.000 HD 
HETATM    4  O   UNL     2     -12.979  15.379  69.457  1.00  0.00     0.166 OA 
ENDROOT
BRANCH   2   5
HETATM    5  C   UNL     2     -11.183  15.409  71.091  1.00  0.00    -0.361 C  
HETATM    6  O   UNL     2     -11.854  16.501  71.729  1.00  0.00    -0.664 OA 
HETATM    7  H   UNL     2     -11.209  17.038  72.174  1.00  0.00     0.000 HD 
ENDBRANCH   2   5
BRANCH   2   8
HETATM    8  C   UNL     2     -11.629  13.287  69.689  1.00  0.00    -0.261 C  
HETATM    9  O   UNL     2     -12.282  12.161  70.318  1.00  0.00    -0.316 OA 
HETATM   10  H   UNL     2     -11.918  11.391  69.899  1.00  0.00     0.000 HD 
BRANCH   8  11
HETATM   11  C   UNL     2     -11.760  13.251  68.137  1.00  0.00    -0.362 C  
HETATM   12  O   UNL     2     -11.919  11.903  67.655  1.00  0.00    -0.575 OA 
HETATM   13  H   UNL     2     -11.999  11.881  66.708  1.00  0.00     0.000 HD 
BRANCH  11  14
HETATM   14  C   UNL     2     -10.614  13.942  67.380  1.00  0.00    -0.267 C  
HETATM   15  C   UNL     2      -9.226  13.580  67.979  1.00  0.00    -0.209 C  
HETATM   16  O   UNL     2     -10.799  15.370  67.351  1.00  0.00    -0.298 OA 
HETATM   17  H   UNL     2     -10.091  15.796  66.883  1.00  0.00     0.000 HD 
HETATM   18  O   UNL     2      -9.135  12.386  68.404  1.00  0.00    -0.195 OA 
HETATM   19  O   UNL     2      -8.417  14.548  68.044  1.00  0.00    -0.146 OA 
ENDBRANCH  11  14
ENDBRANCH   8  11
ENDBRANCH   2   8
TORSDOF 4
ENDMDL
MODEL      273
REMARK 921   NORMALIZED FREE ENERGY PREDICTED BY IDOCK:   -2.87 KCAL/MOL
REMARK 922        TOTAL FREE ENERGY PREDICTED BY IDOCK:   -4.55 KCAL/MOL
REMARK 923 INTER-LIGAND FREE ENERGY PREDICTED BY IDOCK:   -4.37 KCAL/MOL
REMARK 924 INTRA-LIGAND FREE ENERGY PREDICTED BY IDOCK:   -0.18 KCAL/MOL
REMARK 927      BINDING AFFINITY PREDICTED BY RF-SCORE:    0.00 PKD
ROOT
HETATM    1  K   UNL     1      -7.795  13.131  68.589  1.00  0.00    -0.110 K  
HETATM    2  C   UNL     2     -11.204  14.119  69.354  1.00  0.00    -0.255 C  
HETATM    3  H   UNL     2      -9.468  14.391  68.448  1.00  0.00     0.000 HD 
HETATM    4  O   UNL     2      -9.867  14.678  69.261  1.00  0.00    -0.174 OA 
ENDROOT
BRANCH   2   5
HETATM    5  C   UNL     2     -11.847  14.582  70.663  1.00  0.00    -0.303 C  
HETATM    6  O   UNL     2     -12.955  15.435  70.357  1.00  0.00    -0.620 OA 
HETATM    7  H   UNL     2     -13.354  15.721  71.169  1.00  0.00     0.000 HD 
ENDBRANCH   2   5
BRANCH   2   8
HETATM    8  C   UNL     2     -11.227  12.582  69.151  1.00  0.00    -0.239 C  
HETATM    9  O   UNL     2     -11.805  12.042  70.361  1.00  0.00    -0.470 OA 
HETATM   10  H   UNL     2     -11.819  11.101  70.237  1.00  0.00     0.000 HD 
BRANCH   8  11
HETATM   11  C   UNL     2     -11.973  12.092  67.874  1.00  0.00    -0.148 C  
HETATM   12  O   UNL     2     -11.936  10.656  67.764  1.00  0.00    -0.664 OA 
HETATM   13  H   UNL     2     -12.391  10.357  66.985  1.00  0.00     0.000 HD 
BRANCH  11  14
HETATM   14  C   UNL     2     -11.482  12.727  66.561  1.00  0.00    -0.355 C  
HETATM   15  C   UNL     2      -9.931  12.715  66.460  1.00  0.00    -0.251 C  
HETATM   16  O   UNL     2     -11.993  14.065  66.411  1.00  0.00    -0.396 OA 
HETATM   17  H   UNL     2     -11.690  14.456  65.600  1.00  0.00     0.000 HD 
HETATM   18  O   UNL     2      -9.381  11.686  66.962  1.00  0.00    -0.175 OA 
HETATM   19  O   UNL     2      -9.432  13.771  65.977  1.00  0.00    -0.215 OA 
ENDBRANCH  11  14
ENDBRANCH   8  11
ENDBRANCH   2   8
TORSDOF 4
ENDMDL
MODEL      274
REMARK 921   NORMALIZED FREE ENERGY PREDICTED BY IDOCK:   -2.86 KCAL/MOL
REMARK 922        TOTAL FREE ENERGY PREDICTED BY IDOCK:   -4.54 KCAL/MOL
REMARK 923 INTER-LIGAND FREE ENERGY PREDICTED BY IDOCK:   -3.92 KCAL/MOL
REMARK 924 INTRA-LIGAND FREE ENERGY PREDICTED BY IDOCK:   -0.62 KCAL/MOL
REMARK 927      BINDING AFFINITY PREDICTED BY RF-SCORE:    0.00 PKD
ROOT
HETATM    1  K   UNL     1      -9.146  10.905  67.045  1.00  0.00    -0.140 K  
HETATM    2  C   UNL     2      -7.698  14.221  67.348  1.00  0.00    -0.173 C  
HETATM    3  H   UNL     2      -7.644  12.340  66.742  1.00  0.00     0.000 HD 
HETATM    4  O   UNL     2      -7.342  12.822  67.503  1.00  0.00    -0.133 OA 
ENDROOT
BRANCH   2   5
HETATM    5  C   UNL     2      -7.211  14.997  68.573  1.00  0.00    -0.115 C  
HETATM    6  O   UNL     2      -7.242  14.129  69.711  1.00  0.00    -0.355 OA 
HETATM    7  H   UNL     2      -6.941  14.611  70.471  1.00  0.00     0.000 HD 
ENDBRANCH   2   5
BRANCH   2   8
HETATM    8  C   UNL     2      -9.202  14.425  67.031  1.00  0.00    -0.234 C  
HETATM    9  O   UNL     2      -9.440  13.701  65.803  1.00  0.00    -0.495 OA 
HETATM   10  H   UNL     2     -10.360  13.827  65.610  1.00  0.00     0.000 HD 
BRANCH   8  11
HETATM   11  C   UNL     2     -10.182  13.999  68.164  1.00  0.00    -0.243 C  
HETATM   12  O   UNL     2     -10.602  12.630  68.008  1.00  0.00    -0.210 OA 
HETATM   13  H   UNL     2     -11.200  12.370  68.699  1.00  0.00     0.000 HD 
BRANCH  11  14
HETATM   14  C   UNL     2     -11.415  14.906  68.321  1.00  0.00    -0.324 C  
HETATM   15  C   UNL     2     -11.557  15.440  69.774  1.00  0.00    -0.323 C  
HETATM   16  O   UNL     2     -12.615  14.224  67.910  1.00  0.00    -0.485 OA 
HETATM   17  H   UNL     2     -13.376  14.785  68.006  1.00  0.00     0.000 HD 
HETATM   18  O   UNL     2     -10.453  15.692  70.350  1.00  0.00    -0.315 OA 
HETATM   19  O   UNL     2     -12.743  15.459  70.209  1.00  0.00    -0.375 OA 
ENDBRANCH  11  14
ENDBRANCH   8  11
ENDBRANCH   2   8
TORSDOF 4
ENDMDL
MODEL      275
REMARK 921   NORMALIZED FREE ENERGY PREDICTED BY IDOCK:   -2.86 KCAL/MOL
REMARK 922        TOTAL FREE ENERGY PREDICTED BY IDOCK:   -4.54 KCAL/MOL
REMARK 923 INTER-LIGAND FREE ENERGY PREDICTED BY IDOCK:   -3.93 KCAL/MOL
REMARK 924 INTRA-LIGAND FREE ENERGY PREDICTED BY IDOCK:   -0.61 KCAL/MOL
REMARK 927      BINDING AFFINITY PREDICTED BY RF-SCORE:    0.00 PKD
ROOT
HETATM    1  K   UNL     1      -9.622   7.800  67.886  1.00  0.00    -0.137 K  
HETATM    2  C   UNL     2     -11.348   9.011  70.843  1.00  0.00    -0.293 C  
HETATM    3  H   UNL     2     -10.221   7.691  69.895  1.00  0.00     0.000 HD 
HETATM    4  O   UNL     2     -11.147   7.792  70.080  1.00  0.00    -0.248 OA 
ENDROOT
BRANCH   2   5
HETATM    5  C   UNL     2     -12.840   9.173  71.140  1.00  0.00    -0.195 C  
HETATM    6  O   UNL     2     -13.484   7.906  70.967  1.00  0.00    -0.553 OA 
HETATM    7  H   UNL     2     -14.410   8.006  71.151  1.00  0.00     0.000 HD 
ENDBRANCH   2   5
BRANCH   2   8
HETATM    8  C   UNL     2     -10.703  10.251  70.171  1.00  0.00    -0.278 C  
HETATM    9  O   UNL     2      -9.281   9.992  70.167  1.00  0.00    -0.363 OA 
HETATM   10  H   UNL     2      -8.886  10.751  69.757  1.00  0.00     0.000 HD 
BRANCH   8  11
HETATM   11  C   UNL     2     -11.242  10.592  68.750  1.00  0.00    -0.279 C  
HETATM   12  O   UNL     2     -11.195   9.444  67.881  1.00  0.00    -0.509 OA 
HETATM   13  H   UNL     2     -11.524   9.653  67.014  1.00  0.00     0.000 HD 
BRANCH  11  14
HETATM   14  C   UNL     2     -10.550  11.787  68.071  1.00  0.00    -0.206 C  
HETATM   15  C   UNL     2      -9.175  11.387  67.464  1.00  0.00    -0.160 C  
HETATM   16  O   UNL     2     -10.402  12.888  68.986  1.00  0.00    -0.425 OA 
HETATM   17  H   UNL     2      -9.974  13.626  68.566  1.00  0.00     0.000 HD 
HETATM   18  O   UNL     2      -9.139  10.215  66.976  1.00  0.00    -0.138 OA 
HETATM   19  O   UNL     2      -8.264  12.247  67.626  1.00  0.00    -0.145 OA 
ENDBRANCH  11  14
ENDBRANCH   8  11
ENDBRANCH   2   8
TORSDOF 4
ENDMDL
MODEL      276
REMARK 921   NORMALIZED FREE ENERGY PREDICTED BY IDOCK:   -2.86 KCAL/MOL
REMARK 922        TOTAL FREE ENERGY PREDICTED BY IDOCK:   -4.53 KCAL/MOL
REMARK 923 INTER-LIGAND FREE ENERGY PREDICTED BY IDOCK:   -4.25 KCAL/MOL
REMARK 924 INTRA-LIGAND FREE ENERGY PREDICTED BY IDOCK:   -0.28 KCAL/MOL
REMARK 927      BINDING AFFINITY PREDICTED BY RF-SCORE:    0.00 PKD
ROOT
HETATM    1  K   UNL     1     -11.033  10.467  64.519  1.00  0.00    -0.327 K  
HETATM    2  C   UNL     2     -11.873  12.592  67.341  1.00  0.00    -0.312 C  
HETATM    3  H   UNL     2     -12.253  11.821  65.561  1.00  0.00     0.000 HD 
HETATM    4  O   UNL     2     -11.843  12.612  65.889  1.00  0.00    -0.406 OA 
ENDROOT
BRANCH   2   5
HETATM    5  C   UNL     2     -11.213  13.867  67.871  1.00  0.00    -0.278 C  
HETATM    6  O   UNL     2     -10.053  13.505  68.627  1.00  0.00    -0.284 OA 
HETATM    7  H   UNL     2      -9.643  14.295  68.956  1.00  0.00     0.000 HD 
ENDBRANCH   2   5
BRANCH   2   8
HETATM    8  C   UNL     2     -11.283  11.286  67.934  1.00  0.00    -0.290 C  
HETATM    9  O   UNL     2     -12.378  10.650  68.632  1.00  0.00    -0.820 OA 
HETATM   10  H   UNL     2     -12.017   9.851  68.995  1.00  0.00     0.000 HD 
BRANCH   8  11
HETATM   11  C   UNL     2     -10.611  10.332  66.902  1.00  0.00    -0.217 C  
HETATM   12  O   UNL     2     -10.670   8.961  67.339  1.00  0.00    -0.389 OA 
HETATM   13  H   UNL     2     -10.260   8.379  66.709  1.00  0.00     0.000 HD 
BRANCH  11  14
HETATM   14  C   UNL     2      -9.162  10.700  66.537  1.00  0.00    -0.166 C  
HETATM   15  C   UNL     2      -8.334  11.093  67.793  1.00  0.00    -0.123 C  
HETATM   16  O   UNL     2      -9.127  11.751  65.554  1.00  0.00    -0.395 OA 
HETATM   17  H   UNL     2      -8.232  11.977  65.328  1.00  0.00     0.000 HD 
HETATM   18  O   UNL     2      -8.623  10.433  68.838  1.00  0.00    -0.131 OA 
HETATM   19  O   UNL     2      -7.558  12.075  67.619  1.00  0.00    -0.117 OA 
ENDBRANCH  11  14
ENDBRANCH   8  11
ENDBRANCH   2   8
TORSDOF 4
ENDMDL
MODEL      277
REMARK 921   NORMALIZED FREE ENERGY PREDICTED BY IDOCK:   -2.85 KCAL/MOL
REMARK 922        TOTAL FREE ENERGY PREDICTED BY IDOCK:   -4.52 KCAL/MOL
REMARK 923 INTER-LIGAND FREE ENERGY PREDICTED BY IDOCK:   -4.22 KCAL/MOL
REMARK 924 INTRA-LIGAND FREE ENERGY PREDICTED BY IDOCK:   -0.30 KCAL/MOL
REMARK 927      BINDING AFFINITY PREDICTED BY RF-SCORE:    0.00 PKD
ROOT
HETATM    1  K   UNL     1     -12.152   6.973  69.455  1.00  0.00    -0.497 K  
HETATM    2  C   UNL     2      -8.974   7.584  71.100  1.00  0.00    -0.142 C  
HETATM    3  H   UNL     2     -10.091   6.692  69.736  1.00  0.00     0.000 HD 
HETATM    4  O   UNL     2      -9.794   6.489  70.614  1.00  0.00    -0.182 OA 
ENDROOT
BRANCH   2   5
HETATM    5  C   UNL     2      -8.496   7.259  72.517  1.00  0.00    -0.108 C  
HETATM    6  O   UNL     2      -8.460   8.469  73.281  1.00  0.00    -0.372 OA 
HETATM    7  H   UNL     2      -8.163   8.267  74.159  1.00  0.00     0.000 HD 
ENDBRANCH   2   5
BRANCH   2   8
HETATM    8  C   UNL     2      -9.676   8.961  70.975  1.00  0.00    -0.252 C  
HETATM    9  O   UNL     2      -8.889   9.711  70.023  1.00  0.00    -0.202 OA 
HETATM   10  H   UNL     2      -9.319  10.554  69.947  1.00  0.00     0.000 HD 
BRANCH   8  11
HETATM   11  C   UNL     2     -11.181   8.905  70.578  1.00  0.00    -0.252 C  
HETATM   12  O   UNL     2     -11.453   9.732  69.430  1.00  0.00    -0.429 OA 
HETATM   13  H   UNL     2     -12.371   9.698  69.188  1.00  0.00     0.000 HD 
BRANCH  11  14
HETATM   14  C   UNL     2     -12.159   9.255  71.713  1.00  0.00    -0.387 C  
HETATM   15  C   UNL     2     -13.138   8.085  72.012  1.00  0.00    -0.265 C  
HETATM   16  O   UNL     2     -12.884  10.463  71.418  1.00  0.00    -0.378 OA 
HETATM   17  H   UNL     2     -13.487  10.680  72.120  1.00  0.00     0.000 HD 
HETATM   18  O   UNL     2     -12.625   6.929  71.892  1.00  0.00    -0.339 OA 
HETATM   19  O   UNL     2     -14.327   8.446  72.241  1.00  0.00    -0.415 OA 
ENDBRANCH  11  14
ENDBRANCH   8  11
ENDBRANCH   2   8
TORSDOF 4
ENDMDL
MODEL      278
REMARK 921   NORMALIZED FREE ENERGY PREDICTED BY IDOCK:   -2.83 KCAL/MOL
REMARK 922        TOTAL FREE ENERGY PREDICTED BY IDOCK:   -4.50 KCAL/MOL
REMARK 923 INTER-LIGAND FREE ENERGY PREDICTED BY IDOCK:   -4.00 KCAL/MOL
REMARK 924 INTRA-LIGAND FREE ENERGY PREDICTED BY IDOCK:   -0.50 KCAL/MOL
REMARK 927      BINDING AFFINITY PREDICTED BY RF-SCORE:    0.00 PKD
ROOT
HETATM    1  K   UNL     1      -8.374  15.401  69.806  1.00  0.00    -0.191 K  
HETATM    2  C   UNL     2      -8.325  17.960  67.231  1.00  0.00    -0.225 C  
HETATM    3  H   UNL     2      -7.777  16.208  67.962  1.00  0.00     0.000 HD 
HETATM    4  O   UNL     2      -7.425  17.089  67.966  1.00  0.00    -0.173 OA 
ENDROOT
BRANCH   2   5
HETATM    5  C   UNL     2      -7.759  19.382  67.237  1.00  0.00    -0.247 C  
HETATM    6  O   UNL     2      -7.682  19.852  65.887  1.00  0.00    -0.335 OA 
HETATM    7  H   UNL     2      -7.330  20.734  65.890  1.00  0.00     0.000 HD 
ENDBRANCH   2   5
BRANCH   2   8
HETATM    8  C   UNL     2      -9.791  17.866  67.729  1.00  0.00    -0.300 C  
HETATM    9  O   UNL     2     -10.523  18.847  66.961  1.00  0.00    -0.384 OA 
HETATM   10  H   UNL     2     -11.420  18.790  67.266  1.00  0.00     0.000 HD 
BRANCH   8  11
HETATM   11  C   UNL     2     -10.433  16.450  67.640  1.00  0.00    -0.302 C  
HETATM   12  O   UNL     2     -10.903  16.004  68.927  1.00  0.00    -0.250 OA 
HETATM   13  H   UNL     2     -11.294  15.140  68.872  1.00  0.00     0.000 HD 
BRANCH  11  14
HETATM   14  C   UNL     2      -9.529  15.373  67.015  1.00  0.00    -0.220 C  
HETATM   15  C   UNL     2     -10.032  14.943  65.608  1.00  0.00    -0.358 C  
HETATM   16  O   UNL     2      -9.407  14.232  67.884  1.00  0.00    -0.187 OA 
HETATM   17  H   UNL     2      -8.848  13.567  67.498  1.00  0.00     0.000 HD 
HETATM   18  O   UNL     2     -10.537  15.885  64.922  1.00  0.00    -0.546 OA 
HETATM   19  O   UNL     2      -9.952  13.703  65.383  1.00  0.00    -0.283 OA 
ENDBRANCH  11  14
ENDBRANCH   8  11
ENDBRANCH   2   8
TORSDOF 4
ENDMDL
MODEL      279
REMARK 921   NORMALIZED FREE ENERGY PREDICTED BY IDOCK:   -2.82 KCAL/MOL
REMARK 922        TOTAL FREE ENERGY PREDICTED BY IDOCK:   -4.49 KCAL/MOL
REMARK 923 INTER-LIGAND FREE ENERGY PREDICTED BY IDOCK:   -4.20 KCAL/MOL
REMARK 924 INTRA-LIGAND FREE ENERGY PREDICTED BY IDOCK:   -0.29 KCAL/MOL
REMARK 927      BINDING AFFINITY PREDICTED BY RF-SCORE:    0.00 PKD
ROOT
HETATM    1  K   UNL     1     -10.883   7.065  66.224  1.00  0.00    -0.408 K  
HETATM    2  C   UNL     2     -10.502   8.778  69.403  1.00  0.00    -0.222 C  
HETATM    3  H   UNL     2     -11.326   8.572  67.618  1.00  0.00     0.000 HD 
HETATM    4  O   UNL     2     -10.595   9.057  67.981  1.00  0.00    -0.229 OA 
ENDROOT
BRANCH   2   5
HETATM    5  C   UNL     2      -9.324   9.560  69.988  1.00  0.00    -0.234 C  
HETATM    6  O   UNL     2      -9.414  10.921  69.553  1.00  0.00    -0.418 OA 
HETATM    7  H   UNL     2      -8.683  11.406  69.916  1.00  0.00     0.000 HD 
ENDBRANCH   2   5
BRANCH   2   8
HETATM    8  C   UNL     2     -10.465   7.259  69.715  1.00  0.00    -0.227 C  
HETATM    9  O   UNL     2      -9.228   7.043  70.432  1.00  0.00    -0.156 OA 
HETATM   10  H   UNL     2      -9.205   6.114  70.622  1.00  0.00     0.000 HD 
BRANCH   8  11
HETATM   11  C   UNL     2     -11.698   6.711  70.492  1.00  0.00    -0.394 C  
HETATM   12  O   UNL     2     -12.732   7.708  70.608  1.00  0.00    -0.531 OA 
HETATM   13  H   UNL     2     -13.484   7.373  71.083  1.00  0.00     0.000 HD 
BRANCH  11  14
HETATM   14  C   UNL     2     -11.376   6.132  71.881  1.00  0.00    -0.296 C  
HETATM   15  C   UNL     2     -10.803   7.216  72.838  1.00  0.00    -0.323 C  
HETATM   16  O   UNL     2     -10.475   5.014  71.780  1.00  0.00    -0.211 OA 
HETATM   17  H   UNL     2     -10.276   4.657  72.638  1.00  0.00     0.000 HD 
HETATM   18  O   UNL     2     -11.311   8.370  72.685  1.00  0.00    -0.372 OA 
HETATM   19  O   UNL     2      -9.851   6.818  73.566  1.00  0.00    -0.180 OA 
ENDBRANCH  11  14
ENDBRANCH   8  11
ENDBRANCH   2   8
TORSDOF 4
ENDMDL
MODEL      280
REMARK 921   NORMALIZED FREE ENERGY PREDICTED BY IDOCK:   -2.82 KCAL/MOL
REMARK 922        TOTAL FREE ENERGY PREDICTED BY IDOCK:   -4.49 KCAL/MOL
REMARK 923 INTER-LIGAND FREE ENERGY PREDICTED BY IDOCK:   -3.83 KCAL/MOL
REMARK 924 INTRA-LIGAND FREE ENERGY PREDICTED BY IDOCK:   -0.67 KCAL/MOL
REMARK 927      BINDING AFFINITY PREDICTED BY RF-SCORE:    0.00 PKD
ROOT
HETATM    1  K   UNL     1      -7.676  10.160  69.951  1.00  0.00    -0.078 K  
HETATM    2  C   UNL     2     -10.993   9.045  70.921  1.00  0.00    -0.268 C  
HETATM    3  H   UNL     2      -9.684   9.670  69.579  1.00  0.00     0.000 HD 
HETATM    4  O   UNL     2     -10.341  10.075  70.132  1.00  0.00    -0.263 OA 
ENDROOT
BRANCH   2   5
HETATM    5  C   UNL     2     -12.052   9.697  71.813  1.00  0.00    -0.369 C  
HETATM    6  O   UNL     2     -13.339   9.189  71.447  1.00  0.00    -0.400 OA 
HETATM    7  H   UNL     2     -13.996   9.593  72.000  1.00  0.00     0.000 HD 
ENDBRANCH   2   5
BRANCH   2   8
HETATM    8  C   UNL     2      -9.987   8.152  71.692  1.00  0.00    -0.192 C  
HETATM    9  O   UNL     2      -8.773   8.932  71.786  1.00  0.00    -0.312 OA 
HETATM   10  H   UNL     2      -8.157   8.385  72.258  1.00  0.00     0.000 HD 
BRANCH   8  11
HETATM   11  C   UNL     2     -10.474   7.652  73.084  1.00  0.00    -0.374 C  
HETATM   12  O   UNL     2      -9.454   7.819  74.088  1.00  0.00    -0.390 OA 
HETATM   13  H   UNL     2      -9.752   7.514  74.938  1.00  0.00     0.000 HD 
BRANCH  11  14
HETATM   14  C   UNL     2     -10.987   6.202  73.102  1.00  0.00    -0.231 C  
HETATM   15  C   UNL     2      -9.916   5.206  72.573  1.00  0.00    -0.172 C  
HETATM   16  O   UNL     2     -12.211   6.077  72.355  1.00  0.00    -0.497 OA 
HETATM   17  H   UNL     2     -12.528   5.181  72.366  1.00  0.00     0.000 HD 
HETATM   18  O   UNL     2      -8.722   5.506  72.885  1.00  0.00    -0.119 OA 
HETATM   19  O   UNL     2     -10.376   4.292  71.831  1.00  0.00    -0.160 OA 
ENDBRANCH  11  14
ENDBRANCH   8  11
ENDBRANCH   2   8
TORSDOF 4
ENDMDL
MODEL      281
REMARK 921   NORMALIZED FREE ENERGY PREDICTED BY IDOCK:   -2.82 KCAL/MOL
REMARK 922        TOTAL FREE ENERGY PREDICTED BY IDOCK:   -4.48 KCAL/MOL
REMARK 923 INTER-LIGAND FREE ENERGY PREDICTED BY IDOCK:   -5.05 KCAL/MOL
REMARK 924 INTRA-LIGAND FREE ENERGY PREDICTED BY IDOCK:    0.56 KCAL/MOL
REMARK 927      BINDING AFFINITY PREDICTED BY RF-SCORE:    0.00 PKD
ROOT
HETATM    1  K   UNL     1      -9.339  15.809  67.311  1.00  0.00    -0.193 K  
HETATM    2  C   UNL     2     -10.949  13.600  64.920  1.00  0.00    -0.367 C  
HETATM    3  H   UNL     2     -10.077  15.304  65.410  1.00  0.00     0.000 HD 
HETATM    4  O   UNL     2     -10.969  14.984  65.360  1.00  0.00    -0.334 OA 
ENDROOT
BRANCH   2   5
HETATM    5  C   UNL     2     -12.387  13.083  64.839  1.00  0.00    -0.459 C  
HETATM    6  O   UNL     2     -13.275  14.121  65.267  1.00  0.00    -0.760 OA 
HETATM    7  H   UNL     2     -14.167  13.800  65.217  1.00  0.00     0.000 HD 
ENDBRANCH   2   5
BRANCH   2   8
HETATM    8  C   UNL     2     -10.009  12.712  65.775  1.00  0.00    -0.256 C  
HETATM    9  O   UNL     2      -8.950  13.588  66.220  1.00  0.00    -0.461 OA 
HETATM   10  H   UNL     2      -8.374  13.045  66.744  1.00  0.00     0.000 HD 
BRANCH   8  11
HETATM   11  C   UNL     2     -10.694  11.969  66.960  1.00  0.00    -0.242 C  
HETATM   12  O   UNL     2     -12.125  11.930  66.798  1.00  0.00    -0.593 OA 
HETATM   13  H   UNL     2     -12.543  11.477  67.522  1.00  0.00     0.000 HD 
BRANCH  11  14
HETATM   14  C   UNL     2     -10.343  12.520  68.352  1.00  0.00    -0.230 C  
HETATM   15  C   UNL     2     -11.058  13.872  68.633  1.00  0.00    -0.265 C  
HETATM   16  O   UNL     2      -8.919  12.654  68.512  1.00  0.00    -0.325 OA 
HETATM   17  H   UNL     2      -8.703  12.995  69.372  1.00  0.00     0.000 HD 
HETATM   18  O   UNL     2     -12.228  13.958  68.146  1.00  0.00    -0.329 OA 
HETATM   19  O   UNL     2     -10.341  14.728  69.225  1.00  0.00    -0.233 OA 
ENDBRANCH  11  14
ENDBRANCH   8  11
ENDBRANCH   2   8
TORSDOF 4
ENDMDL
MODEL      282
REMARK 921   NORMALIZED FREE ENERGY PREDICTED BY IDOCK:   -2.81 KCAL/MOL
REMARK 922        TOTAL FREE ENERGY PREDICTED BY IDOCK:   -4.47 KCAL/MOL
REMARK 923 INTER-LIGAND FREE ENERGY PREDICTED BY IDOCK:   -3.70 KCAL/MOL
REMARK 924 INTRA-LIGAND FREE ENERGY PREDICTED BY IDOCK:   -0.77 KCAL/MOL
REMARK 927      BINDING AFFINITY PREDICTED BY RF-SCORE:    0.00 PKD
ROOT
HETATM    1  K   UNL     1     -10.882  12.611  70.296  1.00  0.00    -0.457 K  
HETATM    2  C   UNL     2     -11.248   9.053  70.926  1.00  0.00    -0.287 C  
HETATM    3  H   UNL     2     -11.975  10.885  70.784  1.00  0.00     0.000 HD 
HETATM    4  O   UNL     2     -11.636  10.338  71.481  1.00  0.00    -0.273 OA 
ENDROOT
BRANCH   2   5
HETATM    5  C   UNL     2     -10.701   8.170  72.050  1.00  0.00    -0.278 C  
HETATM    6  O   UNL     2      -9.555   8.810  72.622  1.00  0.00    -0.224 OA 
HETATM    7  H   UNL     2      -9.216   8.262  73.319  1.00  0.00     0.000 HD 
ENDBRANCH   2   5
BRANCH   2   8
HETATM    8  C   UNL     2     -10.292   9.189  69.712  1.00  0.00    -0.215 C  
HETATM    9  O   UNL     2      -9.270  10.122  70.128  1.00  0.00    -0.382 OA 
HETATM   10  H   UNL     2      -8.685  10.205  69.385  1.00  0.00     0.000 HD 
BRANCH   8  11
HETATM   11  C   UNL     2      -9.689   7.851  69.190  1.00  0.00    -0.162 C  
HETATM   12  O   UNL     2      -8.300   7.725  69.552  1.00  0.00    -0.126 OA 
HETATM   13  H   UNL     2      -7.932   6.909  69.233  1.00  0.00     0.000 HD 
BRANCH  11  14
HETATM   14  C   UNL     2      -9.855   7.618  67.678  1.00  0.00    -0.164 C  
HETATM   15  C   UNL     2      -9.313   8.816  66.848  1.00  0.00    -0.167 C  
HETATM   16  O   UNL     2     -11.228   7.348  67.344  1.00  0.00    -0.548 OA 
HETATM   17  H   UNL     2     -11.331   7.204  66.410  1.00  0.00     0.000 HD 
HETATM   18  O   UNL     2      -8.280   9.369  67.340  1.00  0.00    -0.119 OA 
HETATM   19  O   UNL     2     -10.028   9.128  65.855  1.00  0.00    -0.295 OA 
ENDBRANCH  11  14
ENDBRANCH   8  11
ENDBRANCH   2   8
TORSDOF 4
ENDMDL
MODEL      283
REMARK 921   NORMALIZED FREE ENERGY PREDICTED BY IDOCK:   -2.80 KCAL/MOL
REMARK 922        TOTAL FREE ENERGY PREDICTED BY IDOCK:   -4.46 KCAL/MOL
REMARK 923 INTER-LIGAND FREE ENERGY PREDICTED BY IDOCK:   -3.97 KCAL/MOL
REMARK 924 INTRA-LIGAND FREE ENERGY PREDICTED BY IDOCK:   -0.49 KCAL/MOL
REMARK 927      BINDING AFFINITY PREDICTED BY RF-SCORE:    0.00 PKD
ROOT
HETATM    1  K   UNL     1      -7.958  14.439  70.024  1.00  0.00    -0.344 K  
HETATM    2  C   UNL     2     -10.221  14.039  67.213  1.00  0.00    -0.260 C  
HETATM    3  H   UNL     2      -8.667  14.880  68.097  1.00  0.00     0.000 HD 
HETATM    4  O   UNL     2      -9.591  15.078  68.008  1.00  0.00    -0.204 OA 
ENDROOT
BRANCH   2   5
HETATM    5  C   UNL     2     -11.711  14.357  67.068  1.00  0.00    -0.399 C  
HETATM    6  O   UNL     2     -12.140  15.088  68.223  1.00  0.00    -0.549 OA 
HETATM    7  H   UNL     2     -13.064  15.285  68.133  1.00  0.00     0.000 HD 
ENDBRANCH   2   5
BRANCH   2   8
HETATM    8  C   UNL     2      -9.932  12.614  67.750  1.00  0.00    -0.218 C  
HETATM    9  O   UNL     2     -10.383  12.621  69.124  1.00  0.00    -0.429 OA 
HETATM   10  H   UNL     2     -10.206  11.749  69.453  1.00  0.00     0.000 HD 
BRANCH   8  11
HETATM   11  C   UNL     2     -10.569  11.453  66.929  1.00  0.00    -0.252 C  
HETATM   12  O   UNL     2     -11.020  10.388  67.789  1.00  0.00    -0.273 OA 
HETATM   13  H   UNL     2     -11.408   9.680  67.288  1.00  0.00     0.000 HD 
BRANCH  11  14
HETATM   14  C   UNL     2      -9.668  10.881  65.822  1.00  0.00    -0.224 C  
HETATM   15  C   UNL     2      -8.308  10.382  66.386  1.00  0.00    -0.139 C  
HETATM   16  O   UNL     2      -9.461  11.845  64.773  1.00  0.00    -0.424 OA 
HETATM   17  H   UNL     2      -8.905  11.491  64.089  1.00  0.00     0.000 HD 
HETATM   18  O   UNL     2      -8.381   9.855  67.540  1.00  0.00    -0.114 OA 
HETATM   19  O   UNL     2      -7.311  10.653  65.659  1.00  0.00    -0.146 OA 
ENDBRANCH  11  14
ENDBRANCH   8  11
ENDBRANCH   2   8
TORSDOF 4
ENDMDL
MODEL      284
REMARK 921   NORMALIZED FREE ENERGY PREDICTED BY IDOCK:   -2.78 KCAL/MOL
REMARK 922        TOTAL FREE ENERGY PREDICTED BY IDOCK:   -4.43 KCAL/MOL
REMARK 923 INTER-LIGAND FREE ENERGY PREDICTED BY IDOCK:   -3.37 KCAL/MOL
REMARK 924 INTRA-LIGAND FREE ENERGY PREDICTED BY IDOCK:   -1.07 KCAL/MOL
REMARK 927      BINDING AFFINITY PREDICTED BY RF-SCORE:    0.00 PKD
ROOT
HETATM    1  K   UNL     1      -9.244  12.082  69.177  1.00  0.00    -0.307 K  
HETATM    2  C   UNL     2      -8.790   8.691  67.959  1.00  0.00    -0.141 C  
HETATM    3  H   UNL     2      -8.220  10.255  69.026  1.00  0.00     0.000 HD 
HETATM    4  O   UNL     2      -8.047   9.924  68.153  1.00  0.00    -0.103 OA 
ENDROOT
BRANCH   2   5
HETATM    5  C   UNL     2      -8.511   8.158  66.552  1.00  0.00    -0.130 C  
HETATM    6  O   UNL     2      -9.336   8.864  65.619  1.00  0.00    -0.303 OA 
HETATM    7  H   UNL     2      -9.163   8.533  64.747  1.00  0.00     0.000 HD 
ENDBRANCH   2   5
BRANCH   2   8
HETATM    8  C   UNL     2     -10.298   8.843  68.285  1.00  0.00    -0.206 C  
HETATM    9  O   UNL     2     -10.945   7.716  67.652  1.00  0.00    -0.497 OA 
HETATM   10  H   UNL     2     -11.868   7.808  67.851  1.00  0.00     0.000 HD 
BRANCH   8  11
HETATM   11  C   UNL     2     -10.643   8.942  69.801  1.00  0.00    -0.224 C  
HETATM   12  O   UNL     2     -10.069  10.123  70.393  1.00  0.00    -0.403 OA 
HETATM   13  H   UNL     2     -10.278  10.184  71.318  1.00  0.00     0.000 HD 
BRANCH  11  14
HETATM   14  C   UNL     2     -10.256   7.705  70.629  1.00  0.00    -0.199 C  
HETATM   15  C   UNL     2     -11.486   6.801  70.925  1.00  0.00    -0.334 C  
HETATM   16  O   UNL     2      -9.599   8.085  71.853  1.00  0.00    -0.159 OA 
HETATM   17  H   UNL     2      -9.360   7.321  72.364  1.00  0.00     0.000 HD 
HETATM   18  O   UNL     2     -12.334   6.747  69.980  1.00  0.00    -0.079 OA 
HETATM   19  O   UNL     2     -11.515   6.325  72.094  1.00  0.00    -0.279 OA 
ENDBRANCH  11  14
ENDBRANCH   8  11
ENDBRANCH   2   8
TORSDOF 4
ENDMDL
MODEL      285
REMARK 921   NORMALIZED FREE ENERGY PREDICTED BY IDOCK:   -2.77 KCAL/MOL
REMARK 922        TOTAL FREE ENERGY PREDICTED BY IDOCK:   -4.43 KCAL/MOL
REMARK 923 INTER-LIGAND FREE ENERGY PREDICTED BY IDOCK:   -3.83 KCAL/MOL
REMARK 924 INTRA-LIGAND FREE ENERGY PREDICTED BY IDOCK:   -0.60 KCAL/MOL
REMARK 927      BINDING AFFINITY PREDICTED BY RF-SCORE:    0.00 PKD
ROOT
HETATM    1  K   UNL     1     -14.410   5.727  72.689  1.00  0.00    -0.516 K  
HETATM    2  C   UNL     2     -10.866   5.888  71.916  1.00  0.00    -0.254 C  
HETATM    3  H   UNL     2     -12.481   4.918  72.514  1.00  0.00     0.000 HD 
HETATM    4  O   UNL     2     -11.772   5.388  72.935  1.00  0.00    -0.297 OA 
ENDROOT
BRANCH   2   5
HETATM    5  C   UNL     2      -9.723   6.646  72.594  1.00  0.00    -0.160 C  
HETATM    6  O   UNL     2     -10.199   7.188  73.830  1.00  0.00    -0.346 OA 
HETATM    7  H   UNL     2      -9.490   7.659  74.251  1.00  0.00     0.000 HD 
ENDBRANCH   2   5
BRANCH   2   8
HETATM    8  C   UNL     2     -11.594   6.703  70.815  1.00  0.00    -0.376 C  
HETATM    9  O   UNL     2     -12.885   7.037  71.372  1.00  0.00    -0.377 OA 
HETATM   10  H   UNL     2     -13.330   7.536  70.698  1.00  0.00     0.000 HD 
BRANCH   8  11
HETATM   11  C   UNL     2     -10.830   7.961  70.306  1.00  0.00    -0.241 C  
HETATM   12  O   UNL     2     -11.465   9.176  70.749  1.00  0.00    -0.267 OA 
HETATM   13  H   UNL     2     -10.998   9.944  70.438  1.00  0.00     0.000 HD 
BRANCH  11  14
HETATM   14  C   UNL     2     -10.619   8.011  68.782  1.00  0.00    -0.118 C  
HETATM   15  C   UNL     2      -9.118   7.865  68.404  1.00  0.00    -0.135 C  
HETATM   16  O   UNL     2     -11.170   9.217  68.223  1.00  0.00    -0.486 OA 
HETATM   17  H   UNL     2     -11.040   9.248  67.282  1.00  0.00     0.000 HD 
HETATM   18  O   UNL     2      -8.463   7.076  69.153  1.00  0.00    -0.127 OA 
HETATM   19  O   UNL     2      -8.741   8.621  67.464  1.00  0.00    -0.133 OA 
ENDBRANCH  11  14
ENDBRANCH   8  11
ENDBRANCH   2   8
TORSDOF 4
ENDMDL
MODEL      286
REMARK 921   NORMALIZED FREE ENERGY PREDICTED BY IDOCK:   -2.77 KCAL/MOL
REMARK 922        TOTAL FREE ENERGY PREDICTED BY IDOCK:   -4.43 KCAL/MOL
REMARK 923 INTER-LIGAND FREE ENERGY PREDICTED BY IDOCK:   -4.16 KCAL/MOL
REMARK 924 INTRA-LIGAND FREE ENERGY PREDICTED BY IDOCK:   -0.27 KCAL/MOL
REMARK 927      BINDING AFFINITY PREDICTED BY RF-SCORE:    0.00 PKD
ROOT
HETATM    1  K   UNL     1      -8.378  14.797  68.111  1.00  0.00    -0.121 K  
HETATM    2  C   UNL     2     -11.020  13.580  65.938  1.00  0.00    -0.278 C  
HETATM    3  H   UNL     2      -9.365  14.610  66.268  1.00  0.00     0.000 HD 
HETATM    4  O   UNL     2     -10.295  14.799  66.251  1.00  0.00    -0.279 OA 
ENDROOT
BRANCH   2   5
HETATM    5  C   UNL     2     -12.519  13.886  65.910  1.00  0.00    -0.481 C  
HETATM    6  O   UNL     2     -12.995  13.732  64.568  1.00  0.00    -0.602 OA 
HETATM    7  H   UNL     2     -13.925  13.921  64.551  1.00  0.00     0.000 HD 
ENDBRANCH   2   5
BRANCH   2   8
HETATM    8  C   UNL     2     -10.636  12.399  66.866  1.00  0.00    -0.229 C  
HETATM    9  O   UNL     2      -9.547  11.722  66.200  1.00  0.00    -0.221 OA 
HETATM   10  H   UNL     2      -9.312  10.999  66.769  1.00  0.00     0.000 HD 
BRANCH   8  11
HETATM   11  C   UNL     2     -10.275  12.796  68.329  1.00  0.00    -0.244 C  
HETATM   12  O   UNL     2      -9.732  11.677  69.057  1.00  0.00    -0.401 OA 
HETATM   13  H   UNL     2      -9.512  11.919  69.949  1.00  0.00     0.000 HD 
BRANCH  11  14
HETATM   14  C   UNL     2     -11.430  13.424  69.128  1.00  0.00    -0.300 C  
HETATM   15  C   UNL     2     -10.961  14.665  69.939  1.00  0.00    -0.160 C  
HETATM   16  O   UNL     2     -12.049  12.454  69.993  1.00  0.00    -0.309 OA 
HETATM   17  H   UNL     2     -12.763  12.842  70.485  1.00  0.00     0.000 HD 
HETATM   18  O   UNL     2     -10.078  15.368  69.357  1.00  0.00    -0.236 OA 
HETATM   19  O   UNL     2     -11.455  14.746  71.099  1.00  0.00    -0.294 OA 
ENDBRANCH  11  14
ENDBRANCH   8  11
ENDBRANCH   2   8
TORSDOF 4
ENDMDL
MODEL      287
REMARK 921   NORMALIZED FREE ENERGY PREDICTED BY IDOCK:   -2.77 KCAL/MOL
REMARK 922        TOTAL FREE ENERGY PREDICTED BY IDOCK:   -4.43 KCAL/MOL
REMARK 923 INTER-LIGAND FREE ENERGY PREDICTED BY IDOCK:   -3.75 KCAL/MOL
REMARK 924 INTRA-LIGAND FREE ENERGY PREDICTED BY IDOCK:   -0.67 KCAL/MOL
REMARK 927      BINDING AFFINITY PREDICTED BY RF-SCORE:    0.00 PKD
ROOT
HETATM    1  K   UNL     1     -10.138  15.339  67.830  1.00  0.00    -0.214 K  
HETATM    2  C   UNL     2     -10.541  18.921  67.394  1.00  0.00    -0.460 C  
HETATM    3  H   UNL     2     -11.221  17.066  67.330  1.00  0.00     0.000 HD 
HETATM    4  O   UNL     2     -10.821  17.669  66.715  1.00  0.00    -0.181 OA 
ENDROOT
BRANCH   2   5
HETATM    5  C   UNL     2      -9.896  19.892  66.403  1.00  0.00    -0.459 C  
HETATM    6  O   UNL     2      -9.902  21.205  66.975  1.00  0.00    -0.560 OA 
HETATM    7  H   UNL     2      -9.502  21.807  66.360  1.00  0.00     0.000 HD 
ENDBRANCH   2   5
BRANCH   2   8
HETATM    8  C   UNL     2      -9.730  18.726  68.701  1.00  0.00    -0.390 C  
HETATM    9  O   UNL     2     -10.277  17.541  69.322  1.00  0.00    -0.303 OA 
HETATM   10  H   UNL     2      -9.781  17.422  70.122  1.00  0.00     0.000 HD 
BRANCH   8  11
HETATM   11  C   UNL     2      -8.186  18.633  68.516  1.00  0.00    -0.341 C  
HETATM   12  O   UNL     2      -7.744  17.262  68.478  1.00  0.00    -0.239 OA 
HETATM   13  H   UNL     2      -6.802  17.205  68.365  1.00  0.00     0.000 HD 
BRANCH  11  14
HETATM   14  C   UNL     2      -7.366  19.414  69.558  1.00  0.00    -0.116 C  
HETATM   15  C   UNL     2      -6.697  20.673  68.939  1.00  0.00     0.015 C  
HETATM   16  O   UNL     2      -6.382  18.568  70.182  1.00  0.00    -0.104 OA 
HETATM   17  H   UNL     2      -5.876  19.051  70.825  1.00  0.00     0.000 HD 
HETATM   18  O   UNL     2      -7.396  21.254  68.052  1.00  0.00    -0.042 OA 
HETATM   19  O   UNL     2      -5.518  20.886  69.337  1.00  0.00    -0.361 OA 
ENDBRANCH  11  14
ENDBRANCH   8  11
ENDBRANCH   2   8
TORSDOF 4
ENDMDL
MODEL      288
REMARK 921   NORMALIZED FREE ENERGY PREDICTED BY IDOCK:   -2.74 KCAL/MOL
REMARK 922        TOTAL FREE ENERGY PREDICTED BY IDOCK:   -4.39 KCAL/MOL
REMARK 923 INTER-LIGAND FREE ENERGY PREDICTED BY IDOCK:   -3.47 KCAL/MOL
REMARK 924 INTRA-LIGAND FREE ENERGY PREDICTED BY IDOCK:   -0.92 KCAL/MOL
REMARK 927      BINDING AFFINITY PREDICTED BY RF-SCORE:    0.00 PKD
ROOT
HETATM    1  K   UNL     1      -6.773  10.440  70.113  1.00  0.00    -0.055 K  
HETATM    2  C   UNL     2      -9.449   8.872  68.225  1.00  0.00    -0.140 C  
HETATM    3  H   UNL     2      -7.773   8.798  69.270  1.00  0.00     0.000 HD 
HETATM    4  O   UNL     2      -8.002   8.853  68.350  1.00  0.00    -0.102 OA 
ENDROOT
BRANCH   2   5
HETATM    5  C   UNL     2      -9.819   8.961  66.742  1.00  0.00    -0.241 C  
HETATM    6  O   UNL     2      -8.630   9.215  65.986  1.00  0.00    -0.134 OA 
HETATM    7  H   UNL     2      -8.860   9.270  65.066  1.00  0.00     0.000 HD 
ENDBRANCH   2   5
BRANCH   2   8
HETATM    8  C   UNL     2     -10.112   9.964  69.104  1.00  0.00    -0.200 C  
HETATM    9  O   UNL     2      -9.175  10.221  70.173  1.00  0.00    -0.371 OA 
HETATM   10  H   UNL     2      -9.581  10.889  70.711  1.00  0.00     0.000 HD 
BRANCH   8  11
HETATM   11  C   UNL     2     -10.516  11.267  68.351  1.00  0.00    -0.197 C  
HETATM   12  O   UNL     2      -9.401  12.170  68.229  1.00  0.00    -0.198 OA 
HETATM   13  H   UNL     2      -9.647  12.965  67.770  1.00  0.00     0.000 HD 
BRANCH  11  14
HETATM   14  C   UNL     2     -11.721  12.009  68.955  1.00  0.00    -0.326 C  
HETATM   15  C   UNL     2     -11.835  13.461  68.411  1.00  0.00    -0.366 C  
HETATM   16  O   UNL     2     -11.664  12.006  70.393  1.00  0.00    -0.506 OA 
HETATM   17  H   UNL     2     -12.408  12.464  70.765  1.00  0.00     0.000 HD 
HETATM   18  O   UNL     2     -11.498  13.593  67.193  1.00  0.00    -0.311 OA 
HETATM   19  O   UNL     2     -12.155  14.320  69.281  1.00  0.00    -0.325 OA 
ENDBRANCH  11  14
ENDBRANCH   8  11
ENDBRANCH   2   8
TORSDOF 4
ENDMDL
MODEL      289
REMARK 921   NORMALIZED FREE ENERGY PREDICTED BY IDOCK:   -2.74 KCAL/MOL
REMARK 922        TOTAL FREE ENERGY PREDICTED BY IDOCK:   -4.39 KCAL/MOL
REMARK 923 INTER-LIGAND FREE ENERGY PREDICTED BY IDOCK:   -3.84 KCAL/MOL
REMARK 924 INTRA-LIGAND FREE ENERGY PREDICTED BY IDOCK:   -0.55 KCAL/MOL
REMARK 927      BINDING AFFINITY PREDICTED BY RF-SCORE:    0.00 PKD
ROOT
HETATM    1  K   UNL     1      -8.746   5.923  68.158  1.00  0.00    -0.109 K  
HETATM    2  C   UNL     2      -9.887   8.530  70.413  1.00  0.00    -0.179 C  
HETATM    3  H   UNL     2      -8.950   6.830  70.040  1.00  0.00     0.000 HD 
HETATM    4  O   UNL     2      -9.825   7.083  70.309  1.00  0.00    -0.176 OA 
ENDROOT
BRANCH   2   5
HETATM    5  C   UNL     2     -11.296   8.939  70.846  1.00  0.00    -0.283 C  
HETATM    6  O   UNL     2     -12.193   7.856  70.574  1.00  0.00    -0.487 OA 
HETATM    7  H   UNL     2     -13.068   8.110  70.843  1.00  0.00     0.000 HD 
ENDBRANCH   2   5
BRANCH   2   8
HETATM    8  C   UNL     2      -9.392   9.245  69.129  1.00  0.00    -0.157 C  
HETATM    9  O   UNL     2      -8.236   8.496  68.691  1.00  0.00    -0.119 OA 
HETATM   10  H   UNL     2      -7.933   8.934  67.905  1.00  0.00     0.000 HD 
BRANCH   8  11
HETATM   11  C   UNL     2     -10.456   9.395  68.001  1.00  0.00    -0.228 C  
HETATM   12  O   UNL     2     -10.532   8.208  67.189  1.00  0.00    -0.295 OA 
HETATM   13  H   UNL     2     -11.181   8.299  66.501  1.00  0.00     0.000 HD 
BRANCH  11  14
HETATM   14  C   UNL     2     -10.268  10.629  67.101  1.00  0.00    -0.216 C  
HETATM   15  C   UNL     2     -11.534  11.532  67.090  1.00  0.00    -0.237 C  
HETATM   16  O   UNL     2      -9.907  10.242  65.762  1.00  0.00    -0.224 OA 
HETATM   17  H   UNL     2      -9.791  11.004  65.206  1.00  0.00     0.000 HD 
HETATM   18  O   UNL     2     -12.144  11.592  68.202  1.00  0.00    -0.604 OA 
HETATM   19  O   UNL     2     -11.827  12.005  65.956  1.00  0.00    -0.522 OA 
ENDBRANCH  11  14
ENDBRANCH   8  11
ENDBRANCH   2   8
TORSDOF 4
ENDMDL
MODEL      290
REMARK 921   NORMALIZED FREE ENERGY PREDICTED BY IDOCK:   -2.74 KCAL/MOL
REMARK 922        TOTAL FREE ENERGY PREDICTED BY IDOCK:   -4.39 KCAL/MOL
REMARK 923 INTER-LIGAND FREE ENERGY PREDICTED BY IDOCK:   -3.91 KCAL/MOL
REMARK 924 INTRA-LIGAND FREE ENERGY PREDICTED BY IDOCK:   -0.48 KCAL/MOL
REMARK 927      BINDING AFFINITY PREDICTED BY RF-SCORE:    0.00 PKD
ROOT
HETATM    1  K   UNL     1     -11.285   7.036  66.628  1.00  0.00    -0.318 K  
HETATM    2  C   UNL     2     -10.555   9.562  69.133  1.00  0.00    -0.222 C  
HETATM    3  H   UNL     2     -10.064   7.983  68.051  1.00  0.00     0.000 HD 
HETATM    4  O   UNL     2     -10.435   8.132  68.912  1.00  0.00    -0.215 OA 
ENDROOT
BRANCH   2   5
HETATM    5  C   UNL     2     -11.152   9.804  70.521  1.00  0.00    -0.321 C  
HETATM    6  O   UNL     2     -12.282   8.940  70.693  1.00  0.00    -0.486 OA 
HETATM    7  H   UNL     2     -12.652   9.090  71.554  1.00  0.00     0.000 HD 
ENDBRANCH   2   5
BRANCH   2   8
HETATM    8  C   UNL     2     -11.314  10.284  67.989  1.00  0.00    -0.146 C  
HETATM    9  O   UNL     2     -12.400  10.990  68.631  1.00  0.00    -0.753 OA 
HETATM   10  H   UNL     2     -12.864  11.431  67.931  1.00  0.00     0.000 HD 
BRANCH   8  11
HETATM   11  C   UNL     2     -10.443  11.225  67.105  1.00  0.00    -0.222 C  
HETATM   12  O   UNL     2     -10.960  12.570  67.101  1.00  0.00    -0.246 OA 
HETATM   13  H   UNL     2     -10.429  13.144  66.562  1.00  0.00     0.000 HD 
BRANCH  11  14
HETATM   14  C   UNL     2     -10.242  10.742  65.658  1.00  0.00    -0.257 C  
HETATM   15  C   UNL     2      -8.790  10.243  65.413  1.00  0.00    -0.172 C  
HETATM   16  O   UNL     2     -10.592  11.772  64.715  1.00  0.00    -0.274 OA 
HETATM   17  H   UNL     2     -10.468  11.474  63.821  1.00  0.00     0.000 HD 
HETATM   18  O   UNL     2      -8.267   9.647  66.405  1.00  0.00    -0.117 OA 
HETATM   19  O   UNL     2      -8.303  10.582  64.298  1.00  0.00    -0.160 OA 
ENDBRANCH  11  14
ENDBRANCH   8  11
ENDBRANCH   2   8
TORSDOF 4
ENDMDL
MODEL      291
REMARK 921   NORMALIZED FREE ENERGY PREDICTED BY IDOCK:   -2.73 KCAL/MOL
REMARK 922        TOTAL FREE ENERGY PREDICTED BY IDOCK:   -4.38 KCAL/MOL
REMARK 923 INTER-LIGAND FREE ENERGY PREDICTED BY IDOCK:   -3.69 KCAL/MOL
REMARK 924 INTRA-LIGAND FREE ENERGY PREDICTED BY IDOCK:   -0.70 KCAL/MOL
REMARK 927      BINDING AFFINITY PREDICTED BY RF-SCORE:    0.00 PKD
ROOT
HETATM    1  K   UNL     1     -10.485   5.763  70.392  1.00  0.00    -0.172 K  
HETATM    2  C   UNL     2     -11.628   8.909  71.800  1.00  0.00    -0.352 C  
HETATM    3  H   UNL     2     -10.714   7.162  71.941  1.00  0.00     0.000 HD 
HETATM    4  O   UNL     2     -11.589   7.490  72.106  1.00  0.00    -0.276 OA 
ENDROOT
BRANCH   2   5
HETATM    5  C   UNL     2     -13.039   9.437  72.067  1.00  0.00    -0.433 C  
HETATM    6  O   UNL     2     -13.832   8.377  72.613  1.00  0.00    -0.615 OA 
HETATM    7  H   UNL     2     -14.708   8.705  72.778  1.00  0.00     0.000 HD 
ENDBRANCH   2   5
BRANCH   2   8
HETATM    8  C   UNL     2     -11.094   9.231  70.381  1.00  0.00    -0.255 C  
HETATM    9  O   UNL     2     -12.056  10.144  69.805  1.00  0.00    -0.473 OA 
HETATM   10  H   UNL     2     -11.729  10.341  68.936  1.00  0.00     0.000 HD 
BRANCH   8  11
HETATM   11  C   UNL     2      -9.644   9.797  70.330  1.00  0.00    -0.208 C  
HETATM   12  O   UNL     2      -9.396  10.495  69.094  1.00  0.00    -0.194 OA 
HETATM   13  H   UNL     2      -8.511  10.840  69.063  1.00  0.00     0.000 HD 
BRANCH  11  14
HETATM   14  C   UNL     2      -8.539   8.753  70.567  1.00  0.00    -0.169 C  
HETATM   15  C   UNL     2      -7.121   9.356  70.358  1.00  0.00    -0.104 C  
HETATM   16  O   UNL     2      -8.729   7.598  69.728  1.00  0.00    -0.138 OA 
HETATM   17  H   UNL     2      -8.047   6.953  69.875  1.00  0.00     0.000 HD 
HETATM   18  O   UNL     2      -7.006  10.564  70.736  1.00  0.00    -0.263 OA 
HETATM   19  O   UNL     2      -6.313   8.593  69.758  1.00  0.00    -0.035 OA 
ENDBRANCH  11  14
ENDBRANCH   8  11
ENDBRANCH   2   8
TORSDOF 4
ENDMDL
MODEL      292
REMARK 921   NORMALIZED FREE ENERGY PREDICTED BY IDOCK:   -2.72 KCAL/MOL
REMARK 922        TOTAL FREE ENERGY PREDICTED BY IDOCK:   -4.37 KCAL/MOL
REMARK 923 INTER-LIGAND FREE ENERGY PREDICTED BY IDOCK:   -3.47 KCAL/MOL
REMARK 924 INTRA-LIGAND FREE ENERGY PREDICTED BY IDOCK:   -0.90 KCAL/MOL
REMARK 927      BINDING AFFINITY PREDICTED BY RF-SCORE:    0.00 PKD
ROOT
HETATM    1  K   UNL     1     -10.683  10.703  64.675  1.00  0.00    -0.304 K  
HETATM    2  C   UNL     2     -10.498  13.094  67.402  1.00  0.00    -0.242 C  
HETATM    3  H   UNL     2     -10.957  12.594  65.546  1.00  0.00     0.000 HD 
HETATM    4  O   UNL     2     -10.211  12.985  65.983  1.00  0.00    -0.276 OA 
ENDROOT
BRANCH   2   5
HETATM    5  C   UNL     2      -9.294  13.724  68.106  1.00  0.00    -0.211 C  
HETATM    6  O   UNL     2      -9.289  15.131  67.841  1.00  0.00    -0.184 OA 
HETATM    7  H   UNL     2      -8.543  15.522  68.278  1.00  0.00     0.000 HD 
ENDBRANCH   2   5
BRANCH   2   8
HETATM    8  C   UNL     2     -10.958  11.751  68.025  1.00  0.00    -0.225 C  
HETATM    9  O   UNL     2     -11.564  11.010  66.942  1.00  0.00    -0.378 OA 
HETATM   10  H   UNL     2     -11.846  10.188  67.324  1.00  0.00     0.000 HD 
BRANCH   8  11
HETATM   11  C   UNL     2      -9.843  10.935  68.744  1.00  0.00    -0.196 C  
HETATM   12  O   UNL     2      -9.078  10.152  67.807  1.00  0.00    -0.131 OA 
HETATM   13  H   UNL     2      -8.398   9.655  68.245  1.00  0.00     0.000 HD 
BRANCH  11  14
HETATM   14  C   UNL     2     -10.341  10.035  69.888  1.00  0.00    -0.272 C  
HETATM   15  C   UNL     2      -9.191   9.179  70.490  1.00  0.00    -0.241 C  
HETATM   16  O   UNL     2     -11.426   9.195  69.451  1.00  0.00    -0.430 OA 
HETATM   17  H   UNL     2     -11.733   8.640  70.157  1.00  0.00     0.000 HD 
HETATM   18  O   UNL     2      -8.067   9.769  70.532  1.00  0.00    -0.222 OA 
HETATM   19  O   UNL     2      -9.516   7.990  70.766  1.00  0.00    -0.160 OA 
ENDBRANCH  11  14
ENDBRANCH   8  11
ENDBRANCH   2   8
TORSDOF 4
ENDMDL
MODEL      293
REMARK 921   NORMALIZED FREE ENERGY PREDICTED BY IDOCK:   -2.71 KCAL/MOL
REMARK 922        TOTAL FREE ENERGY PREDICTED BY IDOCK:   -4.36 KCAL/MOL
REMARK 923 INTER-LIGAND FREE ENERGY PREDICTED BY IDOCK:   -4.04 KCAL/MOL
REMARK 924 INTRA-LIGAND FREE ENERGY PREDICTED BY IDOCK:   -0.31 KCAL/MOL
REMARK 927      BINDING AFFINITY PREDICTED BY RF-SCORE:    0.00 PKD
ROOT
HETATM    1  K   UNL     1      -8.732  13.628  65.632  1.00  0.00    -0.413 K  
HETATM    2  C   UNL     2      -6.727  15.330  68.135  1.00  0.00    -0.129 C  
HETATM    3  H   UNL     2      -6.935  14.383  66.413  1.00  0.00     0.000 HD 
HETATM    4  O   UNL     2      -6.711  14.140  67.303  1.00  0.00    -0.250 OA 
ENDROOT
BRANCH   2   5
HETATM    5  C   UNL     2      -6.366  14.939  69.570  1.00  0.00    -0.131 C  
HETATM    6  O   UNL     2      -6.798  13.594  69.803  1.00  0.00    -0.325 OA 
HETATM    7  H   UNL     2      -6.574  13.352  70.693  1.00  0.00     0.000 HD 
ENDBRANCH   2   5
BRANCH   2   8
HETATM    8  C   UNL     2      -8.051  16.128  68.016  1.00  0.00    -0.146 C  
HETATM    9  O   UNL     2      -7.689  17.511  68.234  1.00  0.00    -0.228 OA 
HETATM   10  H   UNL     2      -8.500  17.999  68.162  1.00  0.00     0.000 HD 
BRANCH   8  11
HETATM   11  C   UNL     2      -8.828  15.928  66.681  1.00  0.00    -0.281 C  
HETATM   12  O   UNL     2      -8.712  17.083  65.827  1.00  0.00    -0.522 OA 
HETATM   13  H   UNL     2      -9.186  16.961  65.013  1.00  0.00     0.000 HD 
BRANCH  11  14
HETATM   14  C   UNL     2     -10.311  15.555  66.851  1.00  0.00    -0.290 C  
HETATM   15  C   UNL     2     -11.026  16.487  67.870  1.00  0.00    -0.288 C  
HETATM   16  O   UNL     2     -10.457  14.175  67.234  1.00  0.00    -0.269 OA 
HETATM   17  H   UNL     2     -11.373  13.945  67.339  1.00  0.00     0.000 HD 
HETATM   18  O   UNL     2     -10.629  17.694  67.844  1.00  0.00    -0.382 OA 
HETATM   19  O   UNL     2     -11.832  15.895  68.641  1.00  0.00    -0.388 OA 
ENDBRANCH  11  14
ENDBRANCH   8  11
ENDBRANCH   2   8
TORSDOF 4
ENDMDL
MODEL      294
REMARK 921   NORMALIZED FREE ENERGY PREDICTED BY IDOCK:   -2.69 KCAL/MOL
REMARK 922        TOTAL FREE ENERGY PREDICTED BY IDOCK:   -4.33 KCAL/MOL
REMARK 923 INTER-LIGAND FREE ENERGY PREDICTED BY IDOCK:   -3.81 KCAL/MOL
REMARK 924 INTRA-LIGAND FREE ENERGY PREDICTED BY IDOCK:   -0.53 KCAL/MOL
REMARK 927      BINDING AFFINITY PREDICTED BY RF-SCORE:    0.00 PKD
ROOT
HETATM    1  K   UNL     1     -11.070  13.849  66.681  1.00  0.00    -0.279 K  
HETATM    2  C   UNL     2     -11.378  10.632  68.336  1.00  0.00    -0.283 C  
HETATM    3  H   UNL     2     -12.054  12.051  67.138  1.00  0.00     0.000 HD 
HETATM    4  O   UNL     2     -12.151  11.829  68.056  1.00  0.00    -0.572 OA 
ENDROOT
BRANCH   2   5
HETATM    5  C   UNL     2     -11.534  10.273  69.815  1.00  0.00    -0.256 C  
HETATM    6  O   UNL     2     -12.916  10.386  70.173  1.00  0.00    -0.539 OA 
HETATM    7  H   UNL     2     -13.013  10.163  71.091  1.00  0.00     0.000 HD 
ENDBRANCH   2   5
BRANCH   2   8
HETATM    8  C   UNL     2      -9.903  10.747  67.870  1.00  0.00    -0.167 C  
HETATM    9  O   UNL     2      -9.940  10.604  66.432  1.00  0.00    -0.206 OA 
HETATM   10  H   UNL     2      -9.038  10.675  66.147  1.00  0.00     0.000 HD 
BRANCH   8  11
HETATM   11  C   UNL     2      -9.167  12.047  68.312  1.00  0.00    -0.192 C  
HETATM   12  O   UNL     2     -10.090  13.018  68.843  1.00  0.00    -0.424 OA 
HETATM   13  H   UNL     2      -9.641  13.811  69.112  1.00  0.00     0.000 HD 
BRANCH  11  14
HETATM   14  C   UNL     2      -8.300  12.697  67.221  1.00  0.00    -0.189 C  
HETATM   15  C   UNL     2      -6.791  12.378  67.418  1.00  0.00    -0.147 C  
HETATM   16  O   UNL     2      -8.517  14.119  67.165  1.00  0.00    -0.206 OA 
HETATM   17  H   UNL     2      -7.981  14.520  66.490  1.00  0.00     0.000 HD 
HETATM   18  O   UNL     2      -6.556  11.213  67.866  1.00  0.00    -0.061 OA 
HETATM   19  O   UNL     2      -6.019  13.352  67.193  1.00  0.00    -0.285 OA 
ENDBRANCH  11  14
ENDBRANCH   8  11
ENDBRANCH   2   8
TORSDOF 4
ENDMDL
MODEL      295
REMARK 921   NORMALIZED FREE ENERGY PREDICTED BY IDOCK:   -2.68 KCAL/MOL
REMARK 922        TOTAL FREE ENERGY PREDICTED BY IDOCK:   -4.32 KCAL/MOL
REMARK 923 INTER-LIGAND FREE ENERGY PREDICTED BY IDOCK:   -3.85 KCAL/MOL
REMARK 924 INTRA-LIGAND FREE ENERGY PREDICTED BY IDOCK:   -0.47 KCAL/MOL
REMARK 927      BINDING AFFINITY PREDICTED BY RF-SCORE:    0.00 PKD
ROOT
HETATM    1  K   UNL     1      -8.721  13.002  69.324  1.00  0.00    -0.345 K  
HETATM    2  C   UNL     2      -8.896   9.692  67.840  1.00  0.00    -0.119 C  
HETATM    3  H   UNL     2      -7.905  11.170  68.700  1.00  0.00     0.000 HD 
HETATM    4  O   UNL     2      -8.083  10.895  67.809  1.00  0.00    -0.112 OA 
ENDROOT
BRANCH   2   5
HETATM    5  C   UNL     2      -9.184   9.248  66.404  1.00  0.00    -0.180 C  
HETATM    6  O   UNL     2      -9.474  10.406  65.613  1.00  0.00    -0.185 OA 
HETATM    7  H   UNL     2      -9.653  10.131  64.722  1.00  0.00     0.000 HD 
ENDBRANCH   2   5
BRANCH   2   8
HETATM    8  C   UNL     2     -10.167   9.849  68.715  1.00  0.00    -0.189 C  
HETATM    9  O   UNL     2     -11.250  10.077  67.785  1.00  0.00    -0.459 OA 
HETATM   10  H   UNL     2     -12.028  10.173  68.320  1.00  0.00     0.000 HD 
BRANCH   8  11
HETATM   11  C   UNL     2     -10.460   8.661  69.679  1.00  0.00    -0.220 C  
HETATM   12  O   UNL     2     -11.255   7.647  69.035  1.00  0.00    -0.420 OA 
HETATM   13  H   UNL     2     -11.434   6.922  69.624  1.00  0.00     0.000 HD 
BRANCH  11  14
HETATM   14  C   UNL     2     -11.112   9.064  71.013  1.00  0.00    -0.289 C  
HETATM   15  C   UNL     2     -10.516   8.267  72.208  1.00  0.00    -0.321 C  
HETATM   16  O   UNL     2     -12.542   8.907  70.959  1.00  0.00    -0.465 OA 
HETATM   17  H   UNL     2     -12.944   9.155  71.783  1.00  0.00     0.000 HD 
HETATM   18  O   UNL     2      -9.274   8.023  72.107  1.00  0.00    -0.140 OA 
HETATM   19  O   UNL     2     -11.368   7.897  73.064  1.00  0.00    -0.408 OA 
ENDBRANCH  11  14
ENDBRANCH   8  11
ENDBRANCH   2   8
TORSDOF 4
ENDMDL
MODEL      296
REMARK 921   NORMALIZED FREE ENERGY PREDICTED BY IDOCK:   -2.68 KCAL/MOL
REMARK 922        TOTAL FREE ENERGY PREDICTED BY IDOCK:   -4.32 KCAL/MOL
REMARK 923 INTER-LIGAND FREE ENERGY PREDICTED BY IDOCK:   -3.57 KCAL/MOL
REMARK 924 INTRA-LIGAND FREE ENERGY PREDICTED BY IDOCK:   -0.75 KCAL/MOL
REMARK 927      BINDING AFFINITY PREDICTED BY RF-SCORE:    0.00 PKD
ROOT
HETATM    1  K   UNL     1     -13.422  10.114  69.804  1.00  0.00    -0.600 K  
HETATM    2  C   UNL     2     -10.967  11.338  67.425  1.00  0.00    -0.282 C  
HETATM    3  H   UNL     2     -12.021  11.505  69.088  1.00  0.00     0.000 HD 
HETATM    4  O   UNL     2     -12.115  11.794  68.189  1.00  0.00    -0.556 OA 
ENDROOT
BRANCH   2   5
HETATM    5  C   UNL     2     -11.118  11.804  65.975  1.00  0.00    -0.312 C  
HETATM    6  O   UNL     2      -9.815  11.921  65.391  1.00  0.00    -0.238 OA 
HETATM    7  H   UNL     2      -9.909  12.210  64.492  1.00  0.00     0.000 HD 
ENDBRANCH   2   5
BRANCH   2   8
HETATM    8  C   UNL     2     -10.715   9.815  67.572  1.00  0.00    -0.264 C  
HETATM    9  O   UNL     2     -10.276   9.369  66.269  1.00  0.00    -0.274 OA 
HETATM   10  H   UNL     2     -10.122   8.437  66.359  1.00  0.00     0.000 HD 
BRANCH   8  11
HETATM   11  C   UNL     2      -9.717   9.413  68.698  1.00  0.00    -0.152 C  
HETATM   12  O   UNL     2      -8.362   9.377  68.210  1.00  0.00    -0.117 OA 
HETATM   13  H   UNL     2      -7.753   9.131  68.897  1.00  0.00     0.000 HD 
BRANCH  11  14
HETATM   14  C   UNL     2     -10.049   8.090  69.408  1.00  0.00    -0.197 C  
HETATM   15  C   UNL     2      -8.827   7.533  70.191  1.00  0.00    -0.147 C  
HETATM   16  O   UNL     2     -10.544   7.112  68.475  1.00  0.00    -0.201 OA 
HETATM   17  H   UNL     2     -10.750   6.295  68.914  1.00  0.00     0.000 HD 
HETATM   18  O   UNL     2      -8.097   8.425  70.727  1.00  0.00    -0.096 OA 
HETATM   19  O   UNL     2      -8.679   6.282  70.107  1.00  0.00    -0.135 OA 
ENDBRANCH  11  14
ENDBRANCH   8  11
ENDBRANCH   2   8
TORSDOF 4
ENDMDL
MODEL      297
REMARK 921   NORMALIZED FREE ENERGY PREDICTED BY IDOCK:   -2.67 KCAL/MOL
REMARK 922        TOTAL FREE ENERGY PREDICTED BY IDOCK:   -4.31 KCAL/MOL
REMARK 923 INTER-LIGAND FREE ENERGY PREDICTED BY IDOCK:   -4.05 KCAL/MOL
REMARK 924 INTRA-LIGAND FREE ENERGY PREDICTED BY IDOCK:   -0.26 KCAL/MOL
REMARK 927      BINDING AFFINITY PREDICTED BY RF-SCORE:    0.00 PKD
ROOT
HETATM    1  K   UNL     1      -9.328  10.581  70.208  1.00  0.00    -0.325 K  
HETATM    2  C   UNL     2     -10.488  10.945  66.786  1.00  0.00    -0.251 C  
HETATM    3  H   UNL     2     -10.712  10.326  68.649  1.00  0.00     0.000 HD 
HETATM    4  O   UNL     2     -10.391   9.950  67.839  1.00  0.00    -0.184 OA 
ENDROOT
BRANCH   2   5
HETATM    5  C   UNL     2      -9.970  10.339  65.479  1.00  0.00    -0.296 C  
HETATM    6  O   UNL     2      -9.739   8.940  65.680  1.00  0.00    -0.454 OA 
HETATM    7  H   UNL     2      -9.418   8.564  64.870  1.00  0.00     0.000 HD 
ENDBRANCH   2   5
BRANCH   2   8
HETATM    8  C   UNL     2      -9.812  12.288  67.166  1.00  0.00    -0.203 C  
HETATM    9  O   UNL     2      -8.611  12.356  66.365  1.00  0.00    -0.398 OA 
HETATM   10  H   UNL     2      -8.198  13.178  66.598  1.00  0.00     0.000 HD 
BRANCH   8  11
HETATM   11  C   UNL     2     -10.706  13.552  66.994  1.00  0.00    -0.277 C  
HETATM   12  O   UNL     2     -10.595  14.096  65.664  1.00  0.00    -0.287 OA 
HETATM   13  H   UNL     2     -11.140  14.867  65.559  1.00  0.00     0.000 HD 
BRANCH  11  14
HETATM   14  C   UNL     2     -10.456  14.661  68.031  1.00  0.00    -0.236 C  
HETATM   15  C   UNL     2     -11.708  14.912  68.918  1.00  0.00    -0.315 C  
HETATM   16  O   UNL     2     -10.031  15.880  67.393  1.00  0.00    -0.234 OA 
HETATM   17  H   UNL     2      -9.877  16.564  68.034  1.00  0.00     0.000 HD 
HETATM   18  O   UNL     2     -12.374  13.866  69.192  1.00  0.00    -0.314 OA 
HETATM   19  O   UNL     2     -11.937  16.130  69.164  1.00  0.00    -0.281 OA 
ENDBRANCH  11  14
ENDBRANCH   8  11
ENDBRANCH   2   8
TORSDOF 4
ENDMDL
MODEL      298
REMARK 921   NORMALIZED FREE ENERGY PREDICTED BY IDOCK:   -2.66 KCAL/MOL
REMARK 922        TOTAL FREE ENERGY PREDICTED BY IDOCK:   -4.29 KCAL/MOL
REMARK 923 INTER-LIGAND FREE ENERGY PREDICTED BY IDOCK:   -3.41 KCAL/MOL
REMARK 924 INTRA-LIGAND FREE ENERGY PREDICTED BY IDOCK:   -0.88 KCAL/MOL
REMARK 927      BINDING AFFINITY PREDICTED BY RF-SCORE:    0.00 PKD
ROOT
HETATM    1  K   UNL     1      -7.018  10.727  68.538  1.00  0.00    -0.058 K  
HETATM    2  C   UNL     2     -10.467  11.013  67.440  1.00  0.00    -0.218 C  
HETATM    3  H   UNL     2      -8.525  11.281  67.186  1.00  0.00     0.000 HD 
HETATM    4  O   UNL     2      -9.247  11.796  67.525  1.00  0.00    -0.168 OA 
ENDROOT
BRANCH   2   5
HETATM    5  C   UNL     2     -11.630  11.844  67.987  1.00  0.00    -0.332 C  
HETATM    6  O   UNL     2     -12.475  10.993  68.770  1.00  0.00    -0.712 OA 
HETATM    7  H   UNL     2     -13.197  11.508  69.109  1.00  0.00     0.000 HD 
ENDBRANCH   2   5
BRANCH   2   8
HETATM    8  C   UNL     2     -10.330   9.616  68.097  1.00  0.00    -0.209 C  
HETATM    9  O   UNL     2      -9.787   8.757  67.069  1.00  0.00    -0.177 OA 
HETATM   10  H   UNL     2      -9.703   7.902  67.471  1.00  0.00     0.000 HD 
BRANCH   8  11
HETATM   11  C   UNL     2      -9.481   9.577  69.403  1.00  0.00    -0.176 C  
HETATM   12  O   UNL     2      -8.312   8.749  69.245  1.00  0.00    -0.116 OA 
HETATM   13  H   UNL     2      -7.794   8.725  70.042  1.00  0.00     0.000 HD 
BRANCH  11  14
HETATM   14  C   UNL     2     -10.256   9.146  70.660  1.00  0.00    -0.246 C  
HETATM   15  C   UNL     2     -11.090   7.858  70.409  1.00  0.00    -0.245 C  
HETATM   16  O   UNL     2     -11.097  10.211  71.141  1.00  0.00    -0.291 OA 
HETATM   17  H   UNL     2     -11.575   9.945  71.917  1.00  0.00     0.000 HD 
HETATM   18  O   UNL     2     -10.537   7.018  69.633  1.00  0.00    -0.219 OA 
HETATM   19  O   UNL     2     -12.238   7.869  70.936  1.00  0.00    -0.243 OA 
ENDBRANCH  11  14
ENDBRANCH   8  11
ENDBRANCH   2   8
TORSDOF 4
ENDMDL
MODEL      299
REMARK 921   NORMALIZED FREE ENERGY PREDICTED BY IDOCK:   -2.66 KCAL/MOL
REMARK 922        TOTAL FREE ENERGY PREDICTED BY IDOCK:   -4.29 KCAL/MOL
REMARK 923 INTER-LIGAND FREE ENERGY PREDICTED BY IDOCK:   -3.42 KCAL/MOL
REMARK 924 INTRA-LIGAND FREE ENERGY PREDICTED BY IDOCK:   -0.88 KCAL/MOL
REMARK 927      BINDING AFFINITY PREDICTED BY RF-SCORE:    0.00 PKD
ROOT
HETATM    1  K   UNL     1      -7.615   7.733  70.888  1.00  0.00    -0.067 K  
HETATM    2  C   UNL     2     -10.887   9.199  71.465  1.00  0.00    -0.366 C  
HETATM    3  H   UNL     2      -8.944   9.076  71.805  1.00  0.00     0.000 HD 
HETATM    4  O   UNL     2      -9.730   8.713  72.195  1.00  0.00    -0.292 OA 
ENDROOT
BRANCH   2   5
HETATM    5  C   UNL     2     -12.154   8.614  72.094  1.00  0.00    -0.381 C  
HETATM    6  O   UNL     2     -11.793   7.472  72.878  1.00  0.00    -0.580 OA 
HETATM    7  H   UNL     2     -12.579   7.109  73.268  1.00  0.00     0.000 HD 
ENDBRANCH   2   5
BRANCH   2   8
HETATM    8  C   UNL     2     -10.776   8.960  69.937  1.00  0.00    -0.227 C  
HETATM    9  O   UNL     2      -9.759   9.878  69.476  1.00  0.00    -0.195 OA 
HETATM   10  H   UNL     2      -9.692   9.732  68.541  1.00  0.00     0.000 HD 
BRANCH   8  11
HETATM   11  C   UNL     2     -10.475   7.491  69.515  1.00  0.00    -0.226 C  
HETATM   12  O   UNL     2      -9.992   6.713  70.627  1.00  0.00    -0.183 OA 
HETATM   13  H   UNL     2      -9.808   5.817  70.370  1.00  0.00     0.000 HD 
BRANCH  11  14
HETATM   14  C   UNL     2      -9.512   7.349  68.324  1.00  0.00    -0.142 C  
HETATM   15  C   UNL     2     -10.109   6.453  67.203  1.00  0.00    -0.168 C  
HETATM   16  O   UNL     2      -8.232   6.847  68.751  1.00  0.00    -0.119 OA 
HETATM   17  H   UNL     2      -7.637   6.760  68.015  1.00  0.00     0.000 HD 
HETATM   18  O   UNL     2     -11.364   6.573  67.049  1.00  0.00    -0.342 OA 
HETATM   19  O   UNL     2      -9.279   5.665  66.669  1.00  0.00    -0.127 OA 
ENDBRANCH  11  14
ENDBRANCH   8  11
ENDBRANCH   2   8
TORSDOF 4
ENDMDL
MODEL      300
REMARK 921   NORMALIZED FREE ENERGY PREDICTED BY IDOCK:   -2.64 KCAL/MOL
REMARK 922        TOTAL FREE ENERGY PREDICTED BY IDOCK:   -4.27 KCAL/MOL
REMARK 923 INTER-LIGAND FREE ENERGY PREDICTED BY IDOCK:   -3.61 KCAL/MOL
REMARK 924 INTRA-LIGAND FREE ENERGY PREDICTED BY IDOCK:   -0.67 KCAL/MOL
REMARK 927      BINDING AFFINITY PREDICTED BY RF-SCORE:    0.00 PKD
ROOT
HETATM    1  K   UNL     1      -9.794  14.880  69.552  1.00  0.00    -0.185 K  
HETATM    2  C   UNL     2     -11.671  11.779  69.349  1.00  0.00    -0.341 C  
HETATM    3  H   UNL     2     -11.545  13.751  69.294  1.00  0.00     0.000 HD 
HETATM    4  O   UNL     2     -11.743  13.097  69.954  1.00  0.00    -0.300 OA 
ENDROOT
BRANCH   2   5
HETATM    5  C   UNL     2     -11.990  10.726  70.412  1.00  0.00    -0.357 C  
HETATM    6  O   UNL     2     -13.358  10.327  70.270  1.00  0.00    -0.502 OA 
HETATM    7  H   UNL     2     -13.556   9.674  70.929  1.00  0.00     0.000 HD 
ENDBRANCH   2   5
BRANCH   2   8
HETATM    8  C   UNL     2     -10.335  11.533  68.602  1.00  0.00    -0.210 C  
HETATM    9  O   UNL     2      -9.894  10.222  69.021  1.00  0.00    -0.186 OA 
HETATM   10  H   UNL     2      -9.076  10.071  68.564  1.00  0.00     0.000 HD 
BRANCH   8  11
HETATM   11  C   UNL     2     -10.408  11.661  67.051  1.00  0.00    -0.217 C  
HETATM   12  O   UNL     2      -9.479  10.768  66.407  1.00  0.00    -0.165 OA 
HETATM   13  H   UNL     2      -9.523  10.846  65.461  1.00  0.00     0.000 HD 
BRANCH  11  14
HETATM   14  C   UNL     2     -10.212  13.090  66.515  1.00  0.00    -0.268 C  
HETATM   15  C   UNL     2      -8.871  13.709  67.000  1.00  0.00    -0.223 C  
HETATM   16  O   UNL     2     -11.322  13.934  66.874  1.00  0.00    -0.306 OA 
HETATM   17  H   UNL     2     -11.201  14.816  66.542  1.00  0.00     0.000 HD 
HETATM   18  O   UNL     2      -7.912  12.880  67.086  1.00  0.00    -0.167 OA 
HETATM   19  O   UNL     2      -8.947  14.926  67.329  1.00  0.00    -0.180 OA 
ENDBRANCH  11  14
ENDBRANCH   8  11
ENDBRANCH   2   8
TORSDOF 4
ENDMDL
MODEL      301
REMARK 921   NORMALIZED FREE ENERGY PREDICTED BY IDOCK:   -2.64 KCAL/MOL
REMARK 922        TOTAL FREE ENERGY PREDICTED BY IDOCK:   -4.26 KCAL/MOL
REMARK 923 INTER-LIGAND FREE ENERGY PREDICTED BY IDOCK:   -3.61 KCAL/MOL
REMARK 924 INTRA-LIGAND FREE ENERGY PREDICTED BY IDOCK:   -0.65 KCAL/MOL
REMARK 927      BINDING AFFINITY PREDICTED BY RF-SCORE:    0.00 PKD
ROOT
HETATM    1  K   UNL     1     -10.378  11.903  69.831  1.00  0.00    -0.421 K  
HETATM    2  C   UNL     2     -12.167   9.021  71.126  1.00  0.00    -0.275 C  
HETATM    3  H   UNL     2     -12.090  10.721  70.122  1.00  0.00     0.000 HD 
HETATM    4  O   UNL     2     -12.294  10.463  71.012  1.00  0.00    -0.319 OA 
ENDROOT
BRANCH   2   5
HETATM    5  C   UNL     2     -12.497   8.604  72.561  1.00  0.00    -0.304 C  
HETATM    6  O   UNL     2     -12.619   7.178  72.609  1.00  0.00    -0.411 OA 
HETATM    7  H   UNL     2     -12.824   6.919  73.499  1.00  0.00     0.000 HD 
ENDBRANCH   2   5
BRANCH   2   8
HETATM    8  C   UNL     2     -10.799   8.497  70.618  1.00  0.00    -0.225 C  
HETATM    9  O   UNL     2     -10.003   8.284  71.806  1.00  0.00    -0.181 OA 
HETATM   10  H   UNL     2      -9.165   7.963  71.495  1.00  0.00     0.000 HD 
BRANCH   8  11
HETATM   11  C   UNL     2     -10.866   7.226  69.720  1.00  0.00    -0.235 C  
HETATM   12  O   UNL     2     -10.308   6.079  70.390  1.00  0.00    -0.197 OA 
HETATM   13  H   UNL     2     -10.349   5.304  69.842  1.00  0.00     0.000 HD 
BRANCH  11  14
HETATM   14  C   UNL     2     -10.218   7.385  68.334  1.00  0.00    -0.183 C  
HETATM   15  C   UNL     2      -8.786   7.984  68.432  1.00  0.00    -0.134 C  
HETATM   16  O   UNL     2     -11.044   8.181  67.464  1.00  0.00    -0.483 OA 
HETATM   17  H   UNL     2     -10.643   8.278  66.608  1.00  0.00     0.000 HD 
HETATM   18  O   UNL     2      -8.128   7.601  69.449  1.00  0.00    -0.123 OA 
HETATM   19  O   UNL     2      -8.515   8.836  67.540  1.00  0.00    -0.119 OA 
ENDBRANCH  11  14
ENDBRANCH   8  11
ENDBRANCH   2   8
TORSDOF 4
ENDMDL
MODEL      302
REMARK 921   NORMALIZED FREE ENERGY PREDICTED BY IDOCK:   -2.63 KCAL/MOL
REMARK 922        TOTAL FREE ENERGY PREDICTED BY IDOCK:   -4.26 KCAL/MOL
REMARK 923 INTER-LIGAND FREE ENERGY PREDICTED BY IDOCK:   -3.61 KCAL/MOL
REMARK 924 INTRA-LIGAND FREE ENERGY PREDICTED BY IDOCK:   -0.64 KCAL/MOL
REMARK 927      BINDING AFFINITY PREDICTED BY RF-SCORE:    0.00 PKD
ROOT
HETATM    1  K   UNL     1     -12.184   6.607  66.921  1.00  0.00    -0.691 K  
HETATM    2  C   UNL     2      -8.796   7.798  67.459  1.00  0.00    -0.124 C  
HETATM    3  H   UNL     2     -10.136   6.729  66.475  1.00  0.00     0.000 HD 
HETATM    4  O   UNL     2      -9.526   6.572  67.185  1.00  0.00    -0.124 OA 
ENDROOT
BRANCH   2   5
HETATM    5  C   UNL     2      -7.812   7.546  68.604  1.00  0.00    -0.121 C  
HETATM    6  O   UNL     2      -8.520   7.628  69.846  1.00  0.00    -0.133 OA 
HETATM    7  H   UNL     2      -7.909   7.472  70.556  1.00  0.00     0.000 HD 
ENDBRANCH   2   5
BRANCH   2   8
HETATM    8  C   UNL     2      -9.731   9.013  67.691  1.00  0.00    -0.156 C  
HETATM    9  O   UNL     2      -8.979   9.925  68.523  1.00  0.00    -0.119 OA 
HETATM   10  H   UNL     2      -9.551  10.669  68.664  1.00  0.00     0.000 HD 
BRANCH   8  11
HETATM   11  C   UNL     2     -10.261   9.699  66.397  1.00  0.00    -0.217 C  
HETATM   12  O   UNL     2      -9.935   8.929  65.223  1.00  0.00    -0.296 OA 
HETATM   13  H   UNL     2     -10.259   9.347  64.434  1.00  0.00     0.000 HD 
BRANCH  11  14
HETATM   14  C   UNL     2      -9.801  11.154  66.207  1.00  0.00    -0.214 C  
HETATM   15  C   UNL     2     -10.967  12.071  65.741  1.00  0.00    -0.307 C  
HETATM   16  O   UNL     2      -8.694  11.232  65.290  1.00  0.00    -0.368 OA 
HETATM   17  H   UNL     2      -8.410  12.131  65.173  1.00  0.00     0.000 HD 
HETATM   18  O   UNL     2     -12.097  11.777  66.242  1.00  0.00    -0.446 OA 
HETATM   19  O   UNL     2     -10.644  12.918  64.861  1.00  0.00    -0.297 OA 
ENDBRANCH  11  14
ENDBRANCH   8  11
ENDBRANCH   2   8
TORSDOF 4
ENDMDL
MODEL      303
REMARK 921   NORMALIZED FREE ENERGY PREDICTED BY IDOCK:   -2.60 KCAL/MOL
REMARK 922        TOTAL FREE ENERGY PREDICTED BY IDOCK:   -4.22 KCAL/MOL
REMARK 923 INTER-LIGAND FREE ENERGY PREDICTED BY IDOCK:   -3.13 KCAL/MOL
REMARK 924 INTRA-LIGAND FREE ENERGY PREDICTED BY IDOCK:   -1.09 KCAL/MOL
REMARK 927      BINDING AFFINITY PREDICTED BY RF-SCORE:    0.00 PKD
ROOT
HETATM    1  K   UNL     1      -6.617  12.097  67.747  1.00  0.00    -0.061 K  
HETATM    2  C   UNL     2      -7.793  10.071  64.973  1.00  0.00    -0.137 C  
HETATM    3  H   UNL     2      -6.511  10.471  66.423  1.00  0.00     0.000 HD 
HETATM    4  O   UNL     2      -6.573  10.661  65.495  1.00  0.00    -0.116 OA 
ENDROOT
BRANCH   2   5
HETATM    5  C   UNL     2      -7.894  10.377  63.477  1.00  0.00    -0.082 C  
HETATM    6  O   UNL     2      -8.984   9.629  62.927  1.00  0.00    -0.239 OA 
HETATM    7  H   UNL     2      -9.046   9.819  61.998  1.00  0.00     0.000 HD 
ENDBRANCH   2   5
BRANCH   2   8
HETATM    8  C   UNL     2      -9.051  10.480  65.783  1.00  0.00    -0.179 C  
HETATM    9  O   UNL     2      -8.712  10.241  67.168  1.00  0.00    -0.129 OA 
HETATM   10  H   UNL     2      -9.481  10.491  67.664  1.00  0.00     0.000 HD 
BRANCH   8  11
HETATM   11  C   UNL     2      -9.551  11.935  65.543  1.00  0.00    -0.182 C  
HETATM   12  O   UNL     2      -8.642  12.902  66.103  1.00  0.00    -0.339 OA 
HETATM   13  H   UNL     2      -8.947  13.790  65.956  1.00  0.00     0.000 HD 
BRANCH  11  14
HETATM   14  C   UNL     2     -10.979  12.214  66.044  1.00  0.00    -0.293 C  
HETATM   15  C   UNL     2     -11.409  13.683  65.772  1.00  0.00    -0.306 C  
HETATM   16  O   UNL     2     -11.108  11.897  67.442  1.00  0.00    -0.246 OA 
HETATM   17  H   UNL     2     -11.990  12.069  67.751  1.00  0.00     0.000 HD 
HETATM   18  O   UNL     2     -10.966  14.165  64.682  1.00  0.00    -0.391 OA 
HETATM   19  O   UNL     2     -12.058  14.220  66.713  1.00  0.00    -0.430 OA 
ENDBRANCH  11  14
ENDBRANCH   8  11
ENDBRANCH   2   8
TORSDOF 4
ENDMDL
MODEL      304
REMARK 921   NORMALIZED FREE ENERGY PREDICTED BY IDOCK:   -2.59 KCAL/MOL
REMARK 922        TOTAL FREE ENERGY PREDICTED BY IDOCK:   -4.21 KCAL/MOL
REMARK 923 INTER-LIGAND FREE ENERGY PREDICTED BY IDOCK:   -3.67 KCAL/MOL
REMARK 924 INTRA-LIGAND FREE ENERGY PREDICTED BY IDOCK:   -0.54 KCAL/MOL
REMARK 927      BINDING AFFINITY PREDICTED BY RF-SCORE:    0.00 PKD
ROOT
HETATM    1  K   UNL     1     -11.573   7.465  67.342  1.00  0.00    -0.493 K  
HETATM    2  C   UNL     2     -11.048   7.123  70.919  1.00  0.00    -0.263 C  
HETATM    3  H   UNL     2     -11.054   6.403  69.078  1.00  0.00     0.000 HD 
HETATM    4  O   UNL     2     -11.666   6.429  69.803  1.00  0.00    -0.414 OA 
ENDROOT
BRANCH   2   5
HETATM    5  C   UNL     2     -12.034   7.164  72.088  1.00  0.00    -0.266 C  
HETATM    6  O   UNL     2     -11.294   7.198  73.314  1.00  0.00    -0.557 OA 
HETATM    7  H   UNL     2     -11.906   7.223  74.039  1.00  0.00     0.000 HD 
ENDBRANCH   2   5
BRANCH   2   8
HETATM    8  C   UNL     2     -10.485   8.512  70.523  1.00  0.00    -0.204 C  
HETATM    9  O   UNL     2     -11.066   9.446  71.461  1.00  0.00    -0.355 OA 
HETATM   10  H   UNL     2     -10.721  10.296  71.218  1.00  0.00     0.000 HD 
BRANCH   8  11
HETATM   11  C   UNL     2      -8.930   8.611  70.482  1.00  0.00    -0.164 C  
HETATM   12  O   UNL     2      -8.384   7.845  69.392  1.00  0.00    -0.128 OA 
HETATM   13  H   UNL     2      -7.436   7.905  69.367  1.00  0.00     0.000 HD 
BRANCH  11  14
HETATM   14  C   UNL     2      -8.228   8.222  71.794  1.00  0.00    -0.145 C  
HETATM   15  C   UNL     2      -8.099   6.679  71.943  1.00  0.00    -0.103 C  
HETATM   16  O   UNL     2      -8.904   8.788  72.932  1.00  0.00    -0.362 OA 
HETATM   17  H   UNL     2      -8.470   8.547  73.742  1.00  0.00     0.000 HD 
HETATM   18  O   UNL     2      -7.887   6.064  70.852  1.00  0.00    -0.102 OA 
HETATM   19  O   UNL     2      -8.316   6.248  73.111  1.00  0.00    -0.117 OA 
ENDBRANCH  11  14
ENDBRANCH   8  11
ENDBRANCH   2   8
TORSDOF 4
ENDMDL
MODEL      305
REMARK 921   NORMALIZED FREE ENERGY PREDICTED BY IDOCK:   -2.58 KCAL/MOL
REMARK 922        TOTAL FREE ENERGY PREDICTED BY IDOCK:   -4.19 KCAL/MOL
REMARK 923 INTER-LIGAND FREE ENERGY PREDICTED BY IDOCK:   -3.73 KCAL/MOL
REMARK 924 INTRA-LIGAND FREE ENERGY PREDICTED BY IDOCK:   -0.47 KCAL/MOL
REMARK 927      BINDING AFFINITY PREDICTED BY RF-SCORE:    0.00 PKD
ROOT
HETATM    1  K   UNL     1     -11.579   7.703  69.411  1.00  0.00    -0.415 K  
HETATM    2  C   UNL     2      -9.836   9.842  67.051  1.00  0.00    -0.191 C  
HETATM    3  H   UNL     2     -11.131   8.415  67.487  1.00  0.00     0.000 HD 
HETATM    4  O   UNL     2     -10.216   8.453  67.239  1.00  0.00    -0.227 OA 
ENDROOT
BRANCH   2   5
HETATM    5  C   UNL     2      -8.360   9.905  66.652  1.00  0.00    -0.125 C  
HETATM    6  O   UNL     2      -8.219  10.810  65.550  1.00  0.00    -0.202 OA 
HETATM    7  H   UNL     2      -7.304  10.849  65.302  1.00  0.00     0.000 HD 
ENDBRANCH   2   5
BRANCH   2   8
HETATM    8  C   UNL     2     -10.195  10.732  68.269  1.00  0.00    -0.167 C  
HETATM    9  O   UNL     2      -9.000  11.492  68.558  1.00  0.00    -0.165 OA 
HETATM   10  H   UNL     2      -9.220  12.037  69.303  1.00  0.00     0.000 HD 
BRANCH   8  11
HETATM   11  C   UNL     2     -11.442  11.647  68.078  1.00  0.00    -0.315 C  
HETATM   12  O   UNL     2     -12.004  11.499  66.760  1.00  0.00    -0.470 OA 
HETATM   13  H   UNL     2     -12.764  12.057  66.643  1.00  0.00     0.000 HD 
BRANCH  11  14
HETATM   14  C   UNL     2     -11.196  13.137  68.373  1.00  0.00    -0.271 C  
HETATM   15  C   UNL     2     -11.844  13.572  69.717  1.00  0.00    -0.329 C  
HETATM   16  O   UNL     2     -11.664  13.963  67.291  1.00  0.00    -0.342 OA 
HETATM   17  H   UNL     2     -11.511  14.883  67.473  1.00  0.00     0.000 HD 
HETATM   18  O   UNL     2     -11.808  12.686  70.627  1.00  0.00    -0.208 OA 
HETATM   19  O   UNL     2     -12.395  14.709  69.686  1.00  0.00    -0.298 OA 
ENDBRANCH  11  14
ENDBRANCH   8  11
ENDBRANCH   2   8
TORSDOF 4
ENDMDL
MODEL      306
REMARK 921   NORMALIZED FREE ENERGY PREDICTED BY IDOCK:   -2.56 KCAL/MOL
REMARK 922        TOTAL FREE ENERGY PREDICTED BY IDOCK:   -4.17 KCAL/MOL
REMARK 923 INTER-LIGAND FREE ENERGY PREDICTED BY IDOCK:   -3.51 KCAL/MOL
REMARK 924 INTRA-LIGAND FREE ENERGY PREDICTED BY IDOCK:   -0.66 KCAL/MOL
REMARK 927      BINDING AFFINITY PREDICTED BY RF-SCORE:    0.00 PKD
ROOT
HETATM    1  K   UNL     1     -11.892   5.266  65.352  1.00  0.00    -0.707 K  
HETATM    2  C   UNL     2      -9.592   5.165  68.159  1.00  0.00    -0.134 C  
HETATM    3  H   UNL     2     -10.015   4.956  66.240  1.00  0.00     0.000 HD 
HETATM    4  O   UNL     2      -9.981   4.385  66.998  1.00  0.00    -0.206 OA 
ENDROOT
BRANCH   2   5
HETATM    5  C   UNL     2      -9.536   4.246  69.381  1.00  0.00    -0.197 C  
HETATM    6  O   UNL     2      -8.242   4.359  69.984  1.00  0.00    -0.062 OA 
HETATM    7  H   UNL     2      -8.208   3.788  70.742  1.00  0.00     0.000 HD 
ENDBRANCH   2   5
BRANCH   2   8
HETATM    8  C   UNL     2     -10.475   6.424  68.359  1.00  0.00    -0.222 C  
HETATM    9  O   UNL     2      -9.895   7.127  69.481  1.00  0.00    -0.160 OA 
HETATM   10  H   UNL     2     -10.436   7.898  69.604  1.00  0.00     0.000 HD 
BRANCH   8  11
HETATM   11  C   UNL     2     -10.624   7.337  67.106  1.00  0.00    -0.346 C  
HETATM   12  O   UNL     2      -9.763   6.903  66.035  1.00  0.00    -0.402 OA 
HETATM   13  H   UNL     2      -9.854   7.460  65.271  1.00  0.00     0.000 HD 
BRANCH  11  14
HETATM   14  C   UNL     2     -10.403   8.836  67.374  1.00  0.00    -0.280 C  
HETATM   15  C   UNL     2      -8.949   9.130  67.839  1.00  0.00    -0.128 C  
HETATM   16  O   UNL     2     -11.355   9.336  68.332  1.00  0.00    -0.437 OA 
HETATM   17  H   UNL     2     -11.218  10.261  68.497  1.00  0.00     0.000 HD 
HETATM   18  O   UNL     2      -8.066   8.403  67.287  1.00  0.00    -0.104 OA 
HETATM   19  O   UNL     2      -8.860   9.984  68.766  1.00  0.00    -0.125 OA 
ENDBRANCH  11  14
ENDBRANCH   8  11
ENDBRANCH   2   8
TORSDOF 4
ENDMDL
MODEL      307
REMARK 921   NORMALIZED FREE ENERGY PREDICTED BY IDOCK:   -2.56 KCAL/MOL
REMARK 922        TOTAL FREE ENERGY PREDICTED BY IDOCK:   -4.17 KCAL/MOL
REMARK 923 INTER-LIGAND FREE ENERGY PREDICTED BY IDOCK:   -3.18 KCAL/MOL
REMARK 924 INTRA-LIGAND FREE ENERGY PREDICTED BY IDOCK:   -0.99 KCAL/MOL
REMARK 927      BINDING AFFINITY PREDICTED BY RF-SCORE:    0.00 PKD
ROOT
HETATM    1  K   UNL     1      -8.337   6.200  69.498  1.00  0.00    -0.102 K  
HETATM    2  C   UNL     2      -9.588   8.012  72.385  1.00  0.00    -0.232 C  
HETATM    3  H   UNL     2      -8.119   7.354  71.238  1.00  0.00     0.000 HD 
HETATM    4  O   UNL     2      -8.563   7.050  72.020  1.00  0.00    -0.119 OA 
ENDROOT
BRANCH   2   5
HETATM    5  C   UNL     2     -10.304   7.524  73.646  1.00  0.00    -0.255 C  
HETATM    6  O   UNL     2     -11.660   7.208  73.312  1.00  0.00    -0.524 OA 
HETATM    7  H   UNL     2     -12.105   6.905  74.094  1.00  0.00     0.000 HD 
ENDBRANCH   2   5
BRANCH   2   8
HETATM    8  C   UNL     2     -10.543   8.346  71.209  1.00  0.00    -0.222 C  
HETATM    9  O   UNL     2     -11.125   9.628  71.537  1.00  0.00    -0.370 OA 
HETATM   10  H   UNL     2     -11.709   9.832  70.818  1.00  0.00     0.000 HD 
BRANCH   8  11
HETATM   11  C   UNL     2      -9.884   8.343  69.798  1.00  0.00    -0.187 C  
HETATM   12  O   UNL     2      -8.807   9.297  69.719  1.00  0.00    -0.142 OA 
HETATM   13  H   UNL     2      -8.405   9.296  68.858  1.00  0.00     0.000 HD 
BRANCH  11  14
HETATM   14  C   UNL     2     -10.862   8.568  68.632  1.00  0.00     0.060 C  
HETATM   15  C   UNL     2     -10.211   8.234  67.261  1.00  0.00    -0.274 C  
HETATM   16  O   UNL     2     -11.375   9.913  68.638  1.00  0.00    -0.475 OA 
HETATM   17  H   UNL     2     -11.980  10.051  67.919  1.00  0.00     0.000 HD 
HETATM   18  O   UNL     2      -9.404   7.253  67.289  1.00  0.00    -0.126 OA 
HETATM   19  O   UNL     2     -10.504   9.041  66.334  1.00  0.00    -0.215 OA 
ENDBRANCH  11  14
ENDBRANCH   8  11
ENDBRANCH   2   8
TORSDOF 4
ENDMDL
MODEL      308
REMARK 921   NORMALIZED FREE ENERGY PREDICTED BY IDOCK:   -2.56 KCAL/MOL
REMARK 922        TOTAL FREE ENERGY PREDICTED BY IDOCK:   -4.17 KCAL/MOL
REMARK 923 INTER-LIGAND FREE ENERGY PREDICTED BY IDOCK:   -3.66 KCAL/MOL
REMARK 924 INTRA-LIGAND FREE ENERGY PREDICTED BY IDOCK:   -0.51 KCAL/MOL
REMARK 927      BINDING AFFINITY PREDICTED BY RF-SCORE:    0.00 PKD
ROOT
HETATM    1  K   UNL     1      -7.964  11.852  69.636  1.00  0.00    -0.334 K  
HETATM    2  C   UNL     2     -10.492  11.819  67.030  1.00  0.00    -0.220 C  
HETATM    3  H   UNL     2      -8.658  12.167  67.679  1.00  0.00     0.000 HD 
HETATM    4  O   UNL     2      -9.454  12.674  67.576  1.00  0.00    -0.178 OA 
ENDROOT
BRANCH   2   5
HETATM    5  C   UNL     2     -11.775  12.637  66.863  1.00  0.00    -0.383 C  
HETATM    6  O   UNL     2     -11.597  13.907  67.500  1.00  0.00    -0.320 OA 
HETATM    7  H   UNL     2     -12.393  14.415  67.397  1.00  0.00     0.000 HD 
ENDBRANCH   2   5
BRANCH   2   8
HETATM    8  C   UNL     2     -10.682  10.512  67.843  1.00  0.00    -0.260 C  
HETATM    9  O   UNL     2     -12.093  10.450  68.150  1.00  0.00    -0.688 OA 
HETATM   10  H   UNL     2     -12.210   9.651  68.647  1.00  0.00     0.000 HD 
BRANCH   8  11
HETATM   11  C   UNL     2     -10.175   9.216  67.143  1.00  0.00    -0.261 C  
HETATM   12  O   UNL     2     -10.867   8.051  67.633  1.00  0.00    -0.477 OA 
HETATM   13  H   UNL     2     -10.557   7.260  67.207  1.00  0.00     0.000 HD 
BRANCH  11  14
HETATM   14  C   UNL     2      -8.656   8.993  67.229  1.00  0.00    -0.114 C  
HETATM   15  C   UNL     2      -8.144   9.069  68.695  1.00  0.00    -0.107 C  
HETATM   16  O   UNL     2      -7.947   9.926  66.393  1.00  0.00    -0.108 OA 
HETATM   17  H   UNL     2      -7.009   9.788  66.446  1.00  0.00     0.000 HD 
HETATM   18  O   UNL     2      -8.949   8.594  69.556  1.00  0.00    -0.142 OA 
HETATM   19  O   UNL     2      -7.044   9.675  68.833  1.00  0.00    -0.065 OA 
ENDBRANCH  11  14
ENDBRANCH   8  11
ENDBRANCH   2   8
TORSDOF 4
ENDMDL
MODEL      309
REMARK 921   NORMALIZED FREE ENERGY PREDICTED BY IDOCK:   -2.55 KCAL/MOL
REMARK 922        TOTAL FREE ENERGY PREDICTED BY IDOCK:   -4.16 KCAL/MOL
REMARK 923 INTER-LIGAND FREE ENERGY PREDICTED BY IDOCK:   -3.09 KCAL/MOL
REMARK 924 INTRA-LIGAND FREE ENERGY PREDICTED BY IDOCK:   -1.07 KCAL/MOL
REMARK 927      BINDING AFFINITY PREDICTED BY RF-SCORE:    0.00 PKD
ROOT
HETATM    1  K   UNL     1     -12.835   6.691  69.577  1.00  0.00    -0.606 K  
HETATM    2  C   UNL     2      -9.706   5.827  67.950  1.00  0.00    -0.120 C  
HETATM    3  H   UNL     2     -11.000   7.141  68.659  1.00  0.00     0.000 HD 
HETATM    4  O   UNL     2     -10.826   6.741  67.816  1.00  0.00    -0.244 OA 
ENDROOT
BRANCH   2   5
HETATM    5  C   UNL     2      -9.424   5.182  66.591  1.00  0.00    -0.144 C  
HETATM    6  O   UNL     2     -10.207   3.989  66.476  1.00  0.00    -0.376 OA 
HETATM    7  H   UNL     2     -10.032   3.589  65.633  1.00  0.00     0.000 HD 
ENDBRANCH   2   5
BRANCH   2   8
HETATM    8  C   UNL     2      -9.899   4.806  69.101  1.00  0.00    -0.184 C  
HETATM    9  O   UNL     2      -8.650   4.084  69.191  1.00  0.00    -0.075 OA 
HETATM   10  H   UNL     2      -8.769   3.459  69.895  1.00  0.00     0.000 HD 
BRANCH   8  11
HETATM   11  C   UNL     2     -10.321   5.421  70.469  1.00  0.00    -0.274 C  
HETATM   12  O   UNL     2     -10.377   6.859  70.404  1.00  0.00    -0.198 OA 
HETATM   13  H   UNL     2     -10.635   7.234  71.238  1.00  0.00     0.000 HD 
BRANCH  11  14
HETATM   14  C   UNL     2      -9.452   4.989  71.663  1.00  0.00    -0.151 C  
HETATM   15  C   UNL     2     -10.059   5.456  73.016  1.00  0.00    -0.176 C  
HETATM   16  O   UNL     2      -8.101   5.465  71.519  1.00  0.00    -0.112 OA 
HETATM   17  H   UNL     2      -7.565   5.197  72.256  1.00  0.00     0.000 HD 
HETATM   18  O   UNL     2     -11.328   5.430  73.058  1.00  0.00    -0.302 OA 
HETATM   19  O   UNL     2      -9.209   5.881  73.849  1.00  0.00    -0.126 OA 
ENDBRANCH  11  14
ENDBRANCH   8  11
ENDBRANCH   2   8
TORSDOF 4
ENDMDL
MODEL      310
REMARK 921   NORMALIZED FREE ENERGY PREDICTED BY IDOCK:   -2.55 KCAL/MOL
REMARK 922        TOTAL FREE ENERGY PREDICTED BY IDOCK:   -4.15 KCAL/MOL
REMARK 923 INTER-LIGAND FREE ENERGY PREDICTED BY IDOCK:   -3.73 KCAL/MOL
REMARK 924 INTRA-LIGAND FREE ENERGY PREDICTED BY IDOCK:   -0.42 KCAL/MOL
REMARK 927      BINDING AFFINITY PREDICTED BY RF-SCORE:    0.00 PKD
ROOT
HETATM    1  K   UNL     1     -11.690   6.883  67.510  1.00  0.00    -0.493 K  
HETATM    2  C   UNL     2     -10.727   8.754  70.469  1.00  0.00    -0.223 C  
HETATM    3  H   UNL     2     -11.579   8.616  68.691  1.00  0.00     0.000 HD 
HETATM    4  O   UNL     2     -10.724   8.863  69.021  1.00  0.00    -0.209 OA 
ENDROOT
BRANCH   2   5
HETATM    5  C   UNL     2      -9.349   9.153  71.002  1.00  0.00    -0.263 C  
HETATM    6  O   UNL     2      -9.261   8.775  72.380  1.00  0.00    -0.361 OA 
HETATM    7  H   UNL     2      -8.406   9.022  72.711  1.00  0.00     0.000 HD 
ENDBRANCH   2   5
BRANCH   2   8
HETATM    8  C   UNL     2     -11.215   7.368  70.965  1.00  0.00    -0.264 C  
HETATM    9  O   UNL     2     -12.520   7.184  70.372  1.00  0.00    -0.604 OA 
HETATM   10  H   UNL     2     -12.819   6.335  70.676  1.00  0.00     0.000 HD 
BRANCH   8  11
HETATM   11  C   UNL     2     -10.257   6.178  70.658  1.00  0.00    -0.199 C  
HETATM   12  O   UNL     2     -10.887   5.203  69.805  1.00  0.00    -0.141 OA 
HETATM   13  H   UNL     2     -10.302   4.478  69.618  1.00  0.00     0.000 HD 
BRANCH  11  14
HETATM   14  C   UNL     2      -9.678   5.483  71.903  1.00  0.00    -0.162 C  
HETATM   15  C   UNL     2     -10.707   5.438  73.068  1.00  0.00    -0.257 C  
HETATM   16  O   UNL     2      -8.456   6.114  72.327  1.00  0.00    -0.117 OA 
HETATM   17  H   UNL     2      -8.098   5.684  73.095  1.00  0.00     0.000 HD 
HETATM   18  O   UNL     2     -11.911   5.273  72.698  1.00  0.00    -0.208 OA 
HETATM   19  O   UNL     2     -10.213   5.664  74.209  1.00  0.00    -0.235 OA 
ENDBRANCH  11  14
ENDBRANCH   8  11
ENDBRANCH   2   8
TORSDOF 4
ENDMDL
MODEL      311
REMARK 921   NORMALIZED FREE ENERGY PREDICTED BY IDOCK:   -2.55 KCAL/MOL
REMARK 922        TOTAL FREE ENERGY PREDICTED BY IDOCK:   -4.15 KCAL/MOL
REMARK 923 INTER-LIGAND FREE ENERGY PREDICTED BY IDOCK:   -3.58 KCAL/MOL
REMARK 924 INTRA-LIGAND FREE ENERGY PREDICTED BY IDOCK:   -0.58 KCAL/MOL
REMARK 927      BINDING AFFINITY PREDICTED BY RF-SCORE:    0.00 PKD
ROOT
HETATM    1  K   UNL     1     -11.705   8.877  68.383  1.00  0.00    -0.425 K  
HETATM    2  C   UNL     2      -9.433   6.045  68.386  1.00  0.00    -0.119 C  
HETATM    3  H   UNL     2     -10.056   7.783  67.682  1.00  0.00     0.000 HD 
HETATM    4  O   UNL     2     -10.198   6.870  67.468  1.00  0.00    -0.160 OA 
ENDROOT
BRANCH   2   5
HETATM    5  C   UNL     2      -9.663   4.571  68.041  1.00  0.00    -0.134 C  
HETATM    6  O   UNL     2      -8.772   4.202  66.982  1.00  0.00    -0.107 OA 
HETATM    7  H   UNL     2      -8.915   3.288  66.768  1.00  0.00     0.000 HD 
ENDBRANCH   2   5
BRANCH   2   8
HETATM    8  C   UNL     2      -9.706   6.391  69.872  1.00  0.00    -0.166 C  
HETATM    9  O   UNL     2      -9.407   7.800  70.001  1.00  0.00    -0.157 OA 
HETATM   10  H   UNL     2      -9.573   8.012  70.911  1.00  0.00     0.000 HD 
BRANCH   8  11
HETATM   11  C   UNL     2     -11.136   6.045  70.384  1.00  0.00    -0.329 C  
HETATM   12  O   UNL     2     -12.139   6.828  69.709  1.00  0.00    -0.648 OA 
HETATM   13  H   UNL     2     -13.011   6.616  70.021  1.00  0.00     0.000 HD 
BRANCH  11  14
HETATM   14  C   UNL     2     -11.320   6.166  71.906  1.00  0.00    -0.296 C  
HETATM   15  C   UNL     2     -11.035   4.820  72.630  1.00  0.00    -0.146 C  
HETATM   16  O   UNL     2     -12.636   6.650  72.232  1.00  0.00    -0.538 OA 
HETATM   17  H   UNL     2     -12.749   6.725  73.172  1.00  0.00     0.000 HD 
HETATM   18  O   UNL     2     -10.098   4.135  72.113  1.00  0.00    -0.177 OA 
HETATM   19  O   UNL     2     -11.834   4.554  73.571  1.00  0.00    -0.173 OA 
ENDBRANCH  11  14
ENDBRANCH   8  11
ENDBRANCH   2   8
TORSDOF 4
ENDMDL
MODEL      312
REMARK 921   NORMALIZED FREE ENERGY PREDICTED BY IDOCK:   -2.53 KCAL/MOL
REMARK 922        TOTAL FREE ENERGY PREDICTED BY IDOCK:   -4.14 KCAL/MOL
REMARK 923 INTER-LIGAND FREE ENERGY PREDICTED BY IDOCK:   -3.31 KCAL/MOL
REMARK 924 INTRA-LIGAND FREE ENERGY PREDICTED BY IDOCK:   -0.83 KCAL/MOL
REMARK 927      BINDING AFFINITY PREDICTED BY RF-SCORE:    0.00 PKD
ROOT
HETATM    1  K   UNL     1     -11.898  14.431  66.594  1.00  0.00    -0.310 K  
HETATM    2  C   UNL     2     -10.261  11.370  67.662  1.00  0.00    -0.180 C  
HETATM    3  H   UNL     2     -11.721  12.344  66.753  1.00  0.00     0.000 HD 
HETATM    4  O   UNL     2     -11.576  11.984  67.620  1.00  0.00    -0.317 OA 
ENDROOT
BRANCH   2   5
HETATM    5  C   UNL     2     -10.028  10.790  69.059  1.00  0.00    -0.199 C  
HETATM    6  O   UNL     2     -11.053   9.830  69.336  1.00  0.00    -0.292 OA 
HETATM    7  H   UNL     2     -10.908   9.470  70.202  1.00  0.00     0.000 HD 
ENDBRANCH   2   5
BRANCH   2   8
HETATM    8  C   UNL     2      -9.138  12.326  67.183  1.00  0.00    -0.193 C  
HETATM    9  O   UNL     2      -9.300  12.424  65.750  1.00  0.00    -0.418 OA 
HETATM   10  H   UNL     2      -8.612  13.008  65.457  1.00  0.00     0.000 HD 
BRANCH   8  11
HETATM   11  C   UNL     2      -9.118  13.724  67.869  1.00  0.00    -0.193 C  
HETATM   12  O   UNL     2     -10.420  14.080  68.374  1.00  0.00    -0.239 OA 
HETATM   13  H   UNL     2     -10.408  14.933  68.792  1.00  0.00     0.000 HD 
BRANCH  11  14
HETATM   14  C   UNL     2      -8.573  14.863  66.990  1.00  0.00    -0.238 C  
HETATM   15  C   UNL     2      -7.980  16.018  67.846  1.00  0.00    -0.137 C  
HETATM   16  O   UNL     2      -9.587  15.359  66.098  1.00  0.00    -0.280 OA 
HETATM   17  H   UNL     2      -9.250  16.062  65.555  1.00  0.00     0.000 HD 
HETATM   18  O   UNL     2      -7.389  15.636  68.904  1.00  0.00    -0.132 OA 
HETATM   19  O   UNL     2      -8.249  17.175  67.417  1.00  0.00    -0.179 OA 
ENDBRANCH  11  14
ENDBRANCH   8  11
ENDBRANCH   2   8
TORSDOF 4
ENDMDL
MODEL      313
REMARK 921   NORMALIZED FREE ENERGY PREDICTED BY IDOCK:   -2.52 KCAL/MOL
REMARK 922        TOTAL FREE ENERGY PREDICTED BY IDOCK:   -4.12 KCAL/MOL
REMARK 923 INTER-LIGAND FREE ENERGY PREDICTED BY IDOCK:   -3.89 KCAL/MOL
REMARK 924 INTRA-LIGAND FREE ENERGY PREDICTED BY IDOCK:   -0.23 KCAL/MOL
REMARK 927      BINDING AFFINITY PREDICTED BY RF-SCORE:    0.00 PKD
ROOT
HETATM    1  K   UNL     1      -7.229  11.959  68.202  1.00  0.00    -0.064 K  
HETATM    2  C   UNL     2      -9.597  10.439  65.906  1.00  0.00    -0.206 C  
HETATM    3  H   UNL     2      -8.532  10.437  67.571  1.00  0.00     0.000 HD 
HETATM    4  O   UNL     2      -8.420  10.106  66.689  1.00  0.00    -0.125 OA 
ENDROOT
BRANCH   2   5
HETATM    5  C   UNL     2      -9.416   9.905  64.483  1.00  0.00    -0.264 C  
HETATM    6  O   UNL     2      -8.727   8.652  64.546  1.00  0.00    -0.367 OA 
HETATM    7  H   UNL     2      -8.615   8.320  63.663  1.00  0.00     0.000 HD 
ENDBRANCH   2   5
BRANCH   2   8
HETATM    8  C   UNL     2      -9.953  11.947  65.970  1.00  0.00    -0.232 C  
HETATM    9  O   UNL     2     -10.820  12.187  64.839  1.00  0.00    -0.288 OA 
HETATM   10  H   UNL     2     -11.038  13.110  64.878  1.00  0.00     0.000 HD 
BRANCH   8  11
HETATM   11  C   UNL     2     -10.590  12.422  67.310  1.00  0.00    -0.223 C  
HETATM   12  O   UNL     2     -11.961  11.992  67.421  1.00  0.00    -0.583 OA 
HETATM   13  H   UNL     2     -12.350  12.282  68.238  1.00  0.00     0.000 HD 
BRANCH  11  14
HETATM   14  C   UNL     2     -10.498  13.936  67.563  1.00  0.00    -0.248 C  
HETATM   15  C   UNL     2     -11.282  14.748  66.493  1.00  0.00    -0.342 C  
HETATM   16  O   UNL     2      -9.127  14.368  67.626  1.00  0.00    -0.182 OA 
HETATM   17  H   UNL     2      -9.070  15.304  67.783  1.00  0.00     0.000 HD 
HETATM   18  O   UNL     2     -12.351  14.191  66.093  1.00  0.00    -0.450 OA 
HETATM   19  O   UNL     2     -10.698  15.799  66.105  1.00  0.00    -0.316 OA 
ENDBRANCH  11  14
ENDBRANCH   8  11
ENDBRANCH   2   8
TORSDOF 4
ENDMDL
MODEL      314
REMARK 921   NORMALIZED FREE ENERGY PREDICTED BY IDOCK:   -2.51 KCAL/MOL
REMARK 922        TOTAL FREE ENERGY PREDICTED BY IDOCK:   -4.11 KCAL/MOL
REMARK 923 INTER-LIGAND FREE ENERGY PREDICTED BY IDOCK:   -3.51 KCAL/MOL
REMARK 924 INTRA-LIGAND FREE ENERGY PREDICTED BY IDOCK:   -0.60 KCAL/MOL
REMARK 927      BINDING AFFINITY PREDICTED BY RF-SCORE:    0.00 PKD
ROOT
HETATM    1  K   UNL     1      -7.988  10.703  68.655  1.00  0.00    -0.088 K  
HETATM    2  C   UNL     2     -11.486  10.790  69.625  1.00  0.00    -0.305 C  
HETATM    3  H   UNL     2     -10.016  11.162  68.358  1.00  0.00     0.000 HD 
HETATM    4  O   UNL     2     -10.459  11.639  69.048  1.00  0.00    -0.201 OA 
ENDROOT
BRANCH   2   5
HETATM    5  C   UNL     2     -12.202  11.559  70.737  1.00  0.00    -0.363 C  
HETATM    6  O   UNL     2     -11.933  12.957  70.577  1.00  0.00    -0.490 OA 
HETATM    7  H   UNL     2     -12.377  13.434  71.267  1.00  0.00     0.000 HD 
ENDBRANCH   2   5
BRANCH   2   8
HETATM    8  C   UNL     2     -10.942   9.407  70.067  1.00  0.00    -0.239 C  
HETATM    9  O   UNL     2     -12.093   8.672  70.538  1.00  0.00    -0.489 OA 
HETATM   10  H   UNL     2     -11.760   7.826  70.810  1.00  0.00     0.000 HD 
BRANCH   8  11
HETATM   11  C   UNL     2     -10.151   8.625  68.977  1.00  0.00    -0.199 C  
HETATM   12  O   UNL     2     -10.987   8.310  67.847  1.00  0.00    -0.480 OA 
HETATM   13  H   UNL     2     -10.504   7.833  67.181  1.00  0.00     0.000 HD 
BRANCH  11  14
HETATM   14  C   UNL     2      -9.455   7.349  69.480  1.00  0.00    -0.155 C  
HETATM   15  C   UNL     2      -8.144   7.060  68.695  1.00  0.00    -0.121 C  
HETATM   16  O   UNL     2     -10.344   6.217  69.422  1.00  0.00    -0.184 OA 
HETATM   17  H   UNL     2      -9.914   5.429  69.733  1.00  0.00     0.000 HD 
HETATM   18  O   UNL     2      -7.495   8.098  68.360  1.00  0.00    -0.095 OA 
HETATM   19  O   UNL     2      -7.959   5.840  68.422  1.00  0.00    -0.102 OA 
ENDBRANCH  11  14
ENDBRANCH   8  11
ENDBRANCH   2   8
TORSDOF 4
ENDMDL
MODEL      315
REMARK 921   NORMALIZED FREE ENERGY PREDICTED BY IDOCK:   -2.51 KCAL/MOL
REMARK 922        TOTAL FREE ENERGY PREDICTED BY IDOCK:   -4.10 KCAL/MOL
REMARK 923 INTER-LIGAND FREE ENERGY PREDICTED BY IDOCK:   -3.75 KCAL/MOL
REMARK 924 INTRA-LIGAND FREE ENERGY PREDICTED BY IDOCK:   -0.35 KCAL/MOL
REMARK 927      BINDING AFFINITY PREDICTED BY RF-SCORE:    0.00 PKD
ROOT
HETATM    1  K   UNL     1     -10.689   7.194  65.835  1.00  0.00    -0.462 K  
HETATM    2  C   UNL     2      -9.967   9.872  68.178  1.00  0.00    -0.151 C  
HETATM    3  H   UNL     2      -9.582   8.112  67.364  1.00  0.00     0.000 HD 
HETATM    4  O   UNL     2     -10.061   8.424  68.122  1.00  0.00    -0.185 OA 
ENDROOT
BRANCH   2   5
HETATM    5  C   UNL     2     -10.739  10.374  69.400  1.00  0.00    -0.244 C  
HETATM    6  O   UNL     2     -11.343   9.254  70.055  1.00  0.00    -0.365 OA 
HETATM    7  H   UNL     2     -11.823   9.565  70.813  1.00  0.00     0.000 HD 
ENDBRANCH   2   5
BRANCH   2   8
HETATM    8  C   UNL     2     -10.384  10.552  66.848  1.00  0.00    -0.239 C  
HETATM    9  O   UNL     2     -11.624  11.236  67.137  1.00  0.00    -0.513 OA 
HETATM   10  H   UNL     2     -11.879  11.652  66.323  1.00  0.00     0.000 HD 
BRANCH   8  11
HETATM   11  C   UNL     2      -9.318  11.503  66.227  1.00  0.00    -0.213 C  
HETATM   12  O   UNL     2      -9.395  11.509  64.788  1.00  0.00    -0.371 OA 
HETATM   13  H   UNL     2      -8.745  12.090  64.409  1.00  0.00     0.000 HD 
BRANCH  11  14
HETATM   14  C   UNL     2      -7.872  11.223  66.669  1.00  0.00    -0.152 C  
HETATM   15  C   UNL     2      -7.210  12.478  67.306  1.00  0.00    -0.114 C  
HETATM   16  O   UNL     2      -7.081  10.732  65.571  1.00  0.00    -0.312 OA 
HETATM   17  H   UNL     2      -6.187  10.559  65.844  1.00  0.00     0.000 HD 
HETATM   18  O   UNL     2      -8.002  13.195  67.993  1.00  0.00    -0.131 OA 
HETATM   19  O   UNL     2      -6.004  12.656  66.974  1.00  0.00    -0.301 OA 
ENDBRANCH  11  14
ENDBRANCH   8  11
ENDBRANCH   2   8
TORSDOF 4
ENDMDL
MODEL      316
REMARK 921   NORMALIZED FREE ENERGY PREDICTED BY IDOCK:   -2.51 KCAL/MOL
REMARK 922        TOTAL FREE ENERGY PREDICTED BY IDOCK:   -4.10 KCAL/MOL
REMARK 923 INTER-LIGAND FREE ENERGY PREDICTED BY IDOCK:   -3.34 KCAL/MOL
REMARK 924 INTRA-LIGAND FREE ENERGY PREDICTED BY IDOCK:   -0.76 KCAL/MOL
REMARK 927      BINDING AFFINITY PREDICTED BY RF-SCORE:    0.00 PKD
ROOT
HETATM    1  K   UNL     1      -9.488  13.550  64.248  1.00  0.00    -0.572 K  
HETATM    2  C   UNL     2     -10.837  10.945  66.387  1.00  0.00    -0.145 C  
HETATM    3  H   UNL     2     -10.973  12.680  65.450  1.00  0.00     0.000 HD 
HETATM    4  O   UNL     2     -10.717  12.390  66.317  1.00  0.00    -0.246 OA 
ENDROOT
BRANCH   2   5
HETATM    5  C   UNL     2     -10.424  10.478  67.785  1.00  0.00    -0.224 C  
HETATM    6  O   UNL     2      -9.720  11.541  68.436  1.00  0.00    -0.191 OA 
HETATM    7  H   UNL     2      -9.464  11.252  69.303  1.00  0.00     0.000 HD 
ENDBRANCH   2   5
BRANCH   2   8
HETATM    8  C   UNL     2     -10.086  10.225  65.237  1.00  0.00    -0.289 C  
HETATM    9  O   UNL     2     -10.632  10.773  64.017  1.00  0.00    -0.469 OA 
HETATM   10  H   UNL     2     -10.173  10.332  63.313  1.00  0.00     0.000 HD 
BRANCH   8  11
HETATM   11  C   UNL     2      -8.533  10.335  65.288  1.00  0.00    -0.163 C  
HETATM   12  O   UNL     2      -8.112  11.668  65.634  1.00  0.00    -0.320 OA 
HETATM   13  H   UNL     2      -7.164  11.735  65.664  1.00  0.00     0.000 HD 
BRANCH  11  14
HETATM   14  C   UNL     2      -7.815   9.880  64.005  1.00  0.00    -0.145 C  
HETATM   15  C   UNL     2      -7.095   8.516  64.200  1.00  0.00    -0.086 C  
HETATM   16  O   UNL     2      -6.891  10.883  63.545  1.00  0.00    -0.329 OA 
HETATM   17  H   UNL     2      -6.448  10.602  62.753  1.00  0.00     0.000 HD 
HETATM   18  O   UNL     2      -7.710   7.703  64.957  1.00  0.00    -0.094 OA 
HETATM   19  O   UNL     2      -5.957   8.445  63.655  1.00  0.00    -0.070 OA 
ENDBRANCH  11  14
ENDBRANCH   8  11
ENDBRANCH   2   8
TORSDOF 4
ENDMDL
MODEL      317
REMARK 921   NORMALIZED FREE ENERGY PREDICTED BY IDOCK:   -2.50 KCAL/MOL
REMARK 922        TOTAL FREE ENERGY PREDICTED BY IDOCK:   -4.09 KCAL/MOL
REMARK 923 INTER-LIGAND FREE ENERGY PREDICTED BY IDOCK:   -3.82 KCAL/MOL
REMARK 924 INTRA-LIGAND FREE ENERGY PREDICTED BY IDOCK:   -0.27 KCAL/MOL
REMARK 927      BINDING AFFINITY PREDICTED BY RF-SCORE:    0.00 PKD
ROOT
HETATM    1  K   UNL     1      -9.722   8.227  68.378  1.00  0.00    -0.144 K  
HETATM    2  C   UNL     2     -11.076  11.393  69.530  1.00  0.00    -0.211 C  
HETATM    3  H   UNL     2      -9.987   9.763  69.784  1.00  0.00     0.000 HD 
HETATM    4  O   UNL     2     -10.878  10.027  69.979  1.00  0.00    -0.258 OA 
ENDROOT
BRANCH   2   5
HETATM    5  C   UNL     2     -12.512  11.818  69.844  1.00  0.00    -0.020 C  
HETATM    6  O   UNL     2     -13.031  10.963  70.869  1.00  0.00    -0.331 OA 
HETATM    7  H   UNL     2     -13.922  11.226  71.063  1.00  0.00     0.000 HD 
ENDBRANCH   2   5
BRANCH   2   8
HETATM    8  C   UNL     2     -10.668  11.602  68.048  1.00  0.00    -0.208 C  
HETATM    9  O   UNL     2     -11.290  10.519  67.321  1.00  0.00    -0.359 OA 
HETATM   10  H   UNL     2     -11.040  10.647  66.414  1.00  0.00     0.000 HD 
BRANCH   8  11
HETATM   11  C   UNL     2     -11.030  12.995  67.451  1.00  0.00    -0.260 C  
HETATM   12  O   UNL     2     -12.211  12.923  66.629  1.00  0.00    -0.434 OA 
HETATM   13  H   UNL     2     -12.431  13.772  66.264  1.00  0.00     0.000 HD 
BRANCH  11  14
HETATM   14  C   UNL     2      -9.892  13.672  66.668  1.00  0.00    -0.284 C  
HETATM   15  C   UNL     2     -10.043  15.220  66.656  1.00  0.00    -0.261 C  
HETATM   16  O   UNL     2      -9.810  13.159  65.326  1.00  0.00    -0.472 OA 
HETATM   17  H   UNL     2      -9.107  13.577  64.842  1.00  0.00     0.000 HD 
HETATM   18  O   UNL     2     -10.510  15.709  67.731  1.00  0.00    -0.261 OA 
HETATM   19  O   UNL     2      -9.767  15.762  65.549  1.00  0.00    -0.322 OA 
ENDBRANCH  11  14
ENDBRANCH   8  11
ENDBRANCH   2   8
TORSDOF 4
ENDMDL
MODEL      318
REMARK 921   NORMALIZED FREE ENERGY PREDICTED BY IDOCK:   -2.48 KCAL/MOL
REMARK 922        TOTAL FREE ENERGY PREDICTED BY IDOCK:   -4.07 KCAL/MOL
REMARK 923 INTER-LIGAND FREE ENERGY PREDICTED BY IDOCK:   -3.07 KCAL/MOL
REMARK 924 INTRA-LIGAND FREE ENERGY PREDICTED BY IDOCK:   -1.00 KCAL/MOL
REMARK 927      BINDING AFFINITY PREDICTED BY RF-SCORE:    0.00 PKD
ROOT
HETATM    1  K   UNL     1      -8.798   8.577  72.621  1.00  0.00    -0.137 K  
HETATM    2  C   UNL     2     -12.062   8.398  71.041  1.00  0.00    -0.198 C  
HETATM    3  H   UNL     2     -10.672   9.351  72.072  1.00  0.00     0.000 HD 
HETATM    4  O   UNL     2     -11.436   8.827  72.278  1.00  0.00    -0.362 OA 
ENDROOT
BRANCH   2   5
HETATM    5  C   UNL     2     -13.295   7.554  71.372  1.00  0.00    -0.311 C  
HETATM    6  O   UNL     2     -13.856   8.023  72.603  1.00  0.00    -0.535 OA 
HETATM    7  H   UNL     2     -14.621   7.499  72.809  1.00  0.00     0.000 HD 
ENDBRANCH   2   5
BRANCH   2   8
HETATM    8  C   UNL     2     -11.068   7.705  70.074  1.00  0.00    -0.191 C  
HETATM    9  O   UNL     2      -9.905   8.563  70.036  1.00  0.00    -0.175 OA 
HETATM   10  H   UNL     2      -9.296   8.138  69.444  1.00  0.00     0.000 HD 
BRANCH   8  11
HETATM   11  C   UNL     2     -10.702   6.235  70.441  1.00  0.00    -0.271 C  
HETATM   12  O   UNL     2      -9.847   6.180  71.599  1.00  0.00    -0.169 OA 
HETATM   13  H   UNL     2      -9.623   5.284  71.822  1.00  0.00     0.000 HD 
BRANCH  11  14
HETATM   14  C   UNL     2     -10.075   5.425  69.293  1.00  0.00    -0.231 C  
HETATM   15  C   UNL     2      -9.355   4.149  69.815  1.00  0.00    -0.167 C  
HETATM   16  O   UNL     2      -9.173   6.237  68.518  1.00  0.00    -0.125 OA 
HETATM   17  H   UNL     2      -8.786   5.736  67.809  1.00  0.00     0.000 HD 
HETATM   18  O   UNL     2      -9.926   3.593  70.804  1.00  0.00    -0.138 OA 
HETATM   19  O   UNL     2      -8.257   3.899  69.243  1.00  0.00    -0.061 OA 
ENDBRANCH  11  14
ENDBRANCH   8  11
ENDBRANCH   2   8
TORSDOF 4
ENDMDL
MODEL      319
REMARK 921   NORMALIZED FREE ENERGY PREDICTED BY IDOCK:   -2.48 KCAL/MOL
REMARK 922        TOTAL FREE ENERGY PREDICTED BY IDOCK:   -4.07 KCAL/MOL
REMARK 923 INTER-LIGAND FREE ENERGY PREDICTED BY IDOCK:   -3.26 KCAL/MOL
REMARK 924 INTRA-LIGAND FREE ENERGY PREDICTED BY IDOCK:   -0.81 KCAL/MOL
REMARK 927      BINDING AFFINITY PREDICTED BY RF-SCORE:    0.00 PKD
ROOT
HETATM    1  K   UNL     1     -10.089   8.096  65.762  1.00  0.00    -0.392 K  
HETATM    2  C   UNL     2      -8.233   6.024  68.096  1.00  0.00    -0.113 C  
HETATM    3  H   UNL     2      -8.350   7.482  66.766  1.00  0.00     0.000 HD 
HETATM    4  O   UNL     2      -8.141   6.556  66.748  1.00  0.00    -0.107 OA 
ENDROOT
BRANCH   2   5
HETATM    5  C   UNL     2      -7.895   4.532  68.067  1.00  0.00    -0.081 C  
HETATM    6  O   UNL     2      -8.364   3.978  66.832  1.00  0.00    -0.100 OA 
HETATM    7  H   UNL     2      -8.155   3.052  66.814  1.00  0.00     0.000 HD 
ENDBRANCH   2   5
BRANCH   2   8
HETATM    8  C   UNL     2      -9.587   6.348  68.777  1.00  0.00    -0.125 C  
HETATM    9  O   UNL     2     -10.166   5.068  69.115  1.00  0.00    -0.207 OA 
HETATM   10  H   UNL     2     -10.995   5.266  69.532  1.00  0.00     0.000 HD 
BRANCH   8  11
HETATM   11  C   UNL     2      -9.500   7.297  70.010  1.00  0.00    -0.161 C  
HETATM   12  O   UNL     2      -8.919   6.629  71.146  1.00  0.00    -0.144 OA 
HETATM   13  H   UNL     2      -8.867   7.208  71.898  1.00  0.00     0.000 HD 
BRANCH  11  14
HETATM   14  C   UNL     2     -10.834   7.948  70.415  1.00  0.00    -0.244 C  
HETATM   15  C   UNL     2     -10.766   8.560  71.842  1.00  0.00    -0.324 C  
HETATM   16  O   UNL     2     -11.920   7.007  70.315  1.00  0.00    -0.557 OA 
HETATM   17  H   UNL     2     -12.743   7.409  70.565  1.00  0.00     0.000 HD 
HETATM   18  O   UNL     2      -9.644   9.076  72.138  1.00  0.00    -0.312 OA 
HETATM   19  O   UNL     2     -11.805   8.377  72.538  1.00  0.00    -0.391 OA 
ENDBRANCH  11  14
ENDBRANCH   8  11
ENDBRANCH   2   8
TORSDOF 4
ENDMDL
MODEL      320
REMARK 921   NORMALIZED FREE ENERGY PREDICTED BY IDOCK:   -2.47 KCAL/MOL
REMARK 922        TOTAL FREE ENERGY PREDICTED BY IDOCK:   -4.06 KCAL/MOL
REMARK 923 INTER-LIGAND FREE ENERGY PREDICTED BY IDOCK:   -3.90 KCAL/MOL
REMARK 924 INTRA-LIGAND FREE ENERGY PREDICTED BY IDOCK:   -0.16 KCAL/MOL
REMARK 927      BINDING AFFINITY PREDICTED BY RF-SCORE:    0.00 PKD
ROOT
HETATM    1  K   UNL     1     -10.747   7.608  66.048  1.00  0.00    -0.478 K  
HETATM    2  C   UNL     2     -10.563  10.339  68.434  1.00  0.00    -0.216 C  
HETATM    3  H   UNL     2     -10.010   8.563  67.767  1.00  0.00     0.000 HD 
HETATM    4  O   UNL     2     -10.647   8.890  68.390  1.00  0.00    -0.206 OA 
ENDROOT
BRANCH   2   5
HETATM    5  C   UNL     2     -11.590  10.867  69.439  1.00  0.00    -0.316 C  
HETATM    6  O   UNL     2     -12.333   9.761  69.962  1.00  0.00    -0.470 OA 
HETATM    7  H   UNL     2     -12.970  10.089  70.585  1.00  0.00     0.000 HD 
ENDBRANCH   2   5
BRANCH   2   8
HETATM    8  C   UNL     2     -10.667  10.988  67.030  1.00  0.00    -0.270 C  
HETATM    9  O   UNL     2     -11.792  11.893  67.105  1.00  0.00    -0.588 OA 
HETATM   10  H   UNL     2     -11.856  12.290  66.245  1.00  0.00     0.000 HD 
BRANCH   8  11
HETATM   11  C   UNL     2      -9.374  11.700  66.530  1.00  0.00    -0.206 C  
HETATM   12  O   UNL     2      -9.610  12.416  65.303  1.00  0.00    -0.434 OA 
HETATM   13  H   UNL     2      -8.822  12.850  64.998  1.00  0.00     0.000 HD 
BRANCH  11  14
HETATM   14  C   UNL     2      -8.156  10.775  66.365  1.00  0.00    -0.153 C  
HETATM   15  C   UNL     2      -8.557   9.394  65.772  1.00  0.00    -0.145 C  
HETATM   16  O   UNL     2      -7.458  10.610  67.613  1.00  0.00    -0.090 OA 
HETATM   17  H   UNL     2      -6.706  10.039  67.511  1.00  0.00     0.000 HD 
HETATM   18  O   UNL     2      -9.491   9.445  64.913  1.00  0.00    -0.229 OA 
HETATM   19  O   UNL     2      -7.962   8.410  66.295  1.00  0.00    -0.095 OA 
ENDBRANCH  11  14
ENDBRANCH   8  11
ENDBRANCH   2   8
TORSDOF 4
ENDMDL
MODEL      321
REMARK 921   NORMALIZED FREE ENERGY PREDICTED BY IDOCK:   -2.46 KCAL/MOL
REMARK 922        TOTAL FREE ENERGY PREDICTED BY IDOCK:   -4.05 KCAL/MOL
REMARK 923 INTER-LIGAND FREE ENERGY PREDICTED BY IDOCK:   -3.60 KCAL/MOL
REMARK 924 INTRA-LIGAND FREE ENERGY PREDICTED BY IDOCK:   -0.45 KCAL/MOL
REMARK 927      BINDING AFFINITY PREDICTED BY RF-SCORE:    0.00 PKD
ROOT
HETATM    1  K   UNL     1     -12.263   5.460  65.151  1.00  0.00    -0.660 K  
HETATM    2  C   UNL     2      -9.220   5.765  67.108  1.00  0.00    -0.115 C  
HETATM    3  H   UNL     2     -10.185   5.364  65.430  1.00  0.00     0.000 HD 
HETATM    4  O   UNL     2      -9.867   4.863  66.171  1.00  0.00    -0.169 OA 
ENDROOT
BRANCH   2   5
HETATM    5  C   UNL     2      -8.709   4.958  68.303  1.00  0.00    -0.102 C  
HETATM    6  O   UNL     2      -8.400   3.630  67.864  1.00  0.00    -0.090 OA 
HETATM    7  H   UNL     2      -8.082   3.129  68.606  1.00  0.00     0.000 HD 
ENDBRANCH   2   5
BRANCH   2   8
HETATM    8  C   UNL     2     -10.117   6.967  67.500  1.00  0.00    -0.185 C  
HETATM    9  O   UNL     2     -11.439   6.636  67.018  1.00  0.00    -0.763 OA 
HETATM   10  H   UNL     2     -11.988   7.372  67.258  1.00  0.00     0.000 HD 
BRANCH   8  11
HETATM   11  C   UNL     2     -10.117   7.329  69.015  1.00  0.00    -0.186 C  
HETATM   12  O   UNL     2     -11.390   7.864  69.427  1.00  0.00    -0.435 OA 
HETATM   13  H   UNL     2     -11.390   8.085  70.351  1.00  0.00     0.000 HD 
BRANCH  11  14
HETATM   14  C   UNL     2      -8.989   8.282  69.447  1.00  0.00    -0.147 C  
HETATM   15  C   UNL     2      -8.645   8.120  70.955  1.00  0.00    -0.135 C  
HETATM   16  O   UNL     2      -9.323   9.650  69.145  1.00  0.00    -0.156 OA 
HETATM   17  H   UNL     2      -8.626  10.238  69.412  1.00  0.00     0.000 HD 
HETATM   18  O   UNL     2      -8.727   6.928  71.385  1.00  0.00    -0.126 OA 
HETATM   19  O   UNL     2      -8.422   9.208  71.558  1.00  0.00    -0.333 OA 
ENDBRANCH  11  14
ENDBRANCH   8  11
ENDBRANCH   2   8
TORSDOF 4
ENDMDL
MODEL      322
REMARK 921   NORMALIZED FREE ENERGY PREDICTED BY IDOCK:   -2.46 KCAL/MOL
REMARK 922        TOTAL FREE ENERGY PREDICTED BY IDOCK:   -4.04 KCAL/MOL
REMARK 923 INTER-LIGAND FREE ENERGY PREDICTED BY IDOCK:   -3.68 KCAL/MOL
REMARK 924 INTRA-LIGAND FREE ENERGY PREDICTED BY IDOCK:   -0.36 KCAL/MOL
REMARK 927      BINDING AFFINITY PREDICTED BY RF-SCORE:    0.00 PKD
ROOT
HETATM    1  K   UNL     1     -10.421   3.299  66.510  1.00  0.00    -0.409 K  
HETATM    2  C   UNL     2      -9.634   5.153  69.531  1.00  0.00    -0.161 C  
HETATM    3  H   UNL     2      -9.162   3.898  68.080  1.00  0.00     0.000 HD 
HETATM    4  O   UNL     2      -9.502   3.824  68.963  1.00  0.00    -0.162 OA 
ENDROOT
BRANCH   2   5
HETATM    5  C   UNL     2     -10.182   5.035  70.955  1.00  0.00    -0.217 C  
HETATM    6  O   UNL     2      -9.116   5.271  71.880  1.00  0.00    -0.136 OA 
HETATM    7  H   UNL     2      -9.456   5.198  72.763  1.00  0.00     0.000 HD 
ENDBRANCH   2   5
BRANCH   2   8
HETATM    8  C   UNL     2     -10.446   6.115  68.624  1.00  0.00    -0.236 C  
HETATM    9  O   UNL     2     -11.617   6.473  69.391  1.00  0.00    -0.619 OA 
HETATM   10  H   UNL     2     -12.113   7.061  68.836  1.00  0.00     0.000 HD 
BRANCH   8  11
HETATM   11  C   UNL     2      -9.668   7.367  68.120  1.00  0.00    -0.151 C  
HETATM   12  O   UNL     2      -9.227   8.188  69.219  1.00  0.00    -0.151 OA 
HETATM   13  H   UNL     2      -8.753   8.952  68.912  1.00  0.00     0.000 HD 
BRANCH  11  14
HETATM   14  C   UNL     2     -10.431   8.229  67.100  1.00  0.00    -0.316 C  
HETATM   15  C   UNL     2      -9.493   8.761  65.979  1.00  0.00    -0.233 C  
HETATM   16  O   UNL     2     -11.115   9.316  67.750  1.00  0.00    -0.504 OA 
HETATM   17  H   UNL     2     -11.586   9.848  67.119  1.00  0.00     0.000 HD 
HETATM   18  O   UNL     2      -8.579   7.950  65.632  1.00  0.00    -0.147 OA 
HETATM   19  O   UNL     2      -9.714   9.957  65.638  1.00  0.00    -0.239 OA 
ENDBRANCH  11  14
ENDBRANCH   8  11
ENDBRANCH   2   8
TORSDOF 4
ENDMDL
MODEL      323
REMARK 921   NORMALIZED FREE ENERGY PREDICTED BY IDOCK:   -2.44 KCAL/MOL
REMARK 922        TOTAL FREE ENERGY PREDICTED BY IDOCK:   -4.02 KCAL/MOL
REMARK 923 INTER-LIGAND FREE ENERGY PREDICTED BY IDOCK:   -3.52 KCAL/MOL
REMARK 924 INTRA-LIGAND FREE ENERGY PREDICTED BY IDOCK:   -0.50 KCAL/MOL
REMARK 927      BINDING AFFINITY PREDICTED BY RF-SCORE:    0.00 PKD
ROOT
HETATM    1  K   UNL     1      -6.586   9.620  66.880  1.00  0.00    -0.060 K  
HETATM    2  C   UNL     2      -9.135   9.813  69.458  1.00  0.00    -0.216 C  
HETATM    3  H   UNL     2      -7.329   9.324  68.821  1.00  0.00     0.000 HD 
HETATM    4  O   UNL     2      -8.167   8.884  68.905  1.00  0.00    -0.114 OA 
ENDROOT
BRANCH   2   5
HETATM    5  C   UNL     2     -10.485   9.104  69.593  1.00  0.00    -0.223 C  
HETATM    6  O   UNL     2     -10.263   7.689  69.600  1.00  0.00    -0.194 OA 
HETATM    7  H   UNL     2     -11.100   7.249  69.684  1.00  0.00     0.000 HD 
ENDBRANCH   2   5
BRANCH   2   8
HETATM    8  C   UNL     2      -9.203  11.148  68.673  1.00  0.00    -0.171 C  
HETATM    9  O   UNL     2      -7.917  11.778  68.871  1.00  0.00    -0.292 OA 
HETATM   10  H   UNL     2      -7.959  12.595  68.391  1.00  0.00     0.000 HD 
BRANCH   8  11
HETATM   11  C   UNL     2      -9.564  11.012  67.163  1.00  0.00    -0.169 C  
HETATM   12  O   UNL     2      -8.471  10.452  66.410  1.00  0.00    -0.131 OA 
HETATM   13  H   UNL     2      -8.691  10.369  65.490  1.00  0.00     0.000 HD 
BRANCH  11  14
HETATM   14  C   UNL     2     -10.039  12.315  66.498  1.00  0.00    -0.215 C  
HETATM   15  C   UNL     2     -11.590  12.399  66.438  1.00  0.00    -0.384 C  
HETATM   16  O   UNL     2      -9.470  12.463  65.184  1.00  0.00    -0.450 OA 
HETATM   17  H   UNL     2      -9.763  13.268  64.773  1.00  0.00     0.000 HD 
HETATM   18  O   UNL     2     -12.181  11.898  67.444  1.00  0.00    -0.502 OA 
HETATM   19  O   UNL     2     -12.046  12.869  65.357  1.00  0.00    -0.401 OA 
ENDBRANCH  11  14
ENDBRANCH   8  11
ENDBRANCH   2   8
TORSDOF 4
ENDMDL
MODEL      324
REMARK 921   NORMALIZED FREE ENERGY PREDICTED BY IDOCK:   -2.43 KCAL/MOL
REMARK 922        TOTAL FREE ENERGY PREDICTED BY IDOCK:   -4.01 KCAL/MOL
REMARK 923 INTER-LIGAND FREE ENERGY PREDICTED BY IDOCK:   -3.36 KCAL/MOL
REMARK 924 INTRA-LIGAND FREE ENERGY PREDICTED BY IDOCK:   -0.65 KCAL/MOL
REMARK 927      BINDING AFFINITY PREDICTED BY RF-SCORE:    0.00 PKD
ROOT
HETATM    1  K   UNL     1      -7.050   8.113  70.634  1.00  0.00    -0.041 K  
HETATM    2  C   UNL     2      -9.946   9.563  68.993  1.00  0.00    -0.180 C  
HETATM    3  H   UNL     2      -8.187   8.662  68.956  1.00  0.00     0.000 HD 
HETATM    4  O   UNL     2      -8.496   9.559  68.914  1.00  0.00    -0.117 OA 
ENDROOT
BRANCH   2   5
HETATM    5  C   UNL     2     -10.444  11.009  68.925  1.00  0.00    -0.204 C  
HETATM    6  O   UNL     2     -10.454  11.428  67.556  1.00  0.00    -0.190 OA 
HETATM    7  H   UNL     2     -10.762  12.325  67.514  1.00  0.00     0.000 HD 
ENDBRANCH   2   5
BRANCH   2   8
HETATM    8  C   UNL     2     -10.483   8.771  70.212  1.00  0.00    -0.208 C  
HETATM    9  O   UNL     2     -11.857   9.190  70.370  1.00  0.00    -0.450 OA 
HETATM   10  H   UNL     2     -12.186   8.705  71.117  1.00  0.00     0.000 HD 
BRANCH   8  11
HETATM   11  C   UNL     2     -10.349   7.222  70.109  1.00  0.00    -0.212 C  
HETATM   12  O   UNL     2     -11.518   6.633  69.507  1.00  0.00    -0.538 OA 
HETATM   13  H   UNL     2     -11.437   5.688  69.444  1.00  0.00     0.000 HD 
BRANCH  11  14
HETATM   14  C   UNL     2     -10.037   6.514  71.439  1.00  0.00    -0.191 C  
HETATM   15  C   UNL     2     -11.098   6.841  72.528  1.00  0.00    -0.264 C  
HETATM   16  O   UNL     2      -8.714   6.842  71.902  1.00  0.00    -0.126 OA 
HETATM   17  H   UNL     2      -8.522   6.405  72.723  1.00  0.00     0.000 HD 
HETATM   18  O   UNL     2     -12.282   6.962  72.086  1.00  0.00    -0.285 OA 
HETATM   19  O   UNL     2     -10.619   7.032  73.681  1.00  0.00    -0.357 OA 
ENDBRANCH  11  14
ENDBRANCH   8  11
ENDBRANCH   2   8
TORSDOF 4
ENDMDL
MODEL      325
REMARK 921   NORMALIZED FREE ENERGY PREDICTED BY IDOCK:   -2.43 KCAL/MOL
REMARK 922        TOTAL FREE ENERGY PREDICTED BY IDOCK:   -4.01 KCAL/MOL
REMARK 923 INTER-LIGAND FREE ENERGY PREDICTED BY IDOCK:   -3.35 KCAL/MOL
REMARK 924 INTRA-LIGAND FREE ENERGY PREDICTED BY IDOCK:   -0.66 KCAL/MOL
REMARK 927      BINDING AFFINITY PREDICTED BY RF-SCORE:    0.00 PKD
ROOT
HETATM    1  K   UNL     1      -7.981   7.652  66.356  1.00  0.00    -0.088 K  
HETATM    2  C   UNL     2      -6.857  10.136  68.755  1.00  0.00    -0.061 C  
HETATM    3  H   UNL     2      -6.526   8.825  67.313  1.00  0.00     0.000 HD 
HETATM    4  O   UNL     2      -6.512   8.814  68.262  1.00  0.00    -0.058 OA 
ENDROOT
BRANCH   2   5
HETATM    5  C   UNL     2      -6.835  10.118  70.285  1.00  0.00    -0.148 C  
HETATM    6  O   UNL     2      -6.297  11.359  70.752  1.00  0.00    -0.500 OA 
HETATM    7  H   UNL     2      -6.283  11.348  71.701  1.00  0.00     0.000 HD 
ENDBRANCH   2   5
BRANCH   2   8
HETATM    8  C   UNL     2      -8.180  10.675  68.152  1.00  0.00    -0.116 C  
HETATM    9  O   UNL     2      -8.583  11.761  69.016  1.00  0.00    -0.369 OA 
HETATM   10  H   UNL     2      -9.393  12.090  68.647  1.00  0.00     0.000 HD 
BRANCH   8  11
HETATM   11  C   UNL     2      -8.099  11.111  66.659  1.00  0.00    -0.159 C  
HETATM   12  O   UNL     2      -7.285  12.288  66.498  1.00  0.00    -0.353 OA 
HETATM   13  H   UNL     2      -7.236  12.554  65.588  1.00  0.00     0.000 HD 
BRANCH  11  14
HETATM   14  C   UNL     2      -9.462  11.326  65.979  1.00  0.00    -0.216 C  
HETATM   15  C   UNL     2      -9.754  10.232  64.912  1.00  0.00    -0.320 C  
HETATM   16  O   UNL     2      -9.549  12.640  65.397  1.00  0.00    -0.450 OA 
HETATM   17  H   UNL     2     -10.391  12.773  64.977  1.00  0.00     0.000 HD 
HETATM   18  O   UNL     2      -9.323   9.077  65.217  1.00  0.00    -0.197 OA 
HETATM   19  O   UNL     2     -10.294  10.665  63.856  1.00  0.00    -0.318 OA 
ENDBRANCH  11  14
ENDBRANCH   8  11
ENDBRANCH   2   8
TORSDOF 4
ENDMDL
MODEL      326
REMARK 921   NORMALIZED FREE ENERGY PREDICTED BY IDOCK:   -2.43 KCAL/MOL
REMARK 922        TOTAL FREE ENERGY PREDICTED BY IDOCK:   -4.01 KCAL/MOL
REMARK 923 INTER-LIGAND FREE ENERGY PREDICTED BY IDOCK:   -3.13 KCAL/MOL
REMARK 924 INTRA-LIGAND FREE ENERGY PREDICTED BY IDOCK:   -0.87 KCAL/MOL
REMARK 927      BINDING AFFINITY PREDICTED BY RF-SCORE:    0.00 PKD
ROOT
HETATM    1  K   UNL     1      -8.234  10.416  68.391  1.00  0.00    -0.095 K  
HETATM    2  C   UNL     2      -7.518   8.204  65.602  1.00  0.00    -0.081 C  
HETATM    3  H   UNL     2      -6.997   9.159  67.253  1.00  0.00     0.000 HD 
HETATM    4  O   UNL     2      -6.944   9.328  66.320  1.00  0.00    -0.084 OA 
ENDROOT
BRANCH   2   5
HETATM    5  C   UNL     2      -7.432   8.477  64.099  1.00  0.00    -0.112 C  
HETATM    6  O   UNL     2      -8.757   8.663  63.589  1.00  0.00    -0.418 OA 
HETATM    7  H   UNL     2      -8.704   8.833  62.656  1.00  0.00     0.000 HD 
ENDBRANCH   2   5
BRANCH   2   8
HETATM    8  C   UNL     2      -8.943   7.843  66.095  1.00  0.00    -0.175 C  
HETATM    9  O   UNL     2      -9.320   6.662  65.352  1.00  0.00    -0.328 OA 
HETATM   10  H   UNL     2     -10.193   6.441  65.654  1.00  0.00     0.000 HD 
BRANCH   8  11
HETATM   11  C   UNL     2      -9.082   7.640  67.633  1.00  0.00    -0.129 C  
HETATM   12  O   UNL     2      -8.475   6.404  68.056  1.00  0.00    -0.118 OA 
HETATM   13  H   UNL     2      -8.560   6.280  68.995  1.00  0.00     0.000 HD 
BRANCH  11  14
HETATM   14  C   UNL     2     -10.524   7.718  68.163  1.00  0.00    -0.176 C  
HETATM   15  C   UNL     2     -10.591   7.453  69.694  1.00  0.00    -0.236 C  
HETATM   16  O   UNL     2     -11.388   6.812  67.451  1.00  0.00    -0.668 OA 
HETATM   17  H   UNL     2     -12.278   6.861  67.779  1.00  0.00     0.000 HD 
HETATM   18  O   UNL     2      -9.603   7.911  70.348  1.00  0.00    -0.170 OA 
HETATM   19  O   UNL     2     -11.569   6.742  70.058  1.00  0.00    -0.343 OA 
ENDBRANCH  11  14
ENDBRANCH   8  11
ENDBRANCH   2   8
TORSDOF 4
ENDMDL
MODEL      327
REMARK 921   NORMALIZED FREE ENERGY PREDICTED BY IDOCK:   -2.43 KCAL/MOL
REMARK 922        TOTAL FREE ENERGY PREDICTED BY IDOCK:   -4.01 KCAL/MOL
REMARK 923 INTER-LIGAND FREE ENERGY PREDICTED BY IDOCK:   -3.52 KCAL/MOL
REMARK 924 INTRA-LIGAND FREE ENERGY PREDICTED BY IDOCK:   -0.49 KCAL/MOL
REMARK 927      BINDING AFFINITY PREDICTED BY RF-SCORE:    0.00 PKD
ROOT
HETATM    1  K   UNL     1      -7.013   7.383  69.880  1.00  0.00    -0.047 K  
HETATM    2  C   UNL     2     -10.177   9.122  70.269  1.00  0.00    -0.214 C  
HETATM    3  H   UNL     2      -8.221   9.098  69.988  1.00  0.00     0.000 HD 
HETATM    4  O   UNL     2      -8.803   9.174  70.734  1.00  0.00    -0.208 OA 
ENDROOT
BRANCH   2   5
HETATM    5  C   UNL     2     -11.115   9.245  71.471  1.00  0.00    -0.373 C  
HETATM    6  O   UNL     2     -10.674   8.346  72.494  1.00  0.00    -0.338 OA 
HETATM    7  H   UNL     2     -11.256   8.422  73.240  1.00  0.00     0.000 HD 
ENDBRANCH   2   5
BRANCH   2   8
HETATM    8  C   UNL     2     -10.461   7.888  69.374  1.00  0.00    -0.220 C  
HETATM    9  O   UNL     2     -11.497   7.146  70.057  1.00  0.00    -0.434 OA 
HETATM   10  H   UNL     2     -11.670   6.391  69.510  1.00  0.00     0.000 HD 
BRANCH   8  11
HETATM   11  C   UNL     2     -10.846   8.212  67.899  1.00  0.00     0.032 C  
HETATM   12  O   UNL     2     -11.237   7.023  67.186  1.00  0.00    -0.590 OA 
HETATM   13  H   UNL     2     -11.471   7.220  66.286  1.00  0.00     0.000 HD 
BRANCH  11  14
HETATM   14  C   UNL     2      -9.764   8.962  67.104  1.00  0.00    -0.184 C  
HETATM   15  C   UNL     2     -10.333  10.238  66.420  1.00  0.00    -0.195 C  
HETATM   16  O   UNL     2      -9.142   8.099  66.134  1.00  0.00    -0.175 OA 
HETATM   17  H   UNL     2      -8.473   8.563  65.644  1.00  0.00     0.000 HD 
HETATM   18  O   UNL     2     -11.219  10.844  67.098  1.00  0.00    -0.316 OA 
HETATM   19  O   UNL     2      -9.901  10.438  65.250  1.00  0.00    -0.253 OA 
ENDBRANCH  11  14
ENDBRANCH   8  11
ENDBRANCH   2   8
TORSDOF 4
ENDMDL
MODEL      328
REMARK 921   NORMALIZED FREE ENERGY PREDICTED BY IDOCK:   -2.42 KCAL/MOL
REMARK 922        TOTAL FREE ENERGY PREDICTED BY IDOCK:   -4.00 KCAL/MOL
REMARK 923 INTER-LIGAND FREE ENERGY PREDICTED BY IDOCK:   -4.31 KCAL/MOL
REMARK 924 INTRA-LIGAND FREE ENERGY PREDICTED BY IDOCK:    0.32 KCAL/MOL
REMARK 927      BINDING AFFINITY PREDICTED BY RF-SCORE:    0.00 PKD
ROOT
HETATM    1  K   UNL     1     -10.067  11.341  67.216  1.00  0.00    -0.171 K  
HETATM    2  C   UNL     2      -8.327  14.439  67.963  1.00  0.00    -0.157 C  
HETATM    3  H   UNL     2      -8.396  12.470  67.799  1.00  0.00     0.000 HD 
HETATM    4  O   UNL     2      -8.519  13.102  68.497  1.00  0.00    -0.144 OA 
ENDROOT
BRANCH   2   5
HETATM    5  C   UNL     2      -8.525  15.457  69.088  1.00  0.00    -0.241 C  
HETATM    6  O   UNL     2      -8.002  14.909  70.303  1.00  0.00    -0.239 OA 
HETATM    7  H   UNL     2      -8.125  15.541  71.001  1.00  0.00     0.000 HD 
ENDBRANCH   2   5
BRANCH   2   8
HETATM    8  C   UNL     2      -9.194  14.714  66.707  1.00  0.00    -0.264 C  
HETATM    9  O   UNL     2      -9.172  13.485  65.947  1.00  0.00    -0.484 OA 
HETATM   10  H   UNL     2      -9.702  13.653  65.178  1.00  0.00     0.000 HD 
BRANCH   8  11
HETATM   11  C   UNL     2     -10.645  15.200  66.996  1.00  0.00    -0.300 C  
HETATM   12  O   UNL     2     -10.933  15.183  68.408  1.00  0.00    -0.251 OA 
HETATM   13  H   UNL     2     -11.819  15.479  68.584  1.00  0.00     0.000 HD 
BRANCH  11  14
HETATM   14  C   UNL     2     -11.742  14.436  66.233  1.00  0.00    -0.385 C  
HETATM   15  C   UNL     2     -11.957  13.008  66.810  1.00  0.00    -0.369 C  
HETATM   16  O   UNL     2     -11.448  14.377  64.825  1.00  0.00    -0.368 OA 
HETATM   17  H   UNL     2     -12.125  13.906  64.355  1.00  0.00     0.000 HD 
HETATM   18  O   UNL     2     -11.828  12.928  68.071  1.00  0.00    -0.346 OA 
HETATM   19  O   UNL     2     -12.139  12.115  65.936  1.00  0.00    -0.594 OA 
ENDBRANCH  11  14
ENDBRANCH   8  11
ENDBRANCH   2   8
TORSDOF 4
ENDMDL
MODEL      329
REMARK 921   NORMALIZED FREE ENERGY PREDICTED BY IDOCK:   -2.42 KCAL/MOL
REMARK 922        TOTAL FREE ENERGY PREDICTED BY IDOCK:   -3.99 KCAL/MOL
REMARK 923 INTER-LIGAND FREE ENERGY PREDICTED BY IDOCK:   -3.48 KCAL/MOL
REMARK 924 INTRA-LIGAND FREE ENERGY PREDICTED BY IDOCK:   -0.51 KCAL/MOL
REMARK 927      BINDING AFFINITY PREDICTED BY RF-SCORE:    0.00 PKD
ROOT
HETATM    1  K   UNL     1     -10.832   3.171  71.925  1.00  0.00    -0.100 K  
HETATM    2  C   UNL     2     -10.232   5.561  69.259  1.00  0.00    -0.245 C  
HETATM    3  H   UNL     2     -10.807   3.789  69.919  1.00  0.00     0.000 HD 
HETATM    4  O   UNL     2     -10.001   4.167  69.589  1.00  0.00    -0.195 OA 
ENDROOT
BRANCH   2   5
HETATM    5  C   UNL     2      -8.933   6.170  68.727  1.00  0.00    -0.123 C  
HETATM    6  O   UNL     2      -7.856   5.775  69.584  1.00  0.00    -0.092 OA 
HETATM    7  H   UNL     2      -7.049   6.152  69.255  1.00  0.00     0.000 HD 
ENDBRANCH   2   5
BRANCH   2   8
HETATM    8  C   UNL     2     -10.866   6.358  70.428  1.00  0.00    -0.286 C  
HETATM    9  O   UNL     2     -12.259   6.517  70.077  1.00  0.00    -0.525 OA 
HETATM   10  H   UNL     2     -12.647   7.005  70.793  1.00  0.00     0.000 HD 
BRANCH   8  11
HETATM   11  C   UNL     2     -10.686   5.722  71.839  1.00  0.00    -0.242 C  
HETATM   12  O   UNL     2     -11.944   5.616  72.532  1.00  0.00    -0.392 OA 
HETATM   13  H   UNL     2     -11.834   5.228  73.393  1.00  0.00     0.000 HD 
BRANCH  11  14
HETATM   14  C   UNL     2      -9.657   6.432  72.736  1.00  0.00    -0.150 C  
HETATM   15  C   UNL     2      -9.893   7.968  72.779  1.00  0.00    -0.282 C  
HETATM   16  O   UNL     2      -8.312   6.135  72.317  1.00  0.00    -0.113 OA 
HETATM   17  H   UNL     2      -7.677   6.573  72.871  1.00  0.00     0.000 HD 
HETATM   18  O   UNL     2     -11.115   8.311  72.747  1.00  0.00    -0.367 OA 
HETATM   19  O   UNL     2      -8.836   8.659  72.745  1.00  0.00    -0.374 OA 
ENDBRANCH  11  14
ENDBRANCH   8  11
ENDBRANCH   2   8
TORSDOF 4
ENDMDL
MODEL      330
REMARK 921   NORMALIZED FREE ENERGY PREDICTED BY IDOCK:   -2.41 KCAL/MOL
REMARK 922        TOTAL FREE ENERGY PREDICTED BY IDOCK:   -3.99 KCAL/MOL
REMARK 923 INTER-LIGAND FREE ENERGY PREDICTED BY IDOCK:   -3.42 KCAL/MOL
REMARK 924 INTRA-LIGAND FREE ENERGY PREDICTED BY IDOCK:   -0.57 KCAL/MOL
REMARK 927      BINDING AFFINITY PREDICTED BY RF-SCORE:    0.00 PKD
ROOT
HETATM    1  K   UNL     1     -10.063  11.508  69.723  1.00  0.00    -0.391 K  
HETATM    2  C   UNL     2     -10.972   8.024  70.192  1.00  0.00    -0.226 C  
HETATM    3  H   UNL     2     -11.408   9.896  69.729  1.00  0.00     0.000 HD 
HETATM    4  O   UNL     2     -11.442   9.360  70.513  1.00  0.00    -0.263 OA 
ENDROOT
BRANCH   2   5
HETATM    5  C   UNL     2     -11.027   7.161  71.454  1.00  0.00    -0.234 C  
HETATM    6  O   UNL     2     -11.408   5.830  71.085  1.00  0.00    -0.215 OA 
HETATM    7  H   UNL     2     -11.442   5.295  71.868  1.00  0.00     0.000 HD 
ENDBRANCH   2   5
BRANCH   2   8
HETATM    8  C   UNL     2      -9.588   8.027  69.492  1.00  0.00    -0.164 C  
HETATM    9  O   UNL     2      -8.731   7.219  70.329  1.00  0.00    -0.144 OA 
HETATM   10  H   UNL     2      -7.884   7.220  69.901  1.00  0.00     0.000 HD 
BRANCH   8  11
HETATM   11  C   UNL     2      -9.592   7.541  68.012  1.00  0.00    -0.143 C  
HETATM   12  O   UNL     2      -9.956   8.605  67.111  1.00  0.00    -0.188 OA 
HETATM   13  H   UNL     2      -9.958   8.309  66.208  1.00  0.00     0.000 HD 
BRANCH  11  14
HETATM   14  C   UNL     2     -10.472   6.309  67.743  1.00  0.00    -0.232 C  
HETATM   15  C   UNL     2      -9.638   5.110  67.210  1.00  0.00    -0.142 C  
HETATM   16  O   UNL     2     -11.545   6.626  66.836  1.00  0.00    -0.726 OA 
HETATM   17  H   UNL     2     -12.088   5.865  66.671  1.00  0.00     0.000 HD 
HETATM   18  O   UNL     2      -8.476   5.016  67.713  1.00  0.00    -0.105 OA 
HETATM   19  O   UNL     2     -10.198   4.456  66.285  1.00  0.00    -0.242 OA 
ENDBRANCH  11  14
ENDBRANCH   8  11
ENDBRANCH   2   8
TORSDOF 4
ENDMDL
MODEL      331
REMARK 921   NORMALIZED FREE ENERGY PREDICTED BY IDOCK:   -2.40 KCAL/MOL
REMARK 922        TOTAL FREE ENERGY PREDICTED BY IDOCK:   -3.97 KCAL/MOL
REMARK 923 INTER-LIGAND FREE ENERGY PREDICTED BY IDOCK:   -3.10 KCAL/MOL
REMARK 924 INTRA-LIGAND FREE ENERGY PREDICTED BY IDOCK:   -0.87 KCAL/MOL
REMARK 927      BINDING AFFINITY PREDICTED BY RF-SCORE:    0.00 PKD
ROOT
HETATM    1  K   UNL     1      -8.208   7.709  65.893  1.00  0.00    -0.091 K  
HETATM    2  C   UNL     2     -10.533   8.499  68.568  1.00  0.00    -0.167 C  
HETATM    3  H   UNL     2      -9.856   8.710  66.723  1.00  0.00     0.000 HD 
HETATM    4  O   UNL     2      -9.725   9.152  67.553  1.00  0.00    -0.148 OA 
ENDROOT
BRANCH   2   5
HETATM    5  C   UNL     2     -10.321   9.210  69.907  1.00  0.00    -0.212 C  
HETATM    6  O   UNL     2     -11.110   8.554  70.906  1.00  0.00    -0.243 OA 
HETATM    7  H   UNL     2     -10.978   8.996  71.736  1.00  0.00     0.000 HD 
ENDBRANCH   2   5
BRANCH   2   8
HETATM    8  C   UNL     2     -10.299   6.967  68.627  1.00  0.00    -0.186 C  
HETATM    9  O   UNL     2     -11.466   6.424  69.285  1.00  0.00    -0.561 OA 
HETATM   10  H   UNL     2     -11.323   5.486  69.321  1.00  0.00     0.000 HD 
BRANCH   8  11
HETATM   11  C   UNL     2     -10.028   6.284  67.253  1.00  0.00    -0.146 C  
HETATM   12  O   UNL     2     -11.246   6.112  66.503  1.00  0.00    -0.741 OA 
HETATM   13  H   UNL     2     -11.080   5.695  65.665  1.00  0.00     0.000 HD 
BRANCH  11  14
HETATM   14  C   UNL     2      -9.277   4.944  67.340  1.00  0.00    -0.125 C  
HETATM   15  C   UNL     2      -9.033   4.328  65.934  1.00  0.00    -0.124 C  
HETATM   16  O   UNL     2      -9.975   4.014  68.189  1.00  0.00    -0.049 OA 
HETATM   17  H   UNL     2      -9.511   3.186  68.243  1.00  0.00     0.000 HD 
HETATM   18  O   UNL     2      -8.795   5.180  65.023  1.00  0.00    -0.154 OA 
HETATM   19  O   UNL     2      -9.198   3.077  65.877  1.00  0.00    -0.152 OA 
ENDBRANCH  11  14
ENDBRANCH   8  11
ENDBRANCH   2   8
TORSDOF 4
ENDMDL
MODEL      332
REMARK 921   NORMALIZED FREE ENERGY PREDICTED BY IDOCK:   -2.40 KCAL/MOL
REMARK 922        TOTAL FREE ENERGY PREDICTED BY IDOCK:   -3.97 KCAL/MOL
REMARK 923 INTER-LIGAND FREE ENERGY PREDICTED BY IDOCK:   -3.75 KCAL/MOL
REMARK 924 INTRA-LIGAND FREE ENERGY PREDICTED BY IDOCK:   -0.22 KCAL/MOL
REMARK 927      BINDING AFFINITY PREDICTED BY RF-SCORE:    0.00 PKD
ROOT
HETATM    1  K   UNL     1      -9.550  20.880  65.266  1.00  0.00    -0.625 K  
HETATM    2  C   UNL     2      -9.829  18.404  67.908  1.00  0.00    -0.329 C  
HETATM    3  H   UNL     2     -10.528  19.347  66.318  1.00  0.00     0.000 HD 
HETATM    4  O   UNL     2     -10.605  19.446  67.259  1.00  0.00    -0.432 OA 
ENDROOT
BRANCH   2   5
HETATM    5  C   UNL     2      -9.954  18.562  69.425  1.00  0.00     0.087 C  
HETATM    6  O   UNL     2     -10.587  19.815  69.707  1.00  0.00    -0.333 OA 
HETATM    7  H   UNL     2     -10.664  19.913  70.648  1.00  0.00     0.000 HD 
ENDBRANCH   2   5
BRANCH   2   8
HETATM    8  C   UNL     2      -8.365  18.342  67.400  1.00  0.00    -0.252 C  
HETATM    9  O   UNL     2      -8.415  18.781  66.024  1.00  0.00    -0.480 OA 
HETATM   10  H   UNL     2      -7.519  18.743  65.714  1.00  0.00     0.000 HD 
BRANCH   8  11
HETATM   11  C   UNL     2      -7.337  19.157  68.241  1.00  0.00    -0.287 C  
HETATM   12  O   UNL     2      -6.995  20.397  67.593  1.00  0.00    -0.270 OA 
HETATM   13  H   UNL     2      -6.368  20.894  68.105  1.00  0.00     0.000 HD 
BRANCH  11  14
HETATM   14  C   UNL     2      -6.054  18.390  68.604  1.00  0.00    -0.205 C  
HETATM   15  C   UNL     2      -5.700  17.319  67.534  1.00  0.00    -0.134 C  
HETATM   16  O   UNL     2      -6.161  17.790  69.908  1.00  0.00    -0.221 OA 
HETATM   17  H   UNL     2      -5.369  17.316  70.133  1.00  0.00     0.000 HD 
HETATM   18  O   UNL     2      -5.969  17.663  66.341  1.00  0.00    -0.171 OA 
HETATM   19  O   UNL     2      -5.281  16.226  68.008  1.00  0.00    -0.098 OA 
ENDBRANCH  11  14
ENDBRANCH   8  11
ENDBRANCH   2   8
TORSDOF 4
ENDMDL
MODEL      333
REMARK 921   NORMALIZED FREE ENERGY PREDICTED BY IDOCK:   -2.40 KCAL/MOL
REMARK 922        TOTAL FREE ENERGY PREDICTED BY IDOCK:   -3.97 KCAL/MOL
REMARK 923 INTER-LIGAND FREE ENERGY PREDICTED BY IDOCK:   -3.48 KCAL/MOL
REMARK 924 INTRA-LIGAND FREE ENERGY PREDICTED BY IDOCK:   -0.50 KCAL/MOL
REMARK 927      BINDING AFFINITY PREDICTED BY RF-SCORE:    0.00 PKD
ROOT
HETATM    1  K   UNL     1     -12.218   6.704  67.046  1.00  0.00    -0.696 K  
HETATM    2  C   UNL     2      -9.306   7.361  69.114  1.00  0.00    -0.146 C  
HETATM    3  H   UNL     2     -10.156   6.738  67.442  1.00  0.00     0.000 HD 
HETATM    4  O   UNL     2      -9.861   6.335  68.249  1.00  0.00    -0.121 OA 
ENDROOT
BRANCH   2   5
HETATM    5  C   UNL     2      -8.830   6.711  70.415  1.00  0.00    -0.152 C  
HETATM    6  O   UNL     2      -9.966   6.184  71.109  1.00  0.00    -0.179 OA 
HETATM    7  H   UNL     2      -9.671   5.782  71.917  1.00  0.00     0.000 HD 
ENDBRANCH   2   5
BRANCH   2   8
HETATM    8  C   UNL     2     -10.273   8.554  69.325  1.00  0.00    -0.208 C  
HETATM    9  O   UNL     2     -10.096   8.956  70.702  1.00  0.00    -0.188 OA 
HETATM   10  H   UNL     2     -10.688   9.686  70.831  1.00  0.00     0.000 HD 
BRANCH   8  11
HETATM   11  C   UNL     2     -10.084   9.744  68.337  1.00  0.00    -0.166 C  
HETATM   12  O   UNL     2      -8.903   9.575  67.531  1.00  0.00    -0.125 OA 
HETATM   13  H   UNL     2      -8.787  10.301  66.929  1.00  0.00     0.000 HD 
BRANCH  11  14
HETATM   14  C   UNL     2     -10.066  11.132  69.001  1.00  0.00    -0.155 C  
HETATM   15  C   UNL     2     -11.261  12.010  68.534  1.00  0.00    -0.256 C  
HETATM   16  O   UNL     2      -8.816  11.804  68.760  1.00  0.00    -0.340 OA 
HETATM   17  H   UNL     2      -8.805  12.661  69.170  1.00  0.00     0.000 HD 
HETATM   18  O   UNL     2     -12.339  11.366  68.338  1.00  0.00    -0.505 OA 
HETATM   19  O   UNL     2     -10.968  13.221  68.325  1.00  0.00    -0.238 OA 
ENDBRANCH  11  14
ENDBRANCH   8  11
ENDBRANCH   2   8
TORSDOF 4
ENDMDL
MODEL      334
REMARK 921   NORMALIZED FREE ENERGY PREDICTED BY IDOCK:   -2.40 KCAL/MOL
REMARK 922        TOTAL FREE ENERGY PREDICTED BY IDOCK:   -3.97 KCAL/MOL
REMARK 923 INTER-LIGAND FREE ENERGY PREDICTED BY IDOCK:   -3.51 KCAL/MOL
REMARK 924 INTRA-LIGAND FREE ENERGY PREDICTED BY IDOCK:   -0.46 KCAL/MOL
REMARK 927      BINDING AFFINITY PREDICTED BY RF-SCORE:    0.00 PKD
ROOT
HETATM    1  K   UNL     1     -10.894  10.349  64.553  1.00  0.00    -0.347 K  
HETATM    2  C   UNL     2     -10.263  12.137  67.649  1.00  0.00    -0.197 C  
HETATM    3  H   UNL     2     -10.996  12.022  65.818  1.00  0.00     0.000 HD 
HETATM    4  O   UNL     2     -10.185  12.320  66.211  1.00  0.00    -0.221 OA 
ENDROOT
BRANCH   2   5
HETATM    5  C   UNL     2      -8.956  12.618  68.284  1.00  0.00    -0.176 C  
HETATM    6  O   UNL     2      -9.174  13.908  68.865  1.00  0.00    -0.384 OA 
HETATM    7  H   UNL     2      -8.363  14.207  69.259  1.00  0.00     0.000 HD 
ENDBRANCH   2   5
BRANCH   2   8
HETATM    8  C   UNL     2     -10.660  10.693  68.049  1.00  0.00    -0.211 C  
HETATM    9  O   UNL     2     -12.105  10.676  68.050  1.00  0.00    -0.755 OA 
HETATM   10  H   UNL     2     -12.349   9.792  68.294  1.00  0.00     0.000 HD 
BRANCH   8  11
HETATM   11  C   UNL     2     -10.060   9.567  67.154  1.00  0.00    -0.229 C  
HETATM   12  O   UNL     2     -10.965   8.452  67.036  1.00  0.00    -0.378 OA 
HETATM   13  H   UNL     2     -10.598   7.766  66.491  1.00  0.00     0.000 HD 
BRANCH  11  14
HETATM   14  C   UNL     2      -8.674   9.067  67.595  1.00  0.00    -0.124 C  
HETATM   15  C   UNL     2      -8.152   7.929  66.674  1.00  0.00    -0.107 C  
HETATM   16  O   UNL     2      -8.690   8.642  68.971  1.00  0.00    -0.131 OA 
HETATM   17  H   UNL     2      -7.833   8.334  69.243  1.00  0.00     0.000 HD 
HETATM   18  O   UNL     2      -8.468   8.059  65.450  1.00  0.00    -0.149 OA 
HETATM   19  O   UNL     2      -7.568   6.990  67.285  1.00  0.00    -0.103 OA 
ENDBRANCH  11  14
ENDBRANCH   8  11
ENDBRANCH   2   8
TORSDOF 4
ENDMDL
MODEL      335
REMARK 921   NORMALIZED FREE ENERGY PREDICTED BY IDOCK:   -2.39 KCAL/MOL
REMARK 922        TOTAL FREE ENERGY PREDICTED BY IDOCK:   -3.96 KCAL/MOL
REMARK 923 INTER-LIGAND FREE ENERGY PREDICTED BY IDOCK:   -3.58 KCAL/MOL
REMARK 924 INTRA-LIGAND FREE ENERGY PREDICTED BY IDOCK:   -0.38 KCAL/MOL
REMARK 927      BINDING AFFINITY PREDICTED BY RF-SCORE:    0.00 PKD
ROOT
HETATM    1  K   UNL     1     -12.341  10.377  68.214  1.00  0.00    -0.460 K  
HETATM    2  C   UNL     2     -10.261   7.514  69.028  1.00  0.00    -0.205 C  
HETATM    3  H   UNL     2     -10.547   9.285  68.199  1.00  0.00     0.000 HD 
HETATM    4  O   UNL     2     -10.590   8.382  67.911  1.00  0.00    -0.220 OA 
ENDROOT
BRANCH   2   5
HETATM    5  C   UNL     2     -10.329   6.058  68.564  1.00  0.00    -0.207 C  
HETATM    6  O   UNL     2     -10.829   6.025  67.223  1.00  0.00    -0.288 OA 
HETATM    7  H   UNL     2     -10.871   5.121  66.935  1.00  0.00     0.000 HD 
ENDBRANCH   2   5
BRANCH   2   8
HETATM    8  C   UNL     2     -11.112   7.812  70.290  1.00  0.00    -0.234 C  
HETATM    9  O   UNL     2     -12.174   6.832  70.279  1.00  0.00    -0.611 OA 
HETATM   10  H   UNL     2     -12.695   7.014  71.051  1.00  0.00     0.000 HD 
BRANCH   8  11
HETATM   11  C   UNL     2     -10.327   7.812  71.635  1.00  0.00    -0.197 C  
HETATM   12  O   UNL     2      -9.470   8.965  71.743  1.00  0.00    -0.283 OA 
HETATM   13  H   UNL     2      -8.991   8.965  72.564  1.00  0.00     0.000 HD 
BRANCH  11  14
HETATM   14  C   UNL     2      -9.513   6.534  71.904  1.00  0.00    -0.151 C  
HETATM   15  C   UNL     2     -10.229   5.599  72.919  1.00  0.00    -0.186 C  
HETATM   16  O   UNL     2      -8.183   6.852  72.354  1.00  0.00    -0.104 OA 
HETATM   17  H   UNL     2      -7.681   6.062  72.519  1.00  0.00     0.000 HD 
HETATM   18  O   UNL     2     -11.495   5.588  72.819  1.00  0.00    -0.303 OA 
HETATM   19  O   UNL     2      -9.458   5.054  73.759  1.00  0.00    -0.128 OA 
ENDBRANCH  11  14
ENDBRANCH   8  11
ENDBRANCH   2   8
TORSDOF 4
ENDMDL
MODEL      336
REMARK 921   NORMALIZED FREE ENERGY PREDICTED BY IDOCK:   -2.39 KCAL/MOL
REMARK 922        TOTAL FREE ENERGY PREDICTED BY IDOCK:   -3.96 KCAL/MOL
REMARK 923 INTER-LIGAND FREE ENERGY PREDICTED BY IDOCK:   -3.20 KCAL/MOL
REMARK 924 INTRA-LIGAND FREE ENERGY PREDICTED BY IDOCK:   -0.75 KCAL/MOL
REMARK 927      BINDING AFFINITY PREDICTED BY RF-SCORE:    0.00 PKD
ROOT
HETATM    1  K   UNL     1      -7.667   5.669  67.038  1.00  0.00    -0.086 K  
HETATM    2  C   UNL     2      -8.596   5.130  70.507  1.00  0.00    -0.118 C  
HETATM    3  H   UNL     2      -7.267   5.200  69.046  1.00  0.00     0.000 HD 
HETATM    4  O   UNL     2      -7.802   4.529  69.451  1.00  0.00    -0.061 OA 
ENDROOT
BRANCH   2   5
HETATM    5  C   UNL     2      -9.458   4.047  71.160  1.00  0.00    -0.160 C  
HETATM    6  O   UNL     2      -9.574   4.332  72.558  1.00  0.00    -0.129 OA 
HETATM    7  H   UNL     2     -10.109   3.661  72.964  1.00  0.00     0.000 HD 
ENDBRANCH   2   5
BRANCH   2   8
HETATM    8  C   UNL     2      -9.400   6.365  70.023  1.00  0.00    -0.156 C  
HETATM    9  O   UNL     2      -8.907   6.650  68.694  1.00  0.00    -0.124 OA 
HETATM   10  H   UNL     2      -9.399   7.406  68.398  1.00  0.00     0.000 HD 
BRANCH   8  11
HETATM   11  C   UNL     2     -10.949   6.203  70.053  1.00  0.00    -0.372 C  
HETATM   12  O   UNL     2     -11.509   6.263  68.727  1.00  0.00    -0.517 OA 
HETATM   13  H   UNL     2     -12.454   6.164  68.746  1.00  0.00     0.000 HD 
BRANCH  11  14
HETATM   14  C   UNL     2     -11.680   7.197  70.972  1.00  0.00    -0.320 C  
HETATM   15  C   UNL     2     -11.106   8.636  70.837  1.00  0.00    -0.264 C  
HETATM   16  O   UNL     2     -11.642   6.760  72.343  1.00  0.00    -0.298 OA 
HETATM   17  H   UNL     2     -12.094   7.374  72.910  1.00  0.00     0.000 HD 
HETATM   18  O   UNL     2     -10.738   8.944  69.661  1.00  0.00    -0.233 OA 
HETATM   19  O   UNL     2     -11.002   9.260  71.930  1.00  0.00    -0.363 OA 
ENDBRANCH  11  14
ENDBRANCH   8  11
ENDBRANCH   2   8
TORSDOF 4
ENDMDL
MODEL      337
REMARK 921   NORMALIZED FREE ENERGY PREDICTED BY IDOCK:   -2.38 KCAL/MOL
REMARK 922        TOTAL FREE ENERGY PREDICTED BY IDOCK:   -3.94 KCAL/MOL
REMARK 923 INTER-LIGAND FREE ENERGY PREDICTED BY IDOCK:   -4.80 KCAL/MOL
REMARK 924 INTRA-LIGAND FREE ENERGY PREDICTED BY IDOCK:    0.85 KCAL/MOL
REMARK 927      BINDING AFFINITY PREDICTED BY RF-SCORE:    0.00 PKD
ROOT
HETATM    1  K   UNL     1      -8.235  13.594  66.005  1.00  0.00    -0.365 K  
HETATM    2  C   UNL     2     -10.333  16.534  66.385  1.00  0.00    -0.311 C  
HETATM    3  H   UNL     2      -9.593  15.041  65.320  1.00  0.00     0.000 HD 
HETATM    4  O   UNL     2      -9.370  15.952  65.467  1.00  0.00    -0.352 OA 
ENDROOT
BRANCH   2   5
HETATM    5  C   UNL     2      -9.972  18.002  66.621  1.00  0.00    -0.362 C  
HETATM    6  O   UNL     2      -8.764  18.299  65.913  1.00  0.00    -0.500 OA 
HETATM    7  H   UNL     2      -8.540  19.210  66.059  1.00  0.00     0.000 HD 
ENDBRANCH   2   5
BRANCH   2   8
HETATM    8  C   UNL     2     -10.492  15.708  67.688  1.00  0.00    -0.283 C  
HETATM    9  O   UNL     2     -11.601  16.311  68.393  1.00  0.00    -0.327 OA 
HETATM   10  H   UNL     2     -11.698  15.806  69.191  1.00  0.00     0.000 HD 
BRANCH   8  11
HETATM   11  C   UNL     2     -10.688  14.177  67.484  1.00  0.00    -0.269 C  
HETATM   12  O   UNL     2      -9.479  13.449  67.778  1.00  0.00    -0.196 OA 
HETATM   13  H   UNL     2      -9.599  12.515  67.653  1.00  0.00     0.000 HD 
BRANCH  11  14
HETATM   14  C   UNL     2     -11.211  13.776  66.094  1.00  0.00    -0.300 C  
HETATM   15  C   UNL     2     -11.704  12.301  66.067  1.00  0.00    -0.388 C  
HETATM   16  O   UNL     2     -10.212  13.997  65.081  1.00  0.00    -0.381 OA 
HETATM   17  H   UNL     2     -10.535  13.750  64.223  1.00  0.00     0.000 HD 
HETATM   18  O   UNL     2     -12.266  11.918  67.139  1.00  0.00    -0.501 OA 
HETATM   19  O   UNL     2     -11.393  11.667  65.019  1.00  0.00    -0.264 OA 
ENDBRANCH  11  14
ENDBRANCH   8  11
ENDBRANCH   2   8
TORSDOF 4
ENDMDL
MODEL      338
REMARK 921   NORMALIZED FREE ENERGY PREDICTED BY IDOCK:   -2.36 KCAL/MOL
REMARK 922        TOTAL FREE ENERGY PREDICTED BY IDOCK:   -3.92 KCAL/MOL
REMARK 923 INTER-LIGAND FREE ENERGY PREDICTED BY IDOCK:   -4.18 KCAL/MOL
REMARK 924 INTRA-LIGAND FREE ENERGY PREDICTED BY IDOCK:    0.26 KCAL/MOL
REMARK 927      BINDING AFFINITY PREDICTED BY RF-SCORE:    0.00 PKD
ROOT
HETATM    1  K   UNL     1      -8.617  12.372  69.176  1.00  0.00    -0.301 K  
HETATM    2  C   UNL     2      -8.666   9.710  66.706  1.00  0.00    -0.134 C  
HETATM    3  H   UNL     2      -7.982  11.425  67.412  1.00  0.00     0.000 HD 
HETATM    4  O   UNL     2      -8.653  11.159  66.795  1.00  0.00    -0.146 OA 
ENDROOT
BRANCH   2   5
HETATM    5  C   UNL     2      -9.747   9.282  65.711  1.00  0.00    -0.269 C  
HETATM    6  O   UNL     2      -9.169   9.220  64.402  1.00  0.00    -0.431 OA 
HETATM    7  H   UNL     2      -9.840   8.954  63.785  1.00  0.00     0.000 HD 
ENDBRANCH   2   5
BRANCH   2   8
HETATM    8  C   UNL     2      -8.781   9.026  68.093  1.00  0.00    -0.130 C  
HETATM    9  O   UNL     2      -7.945   9.804  68.978  1.00  0.00    -0.087 OA 
HETATM   10  H   UNL     2      -8.016   9.384  69.827  1.00  0.00     0.000 HD 
BRANCH   8  11
HETATM   11  C   UNL     2     -10.233   8.873  68.639  1.00  0.00    -0.200 C  
HETATM   12  O   UNL     2     -11.082   8.200  67.690  1.00  0.00    -0.492 OA 
HETATM   13  H   UNL     2     -11.968   8.107  68.023  1.00  0.00     0.000 HD 
BRANCH  11  14
HETATM   14  C   UNL     2     -10.892  10.189  69.084  1.00  0.00    -0.226 C  
HETATM   15  C   UNL     2     -11.361  10.126  70.566  1.00  0.00    -0.338 C  
HETATM   16  O   UNL     2     -11.988  10.539  68.218  1.00  0.00    -0.790 OA 
HETATM   17  H   UNL     2     -12.395  11.352  68.494  1.00  0.00     0.000 HD 
HETATM   18  O   UNL     2     -10.596   9.459  71.329  1.00  0.00    -0.313 OA 
HETATM   19  O   UNL     2     -12.482  10.667  70.781  1.00  0.00    -0.324 OA 
ENDBRANCH  11  14
ENDBRANCH   8  11
ENDBRANCH   2   8
TORSDOF 4
ENDMDL
MODEL      339
REMARK 921   NORMALIZED FREE ENERGY PREDICTED BY IDOCK:   -2.35 KCAL/MOL
REMARK 922        TOTAL FREE ENERGY PREDICTED BY IDOCK:   -3.91 KCAL/MOL
REMARK 923 INTER-LIGAND FREE ENERGY PREDICTED BY IDOCK:   -2.79 KCAL/MOL
REMARK 924 INTRA-LIGAND FREE ENERGY PREDICTED BY IDOCK:   -1.13 KCAL/MOL
REMARK 927      BINDING AFFINITY PREDICTED BY RF-SCORE:    0.00 PKD
ROOT
HETATM    1  K   UNL     1      -8.209   6.762  65.763  1.00  0.00    -0.093 K  
HETATM    2  C   UNL     2     -10.396   7.500  68.566  1.00  0.00    -0.199 C  
HETATM    3  H   UNL     2      -9.306   8.046  67.011  1.00  0.00     0.000 HD 
HETATM    4  O   UNL     2      -9.169   7.967  67.947  1.00  0.00    -0.135 OA 
ENDROOT
BRANCH   2   5
HETATM    5  C   UNL     2     -10.175   7.371  70.075  1.00  0.00    -0.209 C  
HETATM    6  O   UNL     2      -8.793   7.083  70.315  1.00  0.00    -0.146 OA 
HETATM    7  H   UNL     2      -8.656   7.003  71.251  1.00  0.00     0.000 HD 
ENDBRANCH   2   5
BRANCH   2   8
HETATM    8  C   UNL     2     -10.952   6.214  67.901  1.00  0.00    -0.304 C  
HETATM    9  O   UNL     2     -11.509   6.643  66.638  1.00  0.00    -0.709 OA 
HETATM   10  H   UNL     2     -11.849   5.856  66.231  1.00  0.00     0.000 HD 
BRANCH   8  11
HETATM   11  C   UNL     2      -9.923   5.058  67.728  1.00  0.00    -0.147 C  
HETATM   12  O   UNL     2      -8.569   5.548  67.780  1.00  0.00    -0.109 OA 
HETATM   13  H   UNL     2      -7.941   4.843  67.674  1.00  0.00     0.000 HD 
BRANCH  11  14
HETATM   14  C   UNL     2     -10.119   4.208  66.461  1.00  0.00    -0.050 C  
HETATM   15  C   UNL     2      -9.205   2.951  66.462  1.00  0.00    -0.105 C  
HETATM   16  O   UNL     2      -9.904   4.993  65.273  1.00  0.00    -0.351 OA 
HETATM   17  H   UNL     2     -10.025   4.468  64.491  1.00  0.00     0.000 HD 
HETATM   18  O   UNL     2      -9.034   2.430  67.608  1.00  0.00    -0.123 OA 
HETATM   19  O   UNL     2      -8.687   2.681  65.342  1.00  0.00    -0.106 OA 
ENDBRANCH  11  14
ENDBRANCH   8  11
ENDBRANCH   2   8
TORSDOF 4
ENDMDL
MODEL      340
REMARK 921   NORMALIZED FREE ENERGY PREDICTED BY IDOCK:   -2.35 KCAL/MOL
REMARK 922        TOTAL FREE ENERGY PREDICTED BY IDOCK:   -3.90 KCAL/MOL
REMARK 923 INTER-LIGAND FREE ENERGY PREDICTED BY IDOCK:   -3.35 KCAL/MOL
REMARK 924 INTRA-LIGAND FREE ENERGY PREDICTED BY IDOCK:   -0.56 KCAL/MOL
REMARK 927      BINDING AFFINITY PREDICTED BY RF-SCORE:    0.00 PKD
ROOT
HETATM    1  K   UNL     1     -11.960   6.730  68.687  1.00  0.00    -0.525 K  
HETATM    2  C   UNL     2      -8.372   7.257  68.504  1.00  0.00    -0.125 C  
HETATM    3  H   UNL     2     -10.046   6.405  67.888  1.00  0.00     0.000 HD 
HETATM    4  O   UNL     2      -9.352   6.185  68.496  1.00  0.00    -0.118 OA 
ENDROOT
BRANCH   2   5
HETATM    5  C   UNL     2      -7.253   6.901  69.485  1.00  0.00    -0.081 C  
HETATM    6  O   UNL     2      -7.823   6.708  70.784  1.00  0.00    -0.102 OA 
HETATM    7  H   UNL     2      -7.128   6.488  71.393  1.00  0.00     0.000 HD 
ENDBRANCH   2   5
BRANCH   2   8
HETATM    8  C   UNL     2      -9.009   8.648  68.755  1.00  0.00    -0.138 C  
HETATM    9  O   UNL     2      -8.958   9.330  67.481  1.00  0.00    -0.119 OA 
HETATM   10  H   UNL     2      -9.347  10.182  67.634  1.00  0.00     0.000 HD 
BRANCH   8  11
HETATM   11  C   UNL     2     -10.448   8.623  69.351  1.00  0.00    -0.218 C  
HETATM   12  O   UNL     2     -11.335   9.491  68.619  1.00  0.00    -0.472 OA 
HETATM   13  H   UNL     2     -12.212   9.475  68.983  1.00  0.00     0.000 HD 
BRANCH  11  14
HETATM   14  C   UNL     2     -10.526   8.946  70.853  1.00  0.00    -0.236 C  
HETATM   15  C   UNL     2     -11.234   7.814  71.650  1.00  0.00    -0.248 C  
HETATM   16  O   UNL     2     -11.177  10.210  71.077  1.00  0.00    -0.339 OA 
HETATM   17  H   UNL     2     -11.225  10.410  72.004  1.00  0.00     0.000 HD 
HETATM   18  O   UNL     2     -10.995   6.643  71.220  1.00  0.00    -0.237 OA 
HETATM   19  O   UNL     2     -12.018   8.224  72.551  1.00  0.00    -0.387 OA 
ENDBRANCH  11  14
ENDBRANCH   8  11
ENDBRANCH   2   8
TORSDOF 4
ENDMDL
MODEL      341
REMARK 921   NORMALIZED FREE ENERGY PREDICTED BY IDOCK:   -2.35 KCAL/MOL
REMARK 922        TOTAL FREE ENERGY PREDICTED BY IDOCK:   -3.90 KCAL/MOL
REMARK 923 INTER-LIGAND FREE ENERGY PREDICTED BY IDOCK:   -3.28 KCAL/MOL
REMARK 924 INTRA-LIGAND FREE ENERGY PREDICTED BY IDOCK:   -0.62 KCAL/MOL
REMARK 927      BINDING AFFINITY PREDICTED BY RF-SCORE:    0.00 PKD
ROOT
HETATM    1  K   UNL     1      -7.320   9.699  68.507  1.00  0.00    -0.069 K  
HETATM    2  C   UNL     2     -10.851  10.547  68.548  1.00  0.00    -0.234 C  
HETATM    3  H   UNL     2      -9.077  10.495  67.678  1.00  0.00     0.000 HD 
HETATM    4  O   UNL     2      -9.562  11.120  68.202  1.00  0.00    -0.167 OA 
ENDROOT
BRANCH   2   5
HETATM    5  C   UNL     2     -11.633  11.555  69.394  1.00  0.00    -0.321 C  
HETATM    6  O   UNL     2     -12.448  10.837  70.327  1.00  0.00    -0.321 OA 
HETATM    7  H   UNL     2     -12.934  11.462  70.852  1.00  0.00     0.000 HD 
ENDBRANCH   2   5
BRANCH   2   8
HETATM    8  C   UNL     2     -10.728   9.144  69.196  1.00  0.00    -0.172 C  
HETATM    9  O   UNL     2     -10.679   8.212  68.093  1.00  0.00    -0.401 OA 
HETATM   10  H   UNL     2     -10.604   7.353  68.489  1.00  0.00     0.000 HD 
BRANCH   8  11
HETATM   11  C   UNL     2      -9.526   8.965  70.171  1.00  0.00    -0.180 C  
HETATM   12  O   UNL     2      -8.799   7.753  69.891  1.00  0.00    -0.141 OA 
HETATM   13  H   UNL     2      -8.066   7.644  70.486  1.00  0.00     0.000 HD 
BRANCH  11  14
HETATM   14  C   UNL     2      -9.896   9.016  71.663  1.00  0.00    -0.296 C  
HETATM   15  C   UNL     2      -8.705   8.590  72.567  1.00  0.00    -0.156 C  
HETATM   16  O   UNL     2     -11.057   8.210  71.937  1.00  0.00    -0.253 OA 
HETATM   17  H   UNL     2     -11.285   8.242  72.858  1.00  0.00     0.000 HD 
HETATM   18  O   UNL     2      -7.566   8.954  72.138  1.00  0.00    -0.335 OA 
HETATM   19  O   UNL     2      -9.029   7.865  73.549  1.00  0.00    -0.238 OA 
ENDBRANCH  11  14
ENDBRANCH   8  11
ENDBRANCH   2   8
TORSDOF 4
ENDMDL
MODEL      342
REMARK 921   NORMALIZED FREE ENERGY PREDICTED BY IDOCK:   -2.34 KCAL/MOL
REMARK 922        TOTAL FREE ENERGY PREDICTED BY IDOCK:   -3.90 KCAL/MOL
REMARK 923 INTER-LIGAND FREE ENERGY PREDICTED BY IDOCK:   -3.51 KCAL/MOL
REMARK 924 INTRA-LIGAND FREE ENERGY PREDICTED BY IDOCK:   -0.38 KCAL/MOL
REMARK 927      BINDING AFFINITY PREDICTED BY RF-SCORE:    0.00 PKD
ROOT
HETATM    1  K   UNL     1      -9.804  13.060  69.461  1.00  0.00    -0.392 K  
HETATM    2  C   UNL     2      -9.911  12.344  65.902  1.00  0.00    -0.252 C  
HETATM    3  H   UNL     2      -9.478  13.513  67.436  1.00  0.00     0.000 HD 
HETATM    4  O   UNL     2     -10.212  13.408  66.843  1.00  0.00    -0.246 OA 
ENDROOT
BRANCH   2   5
HETATM    5  C   UNL     2     -11.094  12.175  64.946  1.00  0.00    -0.319 C  
HETATM    6  O   UNL     2     -10.965  13.126  63.883  1.00  0.00    -0.495 OA 
HETATM    7  H   UNL     2     -11.699  13.021  63.290  1.00  0.00     0.000 HD 
ENDBRANCH   2   5
BRANCH   2   8
HETATM    8  C   UNL     2      -9.477  11.030  66.602  1.00  0.00    -0.184 C  
HETATM    9  O   UNL     2     -10.700  10.297  66.840  1.00  0.00    -0.239 OA 
HETATM   10  H   UNL     2     -10.434   9.493  67.269  1.00  0.00     0.000 HD 
BRANCH   8  11
HETATM   11  C   UNL     2      -8.425  10.181  65.828  1.00  0.00    -0.147 C  
HETATM   12  O   UNL     2      -7.641  11.001  64.939  1.00  0.00    -0.332 OA 
HETATM   13  H   UNL     2      -7.000  10.483  64.466  1.00  0.00     0.000 HD 
BRANCH  11  14
HETATM   14  C   UNL     2      -9.007   8.986  65.055  1.00  0.00    -0.147 C  
HETATM   15  C   UNL     2      -8.084   7.738  65.143  1.00  0.00    -0.137 C  
HETATM   16  O   UNL     2      -9.265   9.333  63.682  1.00  0.00    -0.418 OA 
HETATM   17  H   UNL     2      -9.625   8.595  63.205  1.00  0.00     0.000 HD 
HETATM   18  O   UNL     2      -7.494   7.600  66.259  1.00  0.00    -0.080 OA 
HETATM   19  O   UNL     2      -7.979   7.090  64.063  1.00  0.00    -0.125 OA 
ENDBRANCH  11  14
ENDBRANCH   8  11
ENDBRANCH   2   8
TORSDOF 4
ENDMDL
MODEL      343
REMARK 921   NORMALIZED FREE ENERGY PREDICTED BY IDOCK:   -2.34 KCAL/MOL
REMARK 922        TOTAL FREE ENERGY PREDICTED BY IDOCK:   -3.90 KCAL/MOL
REMARK 923 INTER-LIGAND FREE ENERGY PREDICTED BY IDOCK:   -3.24 KCAL/MOL
REMARK 924 INTRA-LIGAND FREE ENERGY PREDICTED BY IDOCK:   -0.66 KCAL/MOL
REMARK 927      BINDING AFFINITY PREDICTED BY RF-SCORE:    0.00 PKD
ROOT
HETATM    1  K   UNL     1      -9.198   2.549  71.805  1.00  0.00    -0.069 K  
HETATM    2  C   UNL     2      -8.418   5.871  70.563  1.00  0.00    -0.128 C  
HETATM    3  H   UNL     2      -7.904   4.030  71.069  1.00  0.00     0.000 HD 
HETATM    4  O   UNL     2      -7.923   4.877  71.499  1.00  0.00    -0.104 OA 
ENDROOT
BRANCH   2   5
HETATM    5  C   UNL     2      -8.447   7.235  71.255  1.00  0.00    -0.115 C  
HETATM    6  O   UNL     2      -9.286   7.147  72.412  1.00  0.00    -0.135 OA 
HETATM    7  H   UNL     2      -9.305   7.993  72.841  1.00  0.00     0.000 HD 
ENDBRANCH   2   5
BRANCH   2   8
HETATM    8  C   UNL     2      -9.768   5.465  69.916  1.00  0.00    -0.184 C  
HETATM    9  O   UNL     2     -10.533   4.848  70.976  1.00  0.00    -0.189 OA 
HETATM   10  H   UNL     2     -11.359   4.600  70.580  1.00  0.00     0.000 HD 
BRANCH   8  11
HETATM   11  C   UNL     2     -10.547   6.624  69.226  1.00  0.00    -0.238 C  
HETATM   12  O   UNL     2     -11.958   6.549  69.508  1.00  0.00    -0.601 OA 
HETATM   13  H   UNL     2     -12.434   7.255  69.087  1.00  0.00     0.000 HD 
BRANCH  11  14
HETATM   14  C   UNL     2     -10.326   6.731  67.707  1.00  0.00    -0.198 C  
HETATM   15  C   UNL     2      -9.763   8.123  67.303  1.00  0.00    -0.178 C  
HETATM   16  O   UNL     2     -11.539   6.444  66.986  1.00  0.00    -0.696 OA 
HETATM   17  H   UNL     2     -11.402   6.509  66.048  1.00  0.00     0.000 HD 
HETATM   18  O   UNL     2      -8.951   8.623  68.143  1.00  0.00    -0.141 OA 
HETATM   19  O   UNL     2     -10.261   8.600  66.245  1.00  0.00    -0.264 OA 
ENDBRANCH  11  14
ENDBRANCH   8  11
ENDBRANCH   2   8
TORSDOF 4
ENDMDL
MODEL      344
REMARK 921   NORMALIZED FREE ENERGY PREDICTED BY IDOCK:   -2.33 KCAL/MOL
REMARK 922        TOTAL FREE ENERGY PREDICTED BY IDOCK:   -3.88 KCAL/MOL
REMARK 923 INTER-LIGAND FREE ENERGY PREDICTED BY IDOCK:   -2.68 KCAL/MOL
REMARK 924 INTRA-LIGAND FREE ENERGY PREDICTED BY IDOCK:   -1.20 KCAL/MOL
REMARK 927      BINDING AFFINITY PREDICTED BY RF-SCORE:    0.00 PKD
ROOT
HETATM    1  K   UNL     1      -6.929   7.568  70.073  1.00  0.00    -0.047 K  
HETATM    2  C   UNL     2      -9.871   9.554  69.309  1.00  0.00    -0.181 C  
HETATM    3  H   UNL     2      -7.950   9.371  69.736  1.00  0.00     0.000 HD 
HETATM    4  O   UNL     2      -8.748   9.519  70.229  1.00  0.00    -0.207 OA 
ENDROOT
BRANCH   2   5
HETATM    5  C   UNL     2     -11.158   9.792  70.103  1.00  0.00    -0.285 C  
HETATM    6  O   UNL     2     -12.054  10.573  69.305  1.00  0.00    -0.521 OA 
HETATM    7  H   UNL     2     -12.852  10.720  69.797  1.00  0.00     0.000 HD 
ENDBRANCH   2   5
BRANCH   2   8
HETATM    8  C   UNL     2      -9.926   8.313  68.381  1.00  0.00    -0.190 C  
HETATM    9  O   UNL     2     -11.181   8.417  67.672  1.00  0.00    -0.360 OA 
HETATM   10  H   UNL     2     -11.215   7.657  67.104  1.00  0.00     0.000 HD 
BRANCH   8  11
HETATM   11  C   UNL     2      -8.716   8.154  67.413  1.00  0.00    -0.124 C  
HETATM   12  O   UNL     2      -7.569   8.889  67.882  1.00  0.00    -0.092 OA 
HETATM   13  H   UNL     2      -6.831   8.793  67.291  1.00  0.00     0.000 HD 
BRANCH  11  14
HETATM   14  C   UNL     2      -9.010   8.529  65.950  1.00  0.00    -0.189 C  
HETATM   15  C   UNL     2      -7.716   8.550  65.089  1.00  0.00    -0.102 C  
HETATM   16  O   UNL     2      -9.698   9.791  65.867  1.00  0.00    -0.225 OA 
HETATM   17  H   UNL     2      -9.880  10.022  64.964  1.00  0.00     0.000 HD 
HETATM   18  O   UNL     2      -6.864   7.662  65.403  1.00  0.00    -0.044 OA 
HETATM   19  O   UNL     2      -7.655   9.503  64.262  1.00  0.00    -0.113 OA 
ENDBRANCH  11  14
ENDBRANCH   8  11
ENDBRANCH   2   8
TORSDOF 4
ENDMDL
MODEL      345
REMARK 921   NORMALIZED FREE ENERGY PREDICTED BY IDOCK:   -2.32 KCAL/MOL
REMARK 922        TOTAL FREE ENERGY PREDICTED BY IDOCK:   -3.88 KCAL/MOL
REMARK 923 INTER-LIGAND FREE ENERGY PREDICTED BY IDOCK:   -3.49 KCAL/MOL
REMARK 924 INTRA-LIGAND FREE ENERGY PREDICTED BY IDOCK:   -0.39 KCAL/MOL
REMARK 927      BINDING AFFINITY PREDICTED BY RF-SCORE:    0.00 PKD
ROOT
HETATM    1  K   UNL     1     -12.151   6.760  67.805  1.00  0.00    -0.516 K  
HETATM    2  C   UNL     2     -10.440   9.917  67.269  1.00  0.00    -0.258 C  
HETATM    3  H   UNL     2     -11.622   8.449  66.675  1.00  0.00     0.000 HD 
HETATM    4  O   UNL     2     -10.697   8.653  66.604  1.00  0.00    -0.180 OA 
ENDROOT
BRANCH   2   5
HETATM    5  C   UNL     2      -8.950  10.247  67.154  1.00  0.00    -0.135 C  
HETATM    6  O   UNL     2      -8.643  11.312  68.061  1.00  0.00    -0.129 OA 
HETATM    7  H   UNL     2      -7.718  11.516  67.989  1.00  0.00     0.000 HD 
ENDBRANCH   2   5
BRANCH   2   8
HETATM    8  C   UNL     2     -10.981   9.952  68.722  1.00  0.00    -0.179 C  
HETATM    9  O   UNL     2     -12.177  10.762  68.670  1.00  0.00    -0.813 OA 
HETATM   10  H   UNL     2     -12.508  10.783  69.559  1.00  0.00     0.000 HD 
BRANCH   8  11
HETATM   11  C   UNL     2     -11.244   8.557  69.365  1.00  0.00     0.217 C  
HETATM   12  O   UNL     2     -12.028   8.673  70.568  1.00  0.00    -0.481 OA 
HETATM   13  H   UNL     2     -12.188   7.823  70.961  1.00  0.00     0.000 HD 
BRANCH  11  14
HETATM   14  C   UNL     2      -9.976   7.732  69.649  1.00  0.00    -0.190 C  
HETATM   15  C   UNL     2     -10.275   6.515  70.570  1.00  0.00    -0.190 C  
HETATM   16  O   UNL     2      -8.939   8.555  70.214  1.00  0.00    -0.141 OA 
HETATM   17  H   UNL     2      -8.156   8.046  70.389  1.00  0.00     0.000 HD 
HETATM   18  O   UNL     2     -11.406   5.973  70.370  1.00  0.00    -0.338 OA 
HETATM   19  O   UNL     2      -9.393   6.296  71.447  1.00  0.00    -0.152 OA 
ENDBRANCH  11  14
ENDBRANCH   8  11
ENDBRANCH   2   8
TORSDOF 4
ENDMDL
MODEL      346
REMARK 921   NORMALIZED FREE ENERGY PREDICTED BY IDOCK:   -2.32 KCAL/MOL
REMARK 922        TOTAL FREE ENERGY PREDICTED BY IDOCK:   -3.87 KCAL/MOL
REMARK 923 INTER-LIGAND FREE ENERGY PREDICTED BY IDOCK:   -2.78 KCAL/MOL
REMARK 924 INTRA-LIGAND FREE ENERGY PREDICTED BY IDOCK:   -1.10 KCAL/MOL
REMARK 927      BINDING AFFINITY PREDICTED BY RF-SCORE:    0.00 PKD
ROOT
HETATM    1  K   UNL     1     -12.366   6.516  69.084  1.00  0.00    -0.602 K  
HETATM    2  C   UNL     2      -9.294   7.056  67.225  1.00  0.00    -0.133 C  
HETATM    3  H   UNL     2     -11.081   7.625  67.848  1.00  0.00     0.000 HD 
HETATM    4  O   UNL     2     -10.733   7.190  67.080  1.00  0.00    -0.327 OA 
ENDROOT
BRANCH   2   5
HETATM    5  C   UNL     2      -8.732   6.354  65.987  1.00  0.00    -0.151 C  
HETATM    6  O   UNL     2      -7.561   7.054  65.552  1.00  0.00    -0.082 OA 
HETATM    7  H   UNL     2      -7.213   6.619  64.784  1.00  0.00     0.000 HD 
ENDBRANCH   2   5
BRANCH   2   8
HETATM    8  C   UNL     2      -8.886   6.390  68.564  1.00  0.00    -0.119 C  
HETATM    9  O   UNL     2      -7.441   6.349  68.550  1.00  0.00    -0.084 OA 
HETATM   10  H   UNL     2      -7.191   5.941  69.370  1.00  0.00     0.000 HD 
BRANCH   8  11
HETATM   11  C   UNL     2      -9.442   7.080  69.845  1.00  0.00    -0.157 C  
HETATM   12  O   UNL     2     -10.222   8.246  69.517  1.00  0.00    -0.200 OA 
HETATM   13  H   UNL     2     -10.561   8.667  70.299  1.00  0.00     0.000 HD 
BRANCH  11  14
HETATM   14  C   UNL     2      -8.375   7.446  70.892  1.00  0.00    -0.115 C  
HETATM   15  C   UNL     2      -9.015   7.856  72.248  1.00  0.00    -0.156 C  
HETATM   16  O   UNL     2      -7.507   8.485  70.404  1.00  0.00    -0.062 OA 
HETATM   17  H   UNL     2      -6.848   8.710  71.050  1.00  0.00     0.000 HD 
HETATM   18  O   UNL     2     -10.065   7.207  72.549  1.00  0.00    -0.174 OA 
HETATM   19  O   UNL     2      -8.455   8.837  72.813  1.00  0.00    -0.414 OA 
ENDBRANCH  11  14
ENDBRANCH   8  11
ENDBRANCH   2   8
TORSDOF 4
ENDMDL
MODEL      347
REMARK 921   NORMALIZED FREE ENERGY PREDICTED BY IDOCK:   -2.32 KCAL/MOL
REMARK 922        TOTAL FREE ENERGY PREDICTED BY IDOCK:   -3.87 KCAL/MOL
REMARK 923 INTER-LIGAND FREE ENERGY PREDICTED BY IDOCK:   -3.30 KCAL/MOL
REMARK 924 INTRA-LIGAND FREE ENERGY PREDICTED BY IDOCK:   -0.57 KCAL/MOL
REMARK 927      BINDING AFFINITY PREDICTED BY RF-SCORE:    0.00 PKD
ROOT
HETATM    1  K   UNL     1      -7.871  12.047  66.055  1.00  0.00    -0.325 K  
HETATM    2  C   UNL     2     -10.747  13.176  67.963  1.00  0.00    -0.233 C  
HETATM    3  H   UNL     2      -9.464  13.351  66.470  1.00  0.00     0.000 HD 
HETATM    4  O   UNL     2      -9.532  13.688  67.355  1.00  0.00    -0.211 OA 
ENDROOT
BRANCH   2   5
HETATM    5  C   UNL     2     -10.856  13.719  69.390  1.00  0.00    -0.039 C  
HETATM    6  O   UNL     2     -11.841  12.958  70.098  1.00  0.00    -0.443 OA 
HETATM    7  H   UNL     2     -11.909  13.295  70.983  1.00  0.00     0.000 HD 
ENDBRANCH   2   5
BRANCH   2   8
HETATM    8  C   UNL     2     -10.861  11.633  67.868  1.00  0.00    -0.210 C  
HETATM    9  O   UNL     2     -10.903  11.335  66.454  1.00  0.00    -0.271 OA 
HETATM   10  H   UNL     2     -10.973  10.391  66.396  1.00  0.00     0.000 HD 
BRANCH   8  11
HETATM   11  C   UNL     2      -9.742  10.838  68.603  1.00  0.00    -0.186 C  
HETATM   12  O   UNL     2      -8.457  11.048  67.986  1.00  0.00    -0.121 OA 
HETATM   13  H   UNL     2      -7.774  10.562  68.435  1.00  0.00     0.000 HD 
BRANCH  11  14
HETATM   14  C   UNL     2     -10.011   9.329  68.742  1.00  0.00    -0.181 C  
HETATM   15  C   UNL     2      -9.964   8.607  67.366  1.00  0.00    -0.210 C  
HETATM   16  O   UNL     2     -11.267   9.086  69.402  1.00  0.00    -0.439 OA 
HETATM   17  H   UNL     2     -11.433   8.154  69.488  1.00  0.00     0.000 HD 
HETATM   18  O   UNL     2      -9.097   9.069  66.561  1.00  0.00    -0.146 OA 
HETATM   19  O   UNL     2     -10.855   7.725  67.209  1.00  0.00    -0.284 OA 
ENDBRANCH  11  14
ENDBRANCH   8  11
ENDBRANCH   2   8
TORSDOF 4
ENDMDL
MODEL      348
REMARK 921   NORMALIZED FREE ENERGY PREDICTED BY IDOCK:   -2.31 KCAL/MOL
REMARK 922        TOTAL FREE ENERGY PREDICTED BY IDOCK:   -3.86 KCAL/MOL
REMARK 923 INTER-LIGAND FREE ENERGY PREDICTED BY IDOCK:   -3.14 KCAL/MOL
REMARK 924 INTRA-LIGAND FREE ENERGY PREDICTED BY IDOCK:   -0.73 KCAL/MOL
REMARK 927      BINDING AFFINITY PREDICTED BY RF-SCORE:    0.00 PKD
ROOT
HETATM    1  K   UNL     1      -6.285   7.377  70.968  1.00  0.00    -0.033 K  
HETATM    2  C   UNL     2      -9.529   7.476  69.339  1.00  0.00    -0.155 C  
HETATM    3  H   UNL     2      -7.569   7.221  69.314  1.00  0.00     0.000 HD 
HETATM    4  O   UNL     2      -8.166   7.942  69.156  1.00  0.00    -0.127 OA 
ENDROOT
BRANCH   2   5
HETATM    5  C   UNL     2     -10.492   8.638  69.085  1.00  0.00    -0.211 C  
HETATM    6  O   UNL     2     -11.002   8.530  67.751  1.00  0.00    -0.495 OA 
HETATM    7  H   UNL     2     -11.599   9.251  67.594  1.00  0.00     0.000 HD 
ENDBRANCH   2   5
BRANCH   2   8
HETATM    8  C   UNL     2      -9.743   6.770  70.703  1.00  0.00    -0.172 C  
HETATM    9  O   UNL     2      -8.456   6.218  71.059  1.00  0.00    -0.125 OA 
HETATM   10  H   UNL     2      -8.587   5.786  71.894  1.00  0.00     0.000 HD 
BRANCH   8  11
HETATM   11  C   UNL     2     -10.329   7.670  71.832  1.00  0.00    -0.199 C  
HETATM   12  O   UNL     2      -9.284   8.239  72.645  1.00  0.00    -0.232 OA 
HETATM   13  H   UNL     2      -9.642   8.788  73.333  1.00  0.00     0.000 HD 
BRANCH  11  14
HETATM   14  C   UNL     2     -11.368   6.978  72.731  1.00  0.00    -0.218 C  
HETATM   15  C   UNL     2     -10.780   5.718  73.426  1.00  0.00    -0.273 C  
HETATM   16  O   UNL     2     -12.554   6.642  71.987  1.00  0.00    -0.480 OA 
HETATM   17  H   UNL     2     -13.196   6.215  72.543  1.00  0.00     0.000 HD 
HETATM   18  O   UNL     2      -9.559   5.826  73.761  1.00  0.00    -0.138 OA 
HETATM   19  O   UNL     2     -11.570   4.734  73.477  1.00  0.00    -0.281 OA 
ENDBRANCH  11  14
ENDBRANCH   8  11
ENDBRANCH   2   8
TORSDOF 4
ENDMDL
MODEL      349
REMARK 921   NORMALIZED FREE ENERGY PREDICTED BY IDOCK:   -2.30 KCAL/MOL
REMARK 922        TOTAL FREE ENERGY PREDICTED BY IDOCK:   -3.85 KCAL/MOL
REMARK 923 INTER-LIGAND FREE ENERGY PREDICTED BY IDOCK:   -3.21 KCAL/MOL
REMARK 924 INTRA-LIGAND FREE ENERGY PREDICTED BY IDOCK:   -0.64 KCAL/MOL
REMARK 927      BINDING AFFINITY PREDICTED BY RF-SCORE:    0.00 PKD
ROOT
HETATM    1  K   UNL     1      -6.812   6.256  65.322  1.00  0.00    -0.039 K  
HETATM    2  C   UNL     2      -9.574   6.613  67.652  1.00  0.00    -0.124 C  
HETATM    3  H   UNL     2      -7.913   5.738  67.034  1.00  0.00     0.000 HD 
HETATM    4  O   UNL     2      -8.844   5.590  66.924  1.00  0.00    -0.113 OA 
ENDROOT
BRANCH   2   5
HETATM    5  C   UNL     2     -11.075   6.374  67.475  1.00  0.00    -0.306 C  
HETATM    6  O   UNL     2     -11.723   6.562  68.738  1.00  0.00    -0.533 OA 
HETATM    7  H   UNL     2     -12.654   6.413  68.629  1.00  0.00     0.000 HD 
ENDBRANCH   2   5
BRANCH   2   8
HETATM    8  C   UNL     2      -9.119   8.050  67.286  1.00  0.00    -0.135 C  
HETATM    9  O   UNL     2      -7.755   7.917  66.826  1.00  0.00    -0.095 OA 
HETATM   10  H   UNL     2      -7.477   8.796  66.602  1.00  0.00     0.000 HD 
BRANCH   8  11
HETATM   11  C   UNL     2     -10.019   8.787  66.250  1.00  0.00    -0.245 C  
HETATM   12  O   UNL     2      -9.427   8.774  64.937  1.00  0.00    -0.371 OA 
HETATM   13  H   UNL     2      -9.976   9.225  64.305  1.00  0.00     0.000 HD 
BRANCH  11  14
HETATM   14  C   UNL     2     -10.394  10.228  66.637  1.00  0.00    -0.219 C  
HETATM   15  C   UNL     2      -9.169  11.016  67.180  1.00  0.00    -0.152 C  
HETATM   16  O   UNL     2     -11.473  10.244  67.590  1.00  0.00    -0.570 OA 
HETATM   17  H   UNL     2     -11.705  11.134  67.828  1.00  0.00     0.000 HD 
HETATM   18  O   UNL     2      -8.069  10.732  66.611  1.00  0.00    -0.130 OA 
HETATM   19  O   UNL     2      -9.424  11.759  68.170  1.00  0.00    -0.181 OA 
ENDBRANCH  11  14
ENDBRANCH   8  11
ENDBRANCH   2   8
TORSDOF 4
ENDMDL
MODEL      350
REMARK 921   NORMALIZED FREE ENERGY PREDICTED BY IDOCK:   -2.27 KCAL/MOL
REMARK 922        TOTAL FREE ENERGY PREDICTED BY IDOCK:   -3.81 KCAL/MOL
REMARK 923 INTER-LIGAND FREE ENERGY PREDICTED BY IDOCK:   -2.83 KCAL/MOL
REMARK 924 INTRA-LIGAND FREE ENERGY PREDICTED BY IDOCK:   -0.98 KCAL/MOL
REMARK 927      BINDING AFFINITY PREDICTED BY RF-SCORE:    0.00 PKD
ROOT
HETATM    1  K   UNL     1     -12.802   7.306  70.094  1.00  0.00    -0.541 K  
HETATM    2  C   UNL     2      -9.829   6.339  71.941  1.00  0.00    -0.155 C  
HETATM    3  H   UNL     2     -11.167   6.057  70.514  1.00  0.00     0.000 HD 
HETATM    4  O   UNL     2     -11.057   5.771  71.412  1.00  0.00    -0.263 OA 
ENDROOT
BRANCH   2   5
HETATM    5  C   UNL     2      -9.651   5.879  73.389  1.00  0.00    -0.143 C  
HETATM    6  O   UNL     2     -10.539   6.631  74.224  1.00  0.00    -0.439 OA 
HETATM    7  H   UNL     2     -10.428   6.346  75.122  1.00  0.00     0.000 HD 
ENDBRANCH   2   5
BRANCH   2   8
HETATM    8  C   UNL     2      -9.751   7.876  71.756  1.00  0.00    -0.170 C  
HETATM    9  O   UNL     2      -8.690   8.317  72.633  1.00  0.00    -0.193 OA 
HETATM   10  H   UNL     2      -8.642   9.258  72.520  1.00  0.00     0.000 HD 
BRANCH   8  11
HETATM   11  C   UNL     2      -9.540   8.359  70.290  1.00  0.00    -0.165 C  
HETATM   12  O   UNL     2     -10.572   7.858  69.418  1.00  0.00    -0.225 OA 
HETATM   13  H   UNL     2     -10.443   8.152  68.524  1.00  0.00     0.000 HD 
BRANCH  11  14
HETATM   14  C   UNL     2      -8.157   8.031  69.699  1.00  0.00    -0.119 C  
HETATM   15  C   UNL     2      -7.461   9.297  69.125  1.00  0.00    -0.072 C  
HETATM   16  O   UNL     2      -8.254   7.003  68.695  1.00  0.00    -0.119 OA 
HETATM   17  H   UNL     2      -7.400   6.801  68.331  1.00  0.00     0.000 HD 
HETATM   18  O   UNL     2      -7.681  10.360  69.784  1.00  0.00    -0.158 OA 
HETATM   19  O   UNL     2      -6.852   9.108  68.034  1.00  0.00    -0.067 OA 
ENDBRANCH  11  14
ENDBRANCH   8  11
ENDBRANCH   2   8
TORSDOF 4
ENDMDL
MODEL      351
REMARK 921   NORMALIZED FREE ENERGY PREDICTED BY IDOCK:   -2.27 KCAL/MOL
REMARK 922        TOTAL FREE ENERGY PREDICTED BY IDOCK:   -3.81 KCAL/MOL
REMARK 923 INTER-LIGAND FREE ENERGY PREDICTED BY IDOCK:   -3.32 KCAL/MOL
REMARK 924 INTRA-LIGAND FREE ENERGY PREDICTED BY IDOCK:   -0.48 KCAL/MOL
REMARK 927      BINDING AFFINITY PREDICTED BY RF-SCORE:    0.00 PKD
ROOT
HETATM    1  K   UNL     1     -10.550   8.540  65.605  1.00  0.00    -0.428 K  
HETATM    2  C   UNL     2      -7.229   9.871  66.225  1.00  0.00    -0.102 C  
HETATM    3  H   UNL     2      -8.678   9.289  65.015  1.00  0.00     0.000 HD 
HETATM    4  O   UNL     2      -7.908   8.889  65.400  1.00  0.00    -0.096 OA 
ENDROOT
BRANCH   2   5
HETATM    5  C   UNL     2      -5.987   9.227  66.846  1.00  0.00    -0.060 C  
HETATM    6  O   UNL     2      -5.821   7.918  66.290  1.00  0.00    -0.039 OA 
HETATM    7  H   UNL     2      -5.051   7.518  66.676  1.00  0.00     0.000 HD 
ENDBRANCH   2   5
BRANCH   2   8
HETATM    8  C   UNL     2      -8.171  10.542  67.258  1.00  0.00    -0.119 C  
HETATM    9  O   UNL     2      -7.402  11.618  67.840  1.00  0.00    -0.086 OA 
HETATM   10  H   UNL     2      -7.979  12.029  68.472  1.00  0.00     0.000 HD 
BRANCH   8  11
HETATM   11  C   UNL     2      -9.535  11.035  66.689  1.00  0.00    -0.184 C  
HETATM   12  O   UNL     2      -9.349  11.897  65.550  1.00  0.00    -0.371 OA 
HETATM   13  H   UNL     2     -10.181  12.198  65.204  1.00  0.00     0.000 HD 
BRANCH  11  14
HETATM   14  C   UNL     2     -10.448  11.725  67.718  1.00  0.00    -0.194 C  
HETATM   15  C   UNL     2     -11.588  12.527  67.030  1.00  0.00    -0.368 C  
HETATM   16  O   UNL     2      -9.687  12.573  68.598  1.00  0.00    -0.367 OA 
HETATM   17  H   UNL     2     -10.251  12.999  69.234  1.00  0.00     0.000 HD 
HETATM   18  O   UNL     2     -12.044  11.989  65.974  1.00  0.00    -0.561 OA 
HETATM   19  O   UNL     2     -11.837  13.644  67.566  1.00  0.00    -0.350 OA 
ENDBRANCH  11  14
ENDBRANCH   8  11
ENDBRANCH   2   8
TORSDOF 4
ENDMDL
MODEL      352
REMARK 921   NORMALIZED FREE ENERGY PREDICTED BY IDOCK:   -2.26 KCAL/MOL
REMARK 922        TOTAL FREE ENERGY PREDICTED BY IDOCK:   -3.80 KCAL/MOL
REMARK 923 INTER-LIGAND FREE ENERGY PREDICTED BY IDOCK:   -3.12 KCAL/MOL
REMARK 924 INTRA-LIGAND FREE ENERGY PREDICTED BY IDOCK:   -0.68 KCAL/MOL
REMARK 927      BINDING AFFINITY PREDICTED BY RF-SCORE:    0.00 PKD
ROOT
HETATM    1  K   UNL     1      -6.644   9.808  66.472  1.00  0.00    -0.062 K  
HETATM    2  C   UNL     2      -9.603  10.025  68.567  1.00  0.00    -0.151 C  
HETATM    3  H   UNL     2      -7.858   9.231  68.086  1.00  0.00     0.000 HD 
HETATM    4  O   UNL     2      -8.769   9.041  67.899  1.00  0.00    -0.128 OA 
ENDROOT
BRANCH   2   5
HETATM    5  C   UNL     2     -11.072   9.719  68.267  1.00  0.00    -0.102 C  
HETATM    6  O   UNL     2     -11.190   8.338  67.906  1.00  0.00    -0.337 OA 
HETATM    7  H   UNL     2     -12.101   8.149  67.720  1.00  0.00     0.000 HD 
ENDBRANCH   2   5
BRANCH   2   8
HETATM    8  C   UNL     2      -9.186  11.483  68.243  1.00  0.00    -0.186 C  
HETATM    9  O   UNL     2      -7.968  11.710  68.989  1.00  0.00    -0.315 OA 
HETATM   10  H   UNL     2      -7.713  12.603  68.791  1.00  0.00     0.000 HD 
BRANCH   8  11
HETATM   11  C   UNL     2      -9.016  11.804  66.729  1.00  0.00    -0.196 C  
HETATM   12  O   UNL     2      -7.635  12.046  66.395  1.00  0.00    -0.374 OA 
HETATM   13  H   UNL     2      -7.532  12.242  65.471  1.00  0.00     0.000 HD 
BRANCH  11  14
HETATM   14  C   UNL     2      -9.885  12.966  66.217  1.00  0.00    -0.273 C  
HETATM   15  C   UNL     2      -9.528  14.305  66.921  1.00  0.00    -0.263 C  
HETATM   16  O   UNL     2     -11.286  12.669  66.368  1.00  0.00    -0.279 OA 
HETATM   17  H   UNL     2     -11.822  13.387  66.052  1.00  0.00     0.000 HD 
HETATM   18  O   UNL     2      -8.293  14.447  67.181  1.00  0.00    -0.201 OA 
HETATM   19  O   UNL     2     -10.526  15.021  67.217  1.00  0.00    -0.258 OA 
ENDBRANCH  11  14
ENDBRANCH   8  11
ENDBRANCH   2   8
TORSDOF 4
ENDMDL
MODEL      353
REMARK 921   NORMALIZED FREE ENERGY PREDICTED BY IDOCK:   -2.26 KCAL/MOL
REMARK 922        TOTAL FREE ENERGY PREDICTED BY IDOCK:   -3.79 KCAL/MOL
REMARK 923 INTER-LIGAND FREE ENERGY PREDICTED BY IDOCK:   -2.65 KCAL/MOL
REMARK 924 INTRA-LIGAND FREE ENERGY PREDICTED BY IDOCK:   -1.14 KCAL/MOL
REMARK 927      BINDING AFFINITY PREDICTED BY RF-SCORE:    0.00 PKD
ROOT
HETATM    1  K   UNL     1      -8.935   7.638  65.156  1.00  0.00    -0.214 K  
HETATM    2  C   UNL     2     -10.126  10.231  67.401  1.00  0.00    -0.202 C  
HETATM    3  H   UNL     2      -9.947   9.421  65.607  1.00  0.00     0.000 HD 
HETATM    4  O   UNL     2      -9.477  10.073  66.112  1.00  0.00    -0.169 OA 
ENDROOT
BRANCH   2   5
HETATM    5  C   UNL     2      -9.368  11.282  68.214  1.00  0.00    -0.180 C  
HETATM    6  O   UNL     2     -10.224  11.762  69.257  1.00  0.00    -0.421 OA 
HETATM    7  H   UNL     2      -9.753  12.415  69.762  1.00  0.00     0.000 HD 
ENDBRANCH   2   5
BRANCH   2   8
HETATM    8  C   UNL     2     -10.321   8.884  68.143  1.00  0.00    -0.212 C  
HETATM    9  O   UNL     2     -11.101   8.059  67.247  1.00  0.00    -0.478 OA 
HETATM   10  H   UNL     2     -11.220   7.235  67.701  1.00  0.00     0.000 HD 
BRANCH   8  11
HETATM   11  C   UNL     2      -9.008   8.179  68.597  1.00  0.00    -0.137 C  
HETATM   12  O   UNL     2      -8.165   7.865  67.472  1.00  0.00    -0.121 OA 
HETATM   13  H   UNL     2      -7.364   7.435  67.749  1.00  0.00     0.000 HD 
BRANCH  11  14
HETATM   14  C   UNL     2      -9.219   6.920  69.455  1.00  0.00    -0.148 C  
HETATM   15  C   UNL     2      -7.868   6.291  69.898  1.00  0.00    -0.110 C  
HETATM   16  O   UNL     2     -10.028   5.951  68.763  1.00  0.00    -0.135 OA 
HETATM   17  H   UNL     2     -10.159   5.174  69.293  1.00  0.00     0.000 HD 
HETATM   18  O   UNL     2      -6.954   7.137  70.149  1.00  0.00    -0.058 OA 
HETATM   19  O   UNL     2      -7.841   5.029  69.856  1.00  0.00    -0.069 OA 
ENDBRANCH  11  14
ENDBRANCH   8  11
ENDBRANCH   2   8
TORSDOF 4
ENDMDL
MODEL      354
REMARK 921   NORMALIZED FREE ENERGY PREDICTED BY IDOCK:   -2.26 KCAL/MOL
REMARK 922        TOTAL FREE ENERGY PREDICTED BY IDOCK:   -3.79 KCAL/MOL
REMARK 923 INTER-LIGAND FREE ENERGY PREDICTED BY IDOCK:   -2.93 KCAL/MOL
REMARK 924 INTRA-LIGAND FREE ENERGY PREDICTED BY IDOCK:   -0.86 KCAL/MOL
REMARK 927      BINDING AFFINITY PREDICTED BY RF-SCORE:    0.00 PKD
ROOT
HETATM    1  K   UNL     1      -6.688   9.722  66.504  1.00  0.00    -0.068 K  
HETATM    2  C   UNL     2      -9.305   7.848  68.185  1.00  0.00    -0.142 C  
HETATM    3  H   UNL     2      -7.406   8.281  67.852  1.00  0.00     0.000 HD 
HETATM    4  O   UNL     2      -8.030   7.647  67.521  1.00  0.00    -0.116 OA 
ENDROOT
BRANCH   2   5
HETATM    5  C   UNL     2     -10.311   6.826  67.651  1.00  0.00    -0.203 C  
HETATM    6  O   UNL     2     -10.459   7.019  66.240  1.00  0.00    -0.447 OA 
HETATM    7  H   UNL     2     -11.083   6.385  65.909  1.00  0.00     0.000 HD 
ENDBRANCH   2   5
BRANCH   2   8
HETATM    8  C   UNL     2      -9.798   9.316  68.104  1.00  0.00    -0.162 C  
HETATM    9  O   UNL     2     -11.235   9.234  67.972  1.00  0.00    -0.506 OA 
HETATM   10  H   UNL     2     -11.537  10.132  67.922  1.00  0.00     0.000 HD 
BRANCH   8  11
HETATM   11  C   UNL     2      -9.369  10.227  69.292  1.00  0.00    -0.207 C  
HETATM   12  O   UNL     2     -10.513  10.800  69.955  1.00  0.00    -0.447 OA 
HETATM   13  H   UNL     2     -10.251  11.355  70.680  1.00  0.00     0.000 HD 
BRANCH  11  14
HETATM   14  C   UNL     2      -8.373  11.339  68.921  1.00  0.00    -0.071 C  
HETATM   15  C   UNL     2      -8.901  12.220  67.753  1.00  0.00    -0.174 C  
HETATM   16  O   UNL     2      -7.081  10.792  68.601  1.00  0.00    -0.069 OA 
HETATM   17  H   UNL     2      -6.466  11.479  68.372  1.00  0.00     0.000 HD 
HETATM   18  O   UNL     2     -10.157  12.411  67.769  1.00  0.00    -0.195 OA 
HETATM   19  O   UNL     2      -8.023  12.542  66.904  1.00  0.00    -0.122 OA 
ENDBRANCH  11  14
ENDBRANCH   8  11
ENDBRANCH   2   8
TORSDOF 4
ENDMDL
MODEL      355
REMARK 921   NORMALIZED FREE ENERGY PREDICTED BY IDOCK:   -2.25 KCAL/MOL
REMARK 922        TOTAL FREE ENERGY PREDICTED BY IDOCK:   -3.79 KCAL/MOL
REMARK 923 INTER-LIGAND FREE ENERGY PREDICTED BY IDOCK:   -2.82 KCAL/MOL
REMARK 924 INTRA-LIGAND FREE ENERGY PREDICTED BY IDOCK:   -0.97 KCAL/MOL
REMARK 927      BINDING AFFINITY PREDICTED BY RF-SCORE:    0.00 PKD
ROOT
HETATM    1  K   UNL     1     -10.789   3.377  72.837  1.00  0.00    -0.152 K  
HETATM    2  C   UNL     2      -8.355   5.692  71.459  1.00  0.00    -0.127 C  
HETATM    3  H   UNL     2      -9.067   3.870  71.742  1.00  0.00     0.000 HD 
HETATM    4  O   UNL     2      -8.425   4.426  72.166  1.00  0.00    -0.108 OA 
ENDROOT
BRANCH   2   5
HETATM    5  C   UNL     2      -7.320   6.589  72.143  1.00  0.00    -0.091 C  
HETATM    6  O   UNL     2      -7.712   6.786  73.506  1.00  0.00    -0.089 OA 
HETATM    7  H   UNL     2      -7.070   7.342  73.931  1.00  0.00     0.000 HD 
ENDBRANCH   2   5
BRANCH   2   8
HETATM    8  C   UNL     2      -9.744   6.359  71.283  1.00  0.00    -0.174 C  
HETATM    9  O   UNL     2     -10.469   6.068  72.499  1.00  0.00    -0.191 OA 
HETATM   10  H   UNL     2     -11.319   6.476  72.391  1.00  0.00     0.000 HD 
BRANCH   8  11
HETATM   11  C   UNL     2      -9.714   7.884  70.967  1.00  0.00    -0.159 C  
HETATM   12  O   UNL     2      -9.764   8.671  72.173  1.00  0.00    -0.292 OA 
HETATM   13  H   UNL     2      -9.745   9.601  71.980  1.00  0.00     0.000 HD 
BRANCH  11  14
HETATM   14  C   UNL     2     -10.804   8.359  69.991  1.00  0.00    -0.225 C  
HETATM   15  C   UNL     2     -10.687   9.881  69.693  1.00  0.00    -0.252 C  
HETATM   16  O   UNL     2     -12.117   8.037  70.485  1.00  0.00    -0.489 OA 
HETATM   17  H   UNL     2     -12.790   8.330  69.882  1.00  0.00     0.000 HD 
HETATM   18  O   UNL     2      -9.494  10.313  69.639  1.00  0.00    -0.211 OA 
HETATM   19  O   UNL     2     -11.793  10.488  69.638  1.00  0.00    -0.263 OA 
ENDBRANCH  11  14
ENDBRANCH   8  11
ENDBRANCH   2   8
TORSDOF 4
ENDMDL
MODEL      356
REMARK 921   NORMALIZED FREE ENERGY PREDICTED BY IDOCK:   -2.21 KCAL/MOL
REMARK 922        TOTAL FREE ENERGY PREDICTED BY IDOCK:   -3.74 KCAL/MOL
REMARK 923 INTER-LIGAND FREE ENERGY PREDICTED BY IDOCK:   -3.24 KCAL/MOL
REMARK 924 INTRA-LIGAND FREE ENERGY PREDICTED BY IDOCK:   -0.50 KCAL/MOL
REMARK 927      BINDING AFFINITY PREDICTED BY RF-SCORE:    0.00 PKD
ROOT
HETATM    1  K   UNL     1     -10.130   7.668  66.883  1.00  0.00    -0.151 K  
HETATM    2  C   UNL     2      -8.474  10.259  68.815  1.00  0.00    -0.130 C  
HETATM    3  H   UNL     2      -8.996   9.422  67.102  1.00  0.00     0.000 HD 
HETATM    4  O   UNL     2      -8.243   9.385  67.678  1.00  0.00    -0.113 OA 
ENDROOT
BRANCH   2   5
HETATM    5  C   UNL     2      -7.259  10.199  69.744  1.00  0.00    -0.141 C  
HETATM    6  O   UNL     2      -7.016   8.833  70.097  1.00  0.00    -0.041 OA 
HETATM    7  H   UNL     2      -6.263   8.796  70.673  1.00  0.00     0.000 HD 
ENDBRANCH   2   5
BRANCH   2   8
HETATM    8  C   UNL     2      -9.822   9.976  69.525  1.00  0.00    -0.229 C  
HETATM    9  O   UNL     2      -9.495   9.812  70.923  1.00  0.00    -0.290 OA 
HETATM   10  H   UNL     2     -10.321   9.639  71.358  1.00  0.00     0.000 HD 
BRANCH   8  11
HETATM   11  C   UNL     2     -10.928  11.050  69.302  1.00  0.00    -0.252 C  
HETATM   12  O   UNL     2     -12.242  10.509  69.543  1.00  0.00    -0.510 OA 
HETATM   13  H   UNL     2     -12.916  11.164  69.407  1.00  0.00     0.000 HD 
BRANCH  11  14
HETATM   14  C   UNL     2     -10.893  11.732  67.923  1.00  0.00    -0.211 C  
HETATM   15  C   UNL     2     -10.855  13.281  68.048  1.00  0.00    -0.243 C  
HETATM   16  O   UNL     2     -12.004  11.313  67.110  1.00  0.00    -0.470 OA 
HETATM   17  H   UNL     2     -11.981  11.734  66.258  1.00  0.00     0.000 HD 
HETATM   18  O   UNL     2     -10.180  13.711  69.034  1.00  0.00    -0.135 OA 
HETATM   19  O   UNL     2     -11.575  13.889  67.207  1.00  0.00    -0.325 OA 
ENDBRANCH  11  14
ENDBRANCH   8  11
ENDBRANCH   2   8
TORSDOF 4
ENDMDL
MODEL      357
REMARK 921   NORMALIZED FREE ENERGY PREDICTED BY IDOCK:   -2.21 KCAL/MOL
REMARK 922        TOTAL FREE ENERGY PREDICTED BY IDOCK:   -3.73 KCAL/MOL
REMARK 923 INTER-LIGAND FREE ENERGY PREDICTED BY IDOCK:   -3.19 KCAL/MOL
REMARK 924 INTRA-LIGAND FREE ENERGY PREDICTED BY IDOCK:   -0.54 KCAL/MOL
REMARK 927      BINDING AFFINITY PREDICTED BY RF-SCORE:    0.00 PKD
ROOT
HETATM    1  K   UNL     1      -7.295   7.982  70.764  1.00  0.00    -0.050 K  
HETATM    2  C   UNL     2     -10.766   8.834  71.404  1.00  0.00    -0.286 C  
HETATM    3  H   UNL     2      -8.851   9.302  71.259  1.00  0.00     0.000 HD 
HETATM    4  O   UNL     2      -9.439   9.039  71.957  1.00  0.00    -0.339 OA 
ENDROOT
BRANCH   2   5
HETATM    5  C   UNL     2     -11.714   8.411  72.528  1.00  0.00    -0.359 C  
HETATM    6  O   UNL     2     -11.130   7.310  73.233  1.00  0.00    -0.510 OA 
HETATM    7  H   UNL     2     -11.719   7.047  73.930  1.00  0.00     0.000 HD 
ENDBRANCH   2   5
BRANCH   2   8
HETATM    8  C   UNL     2     -10.767   7.873  70.187  1.00  0.00    -0.244 C  
HETATM    9  O   UNL     2     -10.922   8.721  69.026  1.00  0.00    -0.426 OA 
HETATM   10  H   UNL     2     -10.922   8.133  68.281  1.00  0.00     0.000 HD 
BRANCH   8  11
HETATM   11  C   UNL     2      -9.522   6.944  70.074  1.00  0.00    -0.158 C  
HETATM   12  O   UNL     2      -9.038   6.877  68.718  1.00  0.00    -0.134 OA 
HETATM   13  H   UNL     2      -8.279   6.310  68.650  1.00  0.00     0.000 HD 
BRANCH  11  14
HETATM   14  C   UNL     2      -9.730   5.522  70.623  1.00  0.00    -0.176 C  
HETATM   15  C   UNL     2      -8.656   5.152  71.684  1.00  0.00    -0.129 C  
HETATM   16  O   UNL     2      -9.749   4.554  69.558  1.00  0.00    -0.183 OA 
HETATM   17  H   UNL     2      -9.878   3.676  69.897  1.00  0.00     0.000 HD 
HETATM   18  O   UNL     2      -8.297   6.118  72.426  1.00  0.00    -0.115 OA 
HETATM   19  O   UNL     2      -8.226   3.967  71.599  1.00  0.00    -0.079 OA 
ENDBRANCH  11  14
ENDBRANCH   8  11
ENDBRANCH   2   8
TORSDOF 4
ENDMDL
MODEL      358
REMARK 921   NORMALIZED FREE ENERGY PREDICTED BY IDOCK:   -2.20 KCAL/MOL
REMARK 922        TOTAL FREE ENERGY PREDICTED BY IDOCK:   -3.72 KCAL/MOL
REMARK 923 INTER-LIGAND FREE ENERGY PREDICTED BY IDOCK:   -3.42 KCAL/MOL
REMARK 924 INTRA-LIGAND FREE ENERGY PREDICTED BY IDOCK:   -0.30 KCAL/MOL
REMARK 927      BINDING AFFINITY PREDICTED BY RF-SCORE:    0.00 PKD
ROOT
HETATM    1  K   UNL     1      -9.408  11.230  69.952  1.00  0.00    -0.387 K  
HETATM    2  C   UNL     2      -8.363   8.364  67.983  1.00  0.00    -0.128 C  
HETATM    3  H   UNL     2      -8.249   9.518  69.583  1.00  0.00     0.000 HD 
HETATM    4  O   UNL     2      -7.805   9.466  68.745  1.00  0.00    -0.082 OA 
ENDROOT
BRANCH   2   5
HETATM    5  C   UNL     2      -7.648   8.278  66.633  1.00  0.00    -0.090 C  
HETATM    6  O   UNL     2      -7.141   9.575  66.298  1.00  0.00    -0.089 OA 
HETATM    7  H   UNL     2      -6.697   9.522  65.460  1.00  0.00     0.000 HD 
ENDBRANCH   2   5
BRANCH   2   8
HETATM    8  C   UNL     2      -9.908   8.434  67.871  1.00  0.00    -0.170 C  
HETATM    9  O   UNL     2     -10.377   8.755  69.200  1.00  0.00    -0.210 OA 
HETATM   10  H   UNL     2     -11.323   8.798  69.132  1.00  0.00     0.000 HD 
BRANCH   8  11
HETATM   11  C   UNL     2     -10.452   9.426  66.800  1.00  0.00    -0.195 C  
HETATM   12  O   UNL     2     -10.031   9.051  65.475  1.00  0.00    -0.437 OA 
HETATM   13  H   UNL     2     -10.362   9.657  64.822  1.00  0.00     0.000 HD 
BRANCH  11  14
HETATM   14  C   UNL     2     -10.103  10.902  67.058  1.00  0.00    -0.205 C  
HETATM   15  C   UNL     2     -11.360  11.733  67.443  1.00  0.00    -0.311 C  
HETATM   16  O   UNL     2      -9.438  11.483  65.920  1.00  0.00    -0.221 OA 
HETATM   17  H   UNL     2      -9.223  12.395  66.080  1.00  0.00     0.000 HD 
HETATM   18  O   UNL     2     -12.206  11.103  68.150  1.00  0.00    -0.612 OA 
HETATM   19  O   UNL     2     -11.405  12.883  66.922  1.00  0.00    -0.282 OA 
ENDBRANCH  11  14
ENDBRANCH   8  11
ENDBRANCH   2   8
TORSDOF 4
ENDMDL
MODEL      359
REMARK 921   NORMALIZED FREE ENERGY PREDICTED BY IDOCK:   -2.19 KCAL/MOL
REMARK 922        TOTAL FREE ENERGY PREDICTED BY IDOCK:   -3.71 KCAL/MOL
REMARK 923 INTER-LIGAND FREE ENERGY PREDICTED BY IDOCK:   -3.94 KCAL/MOL
REMARK 924 INTRA-LIGAND FREE ENERGY PREDICTED BY IDOCK:    0.23 KCAL/MOL
REMARK 927      BINDING AFFINITY PREDICTED BY RF-SCORE:    0.00 PKD
ROOT
HETATM    1  K   UNL     1     -11.170   6.353  66.014  1.00  0.00    -0.487 K  
HETATM    2  C   UNL     2      -9.665   7.020  69.250  1.00  0.00    -0.158 C  
HETATM    3  H   UNL     2      -9.809   5.989  67.570  1.00  0.00     0.000 HD 
HETATM    4  O   UNL     2     -10.161   5.915  68.449  1.00  0.00    -0.159 OA 
ENDROOT
BRANCH   2   5
HETATM    5  C   UNL     2     -10.233   6.902  70.666  1.00  0.00    -0.195 C  
HETATM    6  O   UNL     2     -11.662   6.857  70.587  1.00  0.00    -0.338 OA 
HETATM    7  H   UNL     2     -12.015   6.784  71.465  1.00  0.00     0.000 HD 
ENDBRANCH   2   5
BRANCH   2   8
HETATM    8  C   UNL     2      -9.911   8.400  68.588  1.00  0.00    -0.184 C  
HETATM    9  O   UNL     2     -11.147   8.259  67.851  1.00  0.00    -0.469 OA 
HETATM   10  H   UNL     2     -11.297   9.104  67.445  1.00  0.00     0.000 HD 
BRANCH   8  11
HETATM   11  C   UNL     2      -9.946   9.610  69.568  1.00  0.00    -0.209 C  
HETATM   12  O   UNL     2      -9.077   9.397  70.697  1.00  0.00    -0.240 OA 
HETATM   13  H   UNL     2      -9.098  10.135  71.295  1.00  0.00     0.000 HD 
BRANCH  11  14
HETATM   14  C   UNL     2     -11.351   9.997  70.060  1.00  0.00    -0.275 C  
HETATM   15  C   UNL     2     -11.617  11.521  69.903  1.00  0.00    -0.308 C  
HETATM   16  O   UNL     2     -11.554   9.583  71.424  1.00  0.00    -0.340 OA 
HETATM   17  H   UNL     2     -12.422   9.822  71.727  1.00  0.00     0.000 HD 
HETATM   18  O   UNL     2     -11.095  12.039  68.867  1.00  0.00    -0.223 OA 
HETATM   19  O   UNL     2     -12.235  12.045  70.872  1.00  0.00    -0.352 OA 
ENDBRANCH  11  14
ENDBRANCH   8  11
ENDBRANCH   2   8
TORSDOF 4
ENDMDL
MODEL      360
REMARK 921   NORMALIZED FREE ENERGY PREDICTED BY IDOCK:   -2.17 KCAL/MOL
REMARK 922        TOTAL FREE ENERGY PREDICTED BY IDOCK:   -3.69 KCAL/MOL
REMARK 923 INTER-LIGAND FREE ENERGY PREDICTED BY IDOCK:   -3.23 KCAL/MOL
REMARK 924 INTRA-LIGAND FREE ENERGY PREDICTED BY IDOCK:   -0.46 KCAL/MOL
REMARK 927      BINDING AFFINITY PREDICTED BY RF-SCORE:    0.00 PKD
ROOT
HETATM    1  K   UNL     1      -9.048   5.320  68.719  1.00  0.00    -0.104 K  
HETATM    2  C   UNL     2      -9.597   8.234  70.814  1.00  0.00    -0.172 C  
HETATM    3  H   UNL     2      -8.427   6.870  69.991  1.00  0.00     0.000 HD 
HETATM    4  O   UNL     2      -8.887   6.967  70.816  1.00  0.00    -0.147 OA 
ENDROOT
BRANCH   2   5
HETATM    5  C   UNL     2     -10.339   8.391  72.143  1.00  0.00    -0.327 C  
HETATM    6  O   UNL     2      -9.440   8.076  73.212  1.00  0.00    -0.273 OA 
HETATM    7  H   UNL     2      -9.901   8.173  74.037  1.00  0.00     0.000 HD 
ENDBRANCH   2   5
BRANCH   2   8
HETATM    8  C   UNL     2     -10.499   8.414  69.566  1.00  0.00    -0.224 C  
HETATM    9  O   UNL     2     -11.826   8.027  69.990  1.00  0.00    -0.436 OA 
HETATM   10  H   UNL     2     -12.378   8.137  69.226  1.00  0.00     0.000 HD 
BRANCH   8  11
HETATM   11  C   UNL     2     -10.477   9.836  68.930  1.00  0.00    -0.214 C  
HETATM   12  O   UNL     2     -11.293   9.893  67.744  1.00  0.00    -0.497 OA 
HETATM   13  H   UNL     2     -11.279  10.761  67.356  1.00  0.00     0.000 HD 
BRANCH  11  14
HETATM   14  C   UNL     2      -9.071  10.378  68.620  1.00  0.00    -0.157 C  
HETATM   15  C   UNL     2      -9.130  11.768  67.926  1.00  0.00    -0.181 C  
HETATM   16  O   UNL     2      -8.319   9.443  67.824  1.00  0.00    -0.114 OA 
HETATM   17  H   UNL     2      -7.451   9.778  67.633  1.00  0.00     0.000 HD 
HETATM   18  O   UNL     2     -10.070  12.518  68.334  1.00  0.00    -0.220 OA 
HETATM   19  O   UNL     2      -8.293  11.920  66.991  1.00  0.00    -0.167 OA 
ENDBRANCH  11  14
ENDBRANCH   8  11
ENDBRANCH   2   8
TORSDOF 4
ENDMDL
MODEL      361
REMARK 921   NORMALIZED FREE ENERGY PREDICTED BY IDOCK:   -2.16 KCAL/MOL
REMARK 922        TOTAL FREE ENERGY PREDICTED BY IDOCK:   -3.68 KCAL/MOL
REMARK 923 INTER-LIGAND FREE ENERGY PREDICTED BY IDOCK:   -3.24 KCAL/MOL
REMARK 924 INTRA-LIGAND FREE ENERGY PREDICTED BY IDOCK:   -0.44 KCAL/MOL
REMARK 927      BINDING AFFINITY PREDICTED BY RF-SCORE:    0.00 PKD
ROOT
HETATM    1  K   UNL     1     -11.719   7.027  67.893  1.00  0.00    -0.478 K  
HETATM    2  C   UNL     2      -9.540   7.384  70.775  1.00  0.00    -0.170 C  
HETATM    3  H   UNL     2      -9.879   6.881  68.894  1.00  0.00     0.000 HD 
HETATM    4  O   UNL     2      -9.873   6.432  69.731  1.00  0.00    -0.162 OA 
ENDROOT
BRANCH   2   5
HETATM    5  C   UNL     2      -9.530   6.661  72.123  1.00  0.00    -0.144 C  
HETATM    6  O   UNL     2     -10.882   6.478  72.558  1.00  0.00    -0.221 OA 
HETATM    7  H   UNL     2     -10.876   6.030  73.395  1.00  0.00     0.000 HD 
ENDBRANCH   2   5
BRANCH   2   8
HETATM    8  C   UNL     2     -10.440   8.646  70.745  1.00  0.00    -0.204 C  
HETATM    9  O   UNL     2     -10.527   9.090  72.118  1.00  0.00    -0.321 OA 
HETATM   10  H   UNL     2     -11.078   9.862  72.100  1.00  0.00     0.000 HD 
BRANCH   8  11
HETATM   11  C   UNL     2      -9.961   9.781  69.791  1.00  0.00    -0.236 C  
HETATM   12  O   UNL     2     -10.562  11.044  70.134  1.00  0.00    -0.420 OA 
HETATM   13  H   UNL     2     -10.271  11.736  69.552  1.00  0.00     0.000 HD 
BRANCH  11  14
HETATM   14  C   UNL     2     -10.176   9.493  68.295  1.00  0.00    -0.193 C  
HETATM   15  C   UNL     2      -8.845   9.580  67.495  1.00  0.00    -0.125 C  
HETATM   16  O   UNL     2     -11.165  10.376  67.734  1.00  0.00    -0.325 OA 
HETATM   17  H   UNL     2     -11.298  10.199  66.811  1.00  0.00     0.000 HD 
HETATM   18  O   UNL     2      -7.827   9.160  68.126  1.00  0.00    -0.098 OA 
HETATM   19  O   UNL     2      -8.951  10.141  66.367  1.00  0.00    -0.142 OA 
ENDBRANCH  11  14
ENDBRANCH   8  11
ENDBRANCH   2   8
TORSDOF 4
ENDMDL
MODEL      362
REMARK 921   NORMALIZED FREE ENERGY PREDICTED BY IDOCK:   -2.15 KCAL/MOL
REMARK 922        TOTAL FREE ENERGY PREDICTED BY IDOCK:   -3.66 KCAL/MOL
REMARK 923 INTER-LIGAND FREE ENERGY PREDICTED BY IDOCK:   -2.74 KCAL/MOL
REMARK 924 INTRA-LIGAND FREE ENERGY PREDICTED BY IDOCK:   -0.92 KCAL/MOL
REMARK 927      BINDING AFFINITY PREDICTED BY RF-SCORE:    0.00 PKD
ROOT
HETATM    1  K   UNL     1      -8.656   6.699  69.220  1.00  0.00    -0.117 K  
HETATM    2  C   UNL     2      -8.448   6.571  72.842  1.00  0.00    -0.119 C  
HETATM    3  H   UNL     2      -7.874   7.266  71.084  1.00  0.00     0.000 HD 
HETATM    4  O   UNL     2      -7.594   6.573  71.668  1.00  0.00    -0.091 OA 
ENDROOT
BRANCH   2   5
HETATM    5  C   UNL     2      -7.997   5.452  73.784  1.00  0.00    -0.109 C  
HETATM    6  O   UNL     2      -8.116   4.199  73.102  1.00  0.00    -0.088 OA 
HETATM    7  H   UNL     2      -7.837   3.505  73.686  1.00  0.00     0.000 HD 
ENDBRANCH   2   5
BRANCH   2   8
HETATM    8  C   UNL     2      -9.956   6.522  72.487  1.00  0.00    -0.170 C  
HETATM    9  O   UNL     2     -10.541   5.580  73.414  1.00  0.00    -0.220 OA 
HETATM   10  H   UNL     2     -11.465   5.550  73.197  1.00  0.00     0.000 HD 
BRANCH   8  11
HETATM   11  C   UNL     2     -10.688   7.897  72.507  1.00  0.00    -0.328 C  
HETATM   12  O   UNL     2     -12.030   7.771  73.015  1.00  0.00    -0.610 OA 
HETATM   13  H   UNL     2     -12.476   8.610  73.027  1.00  0.00     0.000 HD 
BRANCH  11  14
HETATM   14  C   UNL     2     -10.711   8.631  71.155  1.00  0.00    -0.240 C  
HETATM   15  C   UNL     2     -11.340   7.756  70.035  1.00  0.00    -0.048 C  
HETATM   16  O   UNL     2      -9.392   9.067  70.779  1.00  0.00    -0.205 OA 
HETATM   17  H   UNL     2      -9.406   9.521  69.945  1.00  0.00     0.000 HD 
HETATM   18  O   UNL     2     -12.300   7.019  70.423  1.00  0.00    -0.208 OA 
HETATM   19  O   UNL     2     -10.750   7.831  68.920  1.00  0.00    -0.185 OA 
ENDBRANCH  11  14
ENDBRANCH   8  11
ENDBRANCH   2   8
TORSDOF 4
ENDMDL
MODEL      363
REMARK 921   NORMALIZED FREE ENERGY PREDICTED BY IDOCK:   -2.14 KCAL/MOL
REMARK 922        TOTAL FREE ENERGY PREDICTED BY IDOCK:   -3.66 KCAL/MOL
REMARK 923 INTER-LIGAND FREE ENERGY PREDICTED BY IDOCK:   -3.34 KCAL/MOL
REMARK 924 INTRA-LIGAND FREE ENERGY PREDICTED BY IDOCK:   -0.31 KCAL/MOL
REMARK 927      BINDING AFFINITY PREDICTED BY RF-SCORE:    0.00 PKD
ROOT
HETATM    1  K   UNL     1     -12.315   8.113  73.545  1.00  0.00    -0.604 K  
HETATM    2  C   UNL     2      -9.914   8.405  70.836  1.00  0.00    -0.191 C  
HETATM    3  H   UNL     2     -10.392   7.991  72.709  1.00  0.00     0.000 HD 
HETATM    4  O   UNL     2     -10.074   8.751  72.237  1.00  0.00    -0.311 OA 
ENDROOT
BRANCH   2   5
HETATM    5  C   UNL     2      -9.401   9.629  70.076  1.00  0.00    -0.241 C  
HETATM    6  O   UNL     2      -8.159  10.045  70.657  1.00  0.00    -0.411 OA 
HETATM    7  H   UNL     2      -7.841  10.805  70.185  1.00  0.00     0.000 HD 
ENDBRANCH   2   5
BRANCH   2   8
HETATM    8  C   UNL     2     -11.193   7.776  70.225  1.00  0.00    -0.206 C  
HETATM    9  O   UNL     2     -11.938   8.883  69.668  1.00  0.00    -0.038 OA 
HETATM   10  H   UNL     2     -12.721   8.498  69.294  1.00  0.00     0.000 HD 
BRANCH   8  11
HETATM   11  C   UNL     2     -10.944   6.650  69.177  1.00  0.00    -0.287 C  
HETATM   12  O   UNL     2     -11.129   5.344  69.756  1.00  0.00    -0.152 OA 
HETATM   13  H   UNL     2     -10.976   4.657  69.118  1.00  0.00     0.000 HD 
BRANCH  11  14
HETATM   14  C   UNL     2      -9.576   6.718  68.475  1.00  0.00    -0.130 C  
HETATM   15  C   UNL     2      -9.687   7.346  67.057  1.00  0.00    -0.191 C  
HETATM   16  O   UNL     2      -8.963   5.417  68.409  1.00  0.00    -0.108 OA 
HETATM   17  H   UNL     2      -8.119   5.460  67.976  1.00  0.00     0.000 HD 
HETATM   18  O   UNL     2     -10.544   8.279  66.963  1.00  0.00    -0.321 OA 
HETATM   19  O   UNL     2      -8.978   6.779  66.179  1.00  0.00    -0.153 OA 
ENDBRANCH  11  14
ENDBRANCH   8  11
ENDBRANCH   2   8
TORSDOF 4
ENDMDL
MODEL      364
REMARK 921   NORMALIZED FREE ENERGY PREDICTED BY IDOCK:   -2.14 KCAL/MOL
REMARK 922        TOTAL FREE ENERGY PREDICTED BY IDOCK:   -3.65 KCAL/MOL
REMARK 923 INTER-LIGAND FREE ENERGY PREDICTED BY IDOCK:   -2.81 KCAL/MOL
REMARK 924 INTRA-LIGAND FREE ENERGY PREDICTED BY IDOCK:   -0.84 KCAL/MOL
REMARK 927      BINDING AFFINITY PREDICTED BY RF-SCORE:    0.00 PKD
ROOT
HETATM    1  K   UNL     1      -8.805   5.191  66.434  1.00  0.00    -0.115 K  
HETATM    2  C   UNL     2      -8.373   6.338  69.852  1.00  0.00    -0.129 C  
HETATM    3  H   UNL     2      -7.700   5.501  68.193  1.00  0.00     0.000 HD 
HETATM    4  O   UNL     2      -8.081   5.195  69.006  1.00  0.00    -0.084 OA 
ENDROOT
BRANCH   2   5
HETATM    5  C   UNL     2      -8.987   5.844  71.164  1.00  0.00    -0.139 C  
HETATM    6  O   UNL     2     -10.165   5.088  70.864  1.00  0.00    -0.221 OA 
HETATM    7  H   UNL     2     -10.546   4.781  71.678  1.00  0.00     0.000 HD 
ENDBRANCH   2   5
BRANCH   2   8
HETATM    8  C   UNL     2      -9.220   7.418  69.130  1.00  0.00    -0.147 C  
HETATM    9  O   UNL     2     -10.001   6.701  68.148  1.00  0.00    -0.139 OA 
HETATM   10  H   UNL     2     -10.520   7.362  67.705  1.00  0.00     0.000 HD 
BRANCH   8  11
HETATM   11  C   UNL     2     -10.108   8.297  70.060  1.00  0.00    -0.196 C  
HETATM   12  O   UNL     2     -11.508   8.025  69.859  1.00  0.00    -0.457 OA 
HETATM   13  H   UNL     2     -12.050   8.562  70.427  1.00  0.00     0.000 HD 
BRANCH  11  14
HETATM   14  C   UNL     2      -9.851   9.810  69.950  1.00  0.00    -0.243 C  
HETATM   15  C   UNL     2     -10.068  10.327  68.500  1.00  0.00    -0.165 C  
HETATM   16  O   UNL     2      -8.532  10.147  70.419  1.00  0.00    -0.362 OA 
HETATM   17  H   UNL     2      -8.374  11.081  70.351  1.00  0.00     0.000 HD 
HETATM   18  O   UNL     2     -11.014   9.753  67.875  1.00  0.00    -0.262 OA 
HETATM   19  O   UNL     2      -9.217  11.178  68.117  1.00  0.00    -0.153 OA 
ENDBRANCH  11  14
ENDBRANCH   8  11
ENDBRANCH   2   8
TORSDOF 4
ENDMDL
MODEL      365
REMARK 921   NORMALIZED FREE ENERGY PREDICTED BY IDOCK:   -2.10 KCAL/MOL
REMARK 922        TOTAL FREE ENERGY PREDICTED BY IDOCK:   -3.60 KCAL/MOL
REMARK 923 INTER-LIGAND FREE ENERGY PREDICTED BY IDOCK:   -4.29 KCAL/MOL
REMARK 924 INTRA-LIGAND FREE ENERGY PREDICTED BY IDOCK:    0.69 KCAL/MOL
REMARK 927      BINDING AFFINITY PREDICTED BY RF-SCORE:    0.00 PKD
ROOT
HETATM    1  K   UNL     1      -9.443  20.798  64.808  1.00  0.00    -0.448 K  
HETATM    2  C   UNL     2     -10.476  19.257  67.929  1.00  0.00    -0.410 C  
HETATM    3  H   UNL     2     -10.790  20.442  66.379  1.00  0.00     0.000 HD 
HETATM    4  O   UNL     2     -10.464  20.548  67.264  1.00  0.00    -0.195 OA 
ENDROOT
BRANCH   2   5
HETATM    5  C   UNL     2      -9.951  19.428  69.357  1.00  0.00    -0.140 C  
HETATM    6  O   UNL     2     -10.705  20.458  70.005  1.00  0.00    -0.532 OA 
HETATM    7  H   UNL     2     -10.380  20.564  70.890  1.00  0.00     0.000 HD 
ENDBRANCH   2   5
BRANCH   2   8
HETATM    8  C   UNL     2      -9.743  18.158  67.118  1.00  0.00    -0.301 C  
HETATM    9  O   UNL     2     -10.249  18.273  65.769  1.00  0.00    -0.576 OA 
HETATM   10  H   UNL     2      -9.800  17.599  65.272  1.00  0.00     0.000 HD 
BRANCH   8  11
HETATM   11  C   UNL     2      -8.187  18.220  67.170  1.00  0.00    -0.234 C  
HETATM   12  O   UNL     2      -7.625  18.407  65.857  1.00  0.00    -0.451 OA 
HETATM   13  H   UNL     2      -6.676  18.445  65.889  1.00  0.00     0.000 HD 
BRANCH  11  14
HETATM   14  C   UNL     2      -7.519  17.015  67.855  1.00  0.00    -0.168 C  
HETATM   15  C   UNL     2      -8.569  16.046  68.469  1.00  0.00    -0.190 C  
HETATM   16  O   UNL     2      -6.577  17.445  68.854  1.00  0.00    -0.196 OA 
HETATM   17  H   UNL     2      -6.164  16.700  69.277  1.00  0.00     0.000 HD 
HETATM   18  O   UNL     2      -9.638  15.934  67.791  1.00  0.00    -0.216 OA 
HETATM   19  O   UNL     2      -8.250  15.581  69.599  1.00  0.00    -0.230 OA 
ENDBRANCH  11  14
ENDBRANCH   8  11
ENDBRANCH   2   8
TORSDOF 4
ENDMDL
MODEL      366
REMARK 921   NORMALIZED FREE ENERGY PREDICTED BY IDOCK:   -2.09 KCAL/MOL
REMARK 922        TOTAL FREE ENERGY PREDICTED BY IDOCK:   -3.58 KCAL/MOL
REMARK 923 INTER-LIGAND FREE ENERGY PREDICTED BY IDOCK:   -2.84 KCAL/MOL
REMARK 924 INTRA-LIGAND FREE ENERGY PREDICTED BY IDOCK:   -0.74 KCAL/MOL
REMARK 927      BINDING AFFINITY PREDICTED BY RF-SCORE:    0.00 PKD
ROOT
HETATM    1  K   UNL     1     -10.914   6.857  67.915  1.00  0.00    -0.182 K  
HETATM    2  C   UNL     2      -9.223   4.666  70.265  1.00  0.00    -0.132 C  
HETATM    3  H   UNL     2      -9.222   6.086  68.891  1.00  0.00     0.000 HD 
HETATM    4  O   UNL     2      -9.116   5.143  68.898  1.00  0.00    -0.102 OA 
ENDROOT
BRANCH   2   5
HETATM    5  C   UNL     2      -9.051   3.145  70.277  1.00  0.00    -0.123 C  
HETATM    6  O   UNL     2      -8.311   2.774  71.445  1.00  0.00    -0.061 OA 
HETATM    7  H   UNL     2      -8.204   1.831  71.453  1.00  0.00     0.000 HD 
ENDBRANCH   2   5
BRANCH   2   8
HETATM    8  C   UNL     2     -10.512   5.157  70.973  1.00  0.00    -0.171 C  
HETATM    9  O   UNL     2     -10.467   4.586  72.300  1.00  0.00    -0.192 OA 
HETATM   10  H   UNL     2     -11.256   4.887  72.732  1.00  0.00     0.000 HD 
BRANCH   8  11
HETATM   11  C   UNL     2     -10.704   6.703  71.005  1.00  0.00    -0.236 C  
HETATM   12  O   UNL     2      -9.498   7.389  70.616  1.00  0.00    -0.164 OA 
HETATM   13  H   UNL     2      -9.615   8.332  70.636  1.00  0.00     0.000 HD 
BRANCH  11  14
HETATM   14  C   UNL     2     -11.209   7.260  72.347  1.00  0.00    -0.281 C  
HETATM   15  C   UNL     2     -12.635   7.866  72.219  1.00  0.00    -0.194 C  
HETATM   16  O   UNL     2     -10.290   8.228  72.885  1.00  0.00    -0.302 OA 
HETATM   17  H   UNL     2     -10.602   8.572  73.714  1.00  0.00     0.000 HD 
HETATM   18  O   UNL     2     -13.396   7.248  71.412  1.00  0.00    -0.383 OA 
HETATM   19  O   UNL     2     -12.805   8.939  72.863  1.00  0.00    -0.321 OA 
ENDBRANCH  11  14
ENDBRANCH   8  11
ENDBRANCH   2   8
TORSDOF 4
ENDMDL
MODEL      367
REMARK 921   NORMALIZED FREE ENERGY PREDICTED BY IDOCK:   -2.07 KCAL/MOL
REMARK 922        TOTAL FREE ENERGY PREDICTED BY IDOCK:   -3.56 KCAL/MOL
REMARK 923 INTER-LIGAND FREE ENERGY PREDICTED BY IDOCK:   -2.46 KCAL/MOL
REMARK 924 INTRA-LIGAND FREE ENERGY PREDICTED BY IDOCK:   -1.10 KCAL/MOL
REMARK 927      BINDING AFFINITY PREDICTED BY RF-SCORE:    0.00 PKD
ROOT
HETATM    1  K   UNL     1     -10.743   3.679  65.167  1.00  0.00    -0.312 K  
HETATM    2  C   UNL     2      -8.598   3.929  68.086  1.00  0.00    -0.096 C  
HETATM    3  H   UNL     2      -9.533   2.888  66.689  1.00  0.00     0.000 HD 
HETATM    4  O   UNL     2      -9.720   3.159  67.579  1.00  0.00    -0.129 OA 
ENDROOT
BRANCH   2   5
HETATM    5  C   UNL     2      -8.901   4.365  69.521  1.00  0.00    -0.089 C  
HETATM    6  O   UNL     2     -10.134   3.766  69.934  1.00  0.00     0.019 OA 
HETATM    7  H   UNL     2     -10.321   4.036  70.825  1.00  0.00     0.000 HD 
ENDBRANCH   2   5
BRANCH   2   8
HETATM    8  C   UNL     2      -8.199   5.096  67.146  1.00  0.00    -0.107 C  
HETATM    9  O   UNL     2      -7.974   4.490  65.853  1.00  0.00    -0.097 OA 
HETATM   10  H   UNL     2      -7.730   5.204  65.278  1.00  0.00     0.000 HD 
BRANCH   8  11
HETATM   11  C   UNL     2      -9.220   6.270  67.076  1.00  0.00    -0.124 C  
HETATM   12  O   UNL     2     -10.488   5.833  66.551  1.00  0.00    -0.303 OA 
HETATM   13  H   UNL     2     -11.110   6.550  66.508  1.00  0.00     0.000 HD 
BRANCH  11  14
HETATM   14  C   UNL     2      -8.730   7.500  66.292  1.00  0.00    -0.149 C  
HETATM   15  C   UNL     2      -9.690   8.711  66.461  1.00  0.00    -0.255 C  
HETATM   16  O   UNL     2      -8.545   7.187  64.899  1.00  0.00    -0.343 OA 
HETATM   17  H   UNL     2      -8.242   7.946  64.415  1.00  0.00     0.000 HD 
HETATM   18  O   UNL     2     -10.214   8.807  67.614  1.00  0.00    -0.208 OA 
HETATM   19  O   UNL     2      -9.885   9.373  65.403  1.00  0.00    -0.270 OA 
ENDBRANCH  11  14
ENDBRANCH   8  11
ENDBRANCH   2   8
TORSDOF 4
ENDMDL
MODEL      368
REMARK 921   NORMALIZED FREE ENERGY PREDICTED BY IDOCK:   -2.06 KCAL/MOL
REMARK 922        TOTAL FREE ENERGY PREDICTED BY IDOCK:   -3.55 KCAL/MOL
REMARK 923 INTER-LIGAND FREE ENERGY PREDICTED BY IDOCK:   -3.05 KCAL/MOL
REMARK 924 INTRA-LIGAND FREE ENERGY PREDICTED BY IDOCK:   -0.50 KCAL/MOL
REMARK 927      BINDING AFFINITY PREDICTED BY RF-SCORE:    0.00 PKD
ROOT
HETATM    1  K   UNL     1     -13.456  14.260  66.287  1.00  0.00    -0.553 K  
HETATM    2  C   UNL     2     -10.312  12.838  67.417  1.00  0.00    -0.222 C  
HETATM    3  H   UNL     2     -12.255  12.728  67.073  1.00  0.00     0.000 HD 
HETATM    4  O   UNL     2     -11.704  12.944  67.815  1.00  0.00    -0.330 OA 
ENDROOT
BRANCH   2   5
HETATM    5  C   UNL     2      -9.424  13.186  68.613  1.00  0.00    -0.007 C  
HETATM    6  O   UNL     2      -9.697  14.533  69.014  1.00  0.00    -0.307 OA 
HETATM    7  H   UNL     2      -9.146  14.749  69.756  1.00  0.00     0.000 HD 
ENDBRANCH   2   5
BRANCH   2   8
HETATM    8  C   UNL     2      -9.991  13.654  66.138  1.00  0.00    -0.306 C  
HETATM    9  O   UNL     2      -8.745  14.332  66.415  1.00  0.00    -0.460 OA 
HETATM   10  H   UNL     2      -8.548  14.831  65.632  1.00  0.00     0.000 HD 
BRANCH   8  11
HETATM   11  C   UNL     2      -9.929  12.826  64.820  1.00  0.00    -0.135 C  
HETATM   12  O   UNL     2     -10.478  13.562  63.710  1.00  0.00    -0.506 OA 
HETATM   13  H   UNL     2     -10.440  13.057  62.907  1.00  0.00     0.000 HD 
BRANCH  11  14
HETATM   14  C   UNL     2     -10.591  11.439  64.902  1.00  0.00    -0.307 C  
HETATM   15  C   UNL     2      -9.570  10.297  64.640  1.00  0.00    -0.312 C  
HETATM   16  O   UNL     2     -11.706  11.344  63.996  1.00  0.00    -0.330 OA 
HETATM   17  H   UNL     2     -12.114  10.488  64.047  1.00  0.00     0.000 HD 
HETATM   18  O   UNL     2      -8.406  10.520  65.096  1.00  0.00    -0.164 OA 
HETATM   19  O   UNL     2     -10.016   9.351  63.930  1.00  0.00     0.889 OA 
ENDBRANCH  11  14
ENDBRANCH   8  11
ENDBRANCH   2   8
TORSDOF 4
ENDMDL
MODEL      369
REMARK 921   NORMALIZED FREE ENERGY PREDICTED BY IDOCK:   -2.05 KCAL/MOL
REMARK 922        TOTAL FREE ENERGY PREDICTED BY IDOCK:   -3.54 KCAL/MOL
REMARK 923 INTER-LIGAND FREE ENERGY PREDICTED BY IDOCK:   -2.60 KCAL/MOL
REMARK 924 INTRA-LIGAND FREE ENERGY PREDICTED BY IDOCK:   -0.94 KCAL/MOL
REMARK 927      BINDING AFFINITY PREDICTED BY RF-SCORE:    0.00 PKD
ROOT
HETATM    1  K   UNL     1     -12.290   6.675  67.114  1.00  0.00    -0.601 K  
HETATM    2  C   UNL     2      -9.127   4.893  67.047  1.00  0.00    -0.118 C  
HETATM    3  H   UNL     2     -10.760   5.586  66.175  1.00  0.00     0.000 HD 
HETATM    4  O   UNL     2     -10.496   4.769  66.580  1.00  0.00    -0.268 OA 
ENDROOT
BRANCH   2   5
HETATM    5  C   UNL     2      -8.701   3.576  67.699  1.00  0.00    -0.109 C  
HETATM    6  O   UNL     2      -9.706   3.182  68.640  1.00  0.00    -0.101 OA 
HETATM    7  H   UNL     2      -9.442   2.364  69.044  1.00  0.00     0.000 HD 
ENDBRANCH   2   5
BRANCH   2   8
HETATM    8  C   UNL     2      -8.911   6.138  67.947  1.00  0.00    -0.111 C  
HETATM    9  O   UNL     2      -7.509   6.122  68.297  1.00  0.00    -0.083 OA 
HETATM   10  H   UNL     2      -7.377   6.884  68.848  1.00  0.00     0.000 HD 
BRANCH   8  11
HETATM   11  C   UNL     2      -9.345   7.495  67.317  1.00  0.00    -0.140 C  
HETATM   12  O   UNL     2     -10.115   7.295  66.117  1.00  0.00    -0.445 OA 
HETATM   13  H   UNL     2     -10.379   8.123  65.732  1.00  0.00     0.000 HD 
BRANCH  11  14
HETATM   14  C   UNL     2      -8.189   8.470  67.036  1.00  0.00    -0.107 C  
HETATM   15  C   UNL     2      -8.707   9.851  66.543  1.00  0.00    -0.128 C  
HETATM   16  O   UNL     2      -7.256   7.910  66.093  1.00  0.00    -0.071 OA 
HETATM   17  H   UNL     2      -6.542   8.512  65.920  1.00  0.00     0.000 HD 
HETATM   18  O   UNL     2      -9.793  10.226  67.083  1.00  0.00    -0.173 OA 
HETATM   19  O   UNL     2      -8.025  10.360  65.609  1.00  0.00    -0.145 OA 
ENDBRANCH  11  14
ENDBRANCH   8  11
ENDBRANCH   2   8
TORSDOF 4
ENDMDL
MODEL      370
REMARK 921   NORMALIZED FREE ENERGY PREDICTED BY IDOCK:   -2.04 KCAL/MOL
REMARK 922        TOTAL FREE ENERGY PREDICTED BY IDOCK:   -3.53 KCAL/MOL
REMARK 923 INTER-LIGAND FREE ENERGY PREDICTED BY IDOCK:   -2.99 KCAL/MOL
REMARK 924 INTRA-LIGAND FREE ENERGY PREDICTED BY IDOCK:   -0.54 KCAL/MOL
REMARK 927      BINDING AFFINITY PREDICTED BY RF-SCORE:    0.00 PKD
ROOT
HETATM    1  K   UNL     1     -11.673   7.923  67.202  1.00  0.00    -0.452 K  
HETATM    2  C   UNL     2      -9.805  10.642  68.720  1.00  0.00    -0.191 C  
HETATM    3  H   UNL     2     -11.497   9.765  68.193  1.00  0.00     0.000 HD 
HETATM    4  O   UNL     2     -10.914  10.411  67.812  1.00  0.00    -0.273 OA 
ENDROOT
BRANCH   2   5
HETATM    5  C   UNL     2      -8.867  11.683  68.105  1.00  0.00    -0.164 C  
HETATM    6  O   UNL     2      -8.632  11.339  66.735  1.00  0.00    -0.148 OA 
HETATM    7  H   UNL     2      -8.050  11.985  66.354  1.00  0.00     0.000 HD 
ENDBRANCH   2   5
BRANCH   2   8
HETATM    8  C   UNL     2      -9.096   9.330  69.145  1.00  0.00    -0.145 C  
HETATM    9  O   UNL     2      -7.717   9.488  68.740  1.00  0.00    -0.078 OA 
HETATM   10  H   UNL     2      -7.283   8.685  69.001  1.00  0.00     0.000 HD 
BRANCH   8  11
HETATM   11  C   UNL     2      -9.227   8.964  70.654  1.00  0.00    -0.213 C  
HETATM   12  O   UNL     2      -8.023   8.348  71.151  1.00  0.00    -0.091 OA 
HETATM   13  H   UNL     2      -8.103   8.125  72.071  1.00  0.00     0.000 HD 
BRANCH  11  14
HETATM   14  C   UNL     2     -10.440   8.083  70.997  1.00  0.00    -0.203 C  
HETATM   15  C   UNL     2     -10.487   6.800  70.121  1.00  0.00    -0.209 C  
HETATM   16  O   UNL     2     -11.669   8.825  70.880  1.00  0.00    -0.282 OA 
HETATM   17  H   UNL     2     -12.418   8.281  71.092  1.00  0.00     0.000 HD 
HETATM   18  O   UNL     2      -9.348   6.308  69.852  1.00  0.00    -0.149 OA 
HETATM   19  O   UNL     2     -11.644   6.481  69.725  1.00  0.00    -0.394 OA 
ENDBRANCH  11  14
ENDBRANCH   8  11
ENDBRANCH   2   8
TORSDOF 4
ENDMDL
MODEL      371
REMARK 921   NORMALIZED FREE ENERGY PREDICTED BY IDOCK:   -2.03 KCAL/MOL
REMARK 922        TOTAL FREE ENERGY PREDICTED BY IDOCK:   -3.51 KCAL/MOL
REMARK 923 INTER-LIGAND FREE ENERGY PREDICTED BY IDOCK:   -2.75 KCAL/MOL
REMARK 924 INTRA-LIGAND FREE ENERGY PREDICTED BY IDOCK:   -0.76 KCAL/MOL
REMARK 927      BINDING AFFINITY PREDICTED BY RF-SCORE:    0.00 PKD
ROOT
HETATM    1  K   UNL     1      -8.024   7.540  66.630  1.00  0.00    -0.091 K  
HETATM    2  C   UNL     2      -9.400   6.447  69.808  1.00  0.00    -0.146 C  
HETATM    3  H   UNL     2      -8.006   7.330  68.719  1.00  0.00     0.000 HD 
HETATM    4  O   UNL     2      -8.149   6.460  69.071  1.00  0.00    -0.109 OA 
ENDROOT
BRANCH   2   5
HETATM    5  C   UNL     2      -9.631   5.045  70.374  1.00  0.00    -0.193 C  
HETATM    6  O   UNL     2     -10.251   5.163  71.660  1.00  0.00    -0.199 OA 
HETATM    7  H   UNL     2     -10.394   4.293  72.011  1.00  0.00     0.000 HD 
ENDBRANCH   2   5
BRANCH   2   8
HETATM    8  C   UNL     2     -10.591   6.993  68.977  1.00  0.00    -0.217 C  
HETATM    9  O   UNL     2     -11.740   6.223  69.398  1.00  0.00    -0.545 OA 
HETATM   10  H   UNL     2     -12.468   6.557  68.890  1.00  0.00     0.000 HD 
BRANCH   8  11
HETATM   11  C   UNL     2     -10.836   8.527  69.095  1.00  0.00    -0.029 C  
HETATM   12  O   UNL     2     -10.078   9.257  68.111  1.00  0.00    -0.171 OA 
HETATM   13  H   UNL     2     -10.227  10.192  68.184  1.00  0.00     0.000 HD 
BRANCH  11  14
HETATM   14  C   UNL     2     -10.572   9.113  70.493  1.00  0.00    -0.235 C  
HETATM   15  C   UNL     2     -11.889   9.299  71.298  1.00  0.00    -0.343 C  
HETATM   16  O   UNL     2      -9.849  10.354  70.406  1.00  0.00    -0.321 OA 
HETATM   17  H   UNL     2      -9.685  10.716  71.270  1.00  0.00     0.000 HD 
HETATM   18  O   UNL     2     -12.759   8.395  71.095  1.00  0.00    -0.239 OA 
HETATM   19  O   UNL     2     -11.944  10.368  71.967  1.00  0.00     0.084 OA 
ENDBRANCH  11  14
ENDBRANCH   8  11
ENDBRANCH   2   8
TORSDOF 4
ENDMDL
MODEL      372
REMARK 921   NORMALIZED FREE ENERGY PREDICTED BY IDOCK:   -1.98 KCAL/MOL
REMARK 922        TOTAL FREE ENERGY PREDICTED BY IDOCK:   -3.45 KCAL/MOL
REMARK 923 INTER-LIGAND FREE ENERGY PREDICTED BY IDOCK:   -4.21 KCAL/MOL
REMARK 924 INTRA-LIGAND FREE ENERGY PREDICTED BY IDOCK:    0.76 KCAL/MOL
REMARK 927      BINDING AFFINITY PREDICTED BY RF-SCORE:    0.00 PKD
ROOT
HETATM    1  K   UNL     1      -9.986  19.476  66.591  1.00  0.00    -0.288 K  
HETATM    2  C   UNL     2     -10.505  16.092  67.801  1.00  0.00    -0.298 C  
HETATM    3  H   UNL     2     -11.133  17.928  67.427  1.00  0.00     0.000 HD 
HETATM    4  O   UNL     2     -10.767  17.470  68.174  1.00  0.00    -0.381 OA 
ENDROOT
BRANCH   2   5
HETATM    5  C   UNL     2      -9.916  15.353  69.005  1.00  0.00    -0.229 C  
HETATM    6  O   UNL     2     -10.083  13.945  68.808  1.00  0.00    -0.287 OA 
HETATM    7  H   UNL     2      -9.718  13.487  69.555  1.00  0.00     0.000 HD 
ENDBRANCH   2   5
BRANCH   2   8
HETATM    8  C   UNL     2      -9.652  15.971  66.512  1.00  0.00    -0.261 C  
HETATM    9  O   UNL     2     -10.131  17.015  65.634  1.00  0.00    -0.554 OA 
HETATM   10  H   UNL     2      -9.609  16.941  64.845  1.00  0.00     0.000 HD 
BRANCH   8  11
HETATM   11  C   UNL     2      -8.111  16.045  66.726  1.00  0.00    -0.267 C  
HETATM   12  O   UNL     2      -7.718  15.381  67.944  1.00  0.00    -0.119 OA 
HETATM   13  H   UNL     2      -6.778  15.426  68.075  1.00  0.00     0.000 HD 
BRANCH  11  14
HETATM   14  C   UNL     2      -7.526  17.467  66.698  1.00  0.00    -0.245 C  
HETATM   15  C   UNL     2      -7.637  18.164  68.084  1.00  0.00    -0.265 C  
HETATM   16  O   UNL     2      -8.152  18.264  65.676  1.00  0.00    -0.477 OA 
HETATM   17  H   UNL     2      -7.791  19.142  65.658  1.00  0.00     0.000 HD 
HETATM   18  O   UNL     2      -7.479  17.386  69.075  1.00  0.00    -0.247 OA 
HETATM   19  O   UNL     2      -7.961  19.384  68.029  1.00  0.00    -0.286 OA 
ENDBRANCH  11  14
ENDBRANCH   8  11
ENDBRANCH   2   8
TORSDOF 4
ENDMDL
MODEL      373
REMARK 921   NORMALIZED FREE ENERGY PREDICTED BY IDOCK:   -1.95 KCAL/MOL
REMARK 922        TOTAL FREE ENERGY PREDICTED BY IDOCK:   -3.41 KCAL/MOL
REMARK 923 INTER-LIGAND FREE ENERGY PREDICTED BY IDOCK:   -2.50 KCAL/MOL
REMARK 924 INTRA-LIGAND FREE ENERGY PREDICTED BY IDOCK:   -0.91 KCAL/MOL
REMARK 927      BINDING AFFINITY PREDICTED BY RF-SCORE:    0.00 PKD
ROOT
HETATM    1  K   UNL     1      -6.503   6.094  64.952  1.00  0.00    -0.030 K  
HETATM    2  C   UNL     2      -8.153   5.752  68.168  1.00  0.00    -0.104 C  
HETATM    3  H   UNL     2      -6.561   5.645  67.002  1.00  0.00     0.000 HD 
HETATM    4  O   UNL     2      -7.233   5.043  67.297  1.00  0.00    -0.074 OA 
ENDROOT
BRANCH   2   5
HETATM    5  C   UNL     2      -9.237   4.782  68.644  1.00  0.00    -0.124 C  
HETATM    6  O   UNL     2      -9.855   4.184  67.499  1.00  0.00    -0.168 OA 
HETATM    7  H   UNL     2     -10.527   3.583  67.795  1.00  0.00     0.000 HD 
ENDBRANCH   2   5
BRANCH   2   8
HETATM    8  C   UNL     2      -8.710   7.049  67.525  1.00  0.00    -0.120 C  
HETATM    9  O   UNL     2      -8.829   6.758  66.114  1.00  0.00    -0.147 OA 
HETATM   10  H   UNL     2      -9.169   7.552  65.720  1.00  0.00     0.000 HD 
BRANCH   8  11
HETATM   11  C   UNL     2     -10.046   7.571  68.132  1.00  0.00    -0.183 C  
HETATM   12  O   UNL     2     -11.173   7.204  67.313  1.00  0.00    -0.591 OA 
HETATM   13  H   UNL     2     -11.988   7.523  67.684  1.00  0.00     0.000 HD 
BRANCH  11  14
HETATM   14  C   UNL     2     -10.076   9.083  68.411  1.00  0.00    -0.191 C  
HETATM   15  C   UNL     2      -9.716   9.910  67.145  1.00  0.00    -0.178 C  
HETATM   16  O   UNL     2      -9.207   9.425  69.507  1.00  0.00    -0.156 OA 
HETATM   17  H   UNL     2      -9.227  10.359  69.679  1.00  0.00     0.000 HD 
HETATM   18  O   UNL     2     -10.141   9.413  66.056  1.00  0.00    -0.300 OA 
HETATM   19  O   UNL     2      -8.973  10.908  67.368  1.00  0.00    -0.136 OA 
ENDBRANCH  11  14
ENDBRANCH   8  11
ENDBRANCH   2   8
TORSDOF 4
ENDMDL
MODEL      374
REMARK 921   NORMALIZED FREE ENERGY PREDICTED BY IDOCK:   -1.94 KCAL/MOL
REMARK 922        TOTAL FREE ENERGY PREDICTED BY IDOCK:   -3.41 KCAL/MOL
REMARK 923 INTER-LIGAND FREE ENERGY PREDICTED BY IDOCK:   -2.69 KCAL/MOL
REMARK 924 INTRA-LIGAND FREE ENERGY PREDICTED BY IDOCK:   -0.72 KCAL/MOL
REMARK 927      BINDING AFFINITY PREDICTED BY RF-SCORE:    0.00 PKD
ROOT
HETATM    1  K   UNL     1     -10.813   6.823  67.853  1.00  0.00    -0.160 K  
HETATM    2  C   UNL     2      -9.648   4.577  70.457  1.00  0.00    -0.204 C  
HETATM    3  H   UNL     2      -9.332   5.855  68.983  1.00  0.00     0.000 HD 
HETATM    4  O   UNL     2      -9.395   4.911  69.066  1.00  0.00    -0.112 OA 
ENDROOT
BRANCH   2   5
HETATM    5  C   UNL     2      -9.750   3.056  70.592  1.00  0.00    -0.051 C  
HETATM    6  O   UNL     2      -8.429   2.505  70.612  1.00  0.00    -0.048 OA 
HETATM    7  H   UNL     2      -8.492   1.562  70.695  1.00  0.00     0.000 HD 
ENDBRANCH   2   5
BRANCH   2   8
HETATM    8  C   UNL     2     -10.860   5.343  71.047  1.00  0.00    -0.119 C  
HETATM    9  O   UNL     2     -10.966   4.899  72.418  1.00  0.00    -0.180 OA 
HETATM   10  H   UNL     2     -11.708   5.367  72.780  1.00  0.00     0.000 HD 
BRANCH   8  11
HETATM   11  C   UNL     2     -10.782   6.895  70.936  1.00  0.00    -0.230 C  
HETATM   12  O   UNL     2     -11.694   7.397  69.940  1.00  0.00    -0.501 OA 
HETATM   13  H   UNL     2     -11.646   8.343  69.873  1.00  0.00     0.000 HD 
BRANCH  11  14
HETATM   14  C   UNL     2      -9.371   7.450  70.675  1.00  0.00    -0.160 C  
HETATM   15  C   UNL     2      -9.022   8.614  71.645  1.00  0.00    -0.235 C  
HETATM   16  O   UNL     2      -9.224   7.866  69.305  1.00  0.00    -0.148 OA 
HETATM   17  H   UNL     2      -8.352   8.208  69.144  1.00  0.00     0.000 HD 
HETATM   18  O   UNL     2      -9.490   8.478  72.817  1.00  0.00    -0.257 OA 
HETATM   19  O   UNL     2      -8.402   9.573  71.105  1.00  0.00    -0.285 OA 
ENDBRANCH  11  14
ENDBRANCH   8  11
ENDBRANCH   2   8
TORSDOF 4
ENDMDL
MODEL      375
REMARK 921   NORMALIZED FREE ENERGY PREDICTED BY IDOCK:   -1.93 KCAL/MOL
REMARK 922        TOTAL FREE ENERGY PREDICTED BY IDOCK:   -3.39 KCAL/MOL
REMARK 923 INTER-LIGAND FREE ENERGY PREDICTED BY IDOCK:   -2.70 KCAL/MOL
REMARK 924 INTRA-LIGAND FREE ENERGY PREDICTED BY IDOCK:   -0.69 KCAL/MOL
REMARK 927      BINDING AFFINITY PREDICTED BY RF-SCORE:    0.00 PKD
ROOT
HETATM    1  K   UNL     1     -12.122   7.830  73.125  1.00  0.00    -0.477 K  
HETATM    2  C   UNL     2      -9.199   6.931  71.167  1.00  0.00    -0.154 C  
HETATM    3  H   UNL     2     -10.443   6.651  72.677  1.00  0.00     0.000 HD 
HETATM    4  O   UNL     2      -9.617   7.101  72.547  1.00  0.00    -0.145 OA 
ENDROOT
BRANCH   2   5
HETATM    5  C   UNL     2      -7.868   7.656  70.956  1.00  0.00    -0.090 C  
HETATM    6  O   UNL     2      -6.814   6.687  70.940  1.00  0.00    -0.059 OA 
HETATM    7  H   UNL     2      -5.988   7.137  70.809  1.00  0.00     0.000 HD 
ENDBRANCH   2   5
BRANCH   2   8
HETATM    8  C   UNL     2     -10.301   7.334  70.152  1.00  0.00    -0.212 C  
HETATM    9  O   UNL     2     -11.101   8.331  70.828  1.00  0.00    -0.250 OA 
HETATM   10  H   UNL     2     -11.775   8.578  70.207  1.00  0.00     0.000 HD 
BRANCH   8  11
HETATM   11  C   UNL     2      -9.781   7.835  68.772  1.00  0.00    -0.157 C  
HETATM   12  O   UNL     2     -10.360   9.107  68.423  1.00  0.00    -0.195 OA 
HETATM   13  H   UNL     2     -10.044   9.413  67.581  1.00  0.00     0.000 HD 
BRANCH  11  14
HETATM   14  C   UNL     2      -9.974   6.841  67.614  1.00  0.00    -0.137 C  
HETATM   15  C   UNL     2      -8.614   6.321  67.068  1.00  0.00    -0.104 C  
HETATM   16  O   UNL     2     -10.758   7.424  66.556  1.00  0.00    -0.478 OA 
HETATM   17  H   UNL     2     -10.877   6.809  65.842  1.00  0.00     0.000 HD 
HETATM   18  O   UNL     2      -7.720   6.162  67.957  1.00  0.00    -0.099 OA 
HETATM   19  O   UNL     2      -8.562   6.219  65.810  1.00  0.00    -0.147 OA 
ENDBRANCH  11  14
ENDBRANCH   8  11
ENDBRANCH   2   8
TORSDOF 4
ENDMDL
MODEL      376
REMARK 921   NORMALIZED FREE ENERGY PREDICTED BY IDOCK:   -1.88 KCAL/MOL
REMARK 922        TOTAL FREE ENERGY PREDICTED BY IDOCK:   -3.33 KCAL/MOL
REMARK 923 INTER-LIGAND FREE ENERGY PREDICTED BY IDOCK:   -2.82 KCAL/MOL
REMARK 924 INTRA-LIGAND FREE ENERGY PREDICTED BY IDOCK:   -0.52 KCAL/MOL
REMARK 927      BINDING AFFINITY PREDICTED BY RF-SCORE:    0.00 PKD
ROOT
HETATM    1  K   UNL     1     -10.332   3.257  71.904  1.00  0.00    -0.154 K  
HETATM    2  C   UNL     2      -9.140   5.015  68.959  1.00  0.00    -0.105 C  
HETATM    3  H   UNL     2     -10.149   3.559  69.834  1.00  0.00     0.000 HD 
HETATM    4  O   UNL     2      -9.273   3.668  69.486  1.00  0.00    -0.124 OA 
ENDROOT
BRANCH   2   5
HETATM    5  C   UNL     2      -7.727   5.192  68.397  1.00  0.00    -0.080 C  
HETATM    6  O   UNL     2      -6.801   5.247  69.487  1.00  0.00    -0.050 OA 
HETATM    7  H   UNL     2      -5.925   5.358  69.139  1.00  0.00     0.000 HD 
ENDBRANCH   2   5
BRANCH   2   8
HETATM    8  C   UNL     2      -9.549   6.103  69.985  1.00  0.00    -0.160 C  
HETATM    9  O   UNL     2      -8.924   7.323  69.523  1.00  0.00    -0.143 OA 
HETATM   10  H   UNL     2      -9.174   7.989  70.151  1.00  0.00     0.000 HD 
BRANCH   8  11
HETATM   11  C   UNL     2     -11.083   6.273  70.197  1.00  0.00    -0.377 C  
HETATM   12  O   UNL     2     -11.674   7.060  69.145  1.00  0.00    -0.440 OA 
HETATM   13  H   UNL     2     -12.610   7.164  69.274  1.00  0.00     0.000 HD 
BRANCH  11  14
HETATM   14  C   UNL     2     -11.481   6.852  71.565  1.00  0.00    -0.277 C  
HETATM   15  C   UNL     2     -10.900   8.278  71.779  1.00  0.00    -0.267 C  
HETATM   16  O   UNL     2     -11.083   5.974  72.634  1.00  0.00    -0.246 OA 
HETATM   17  H   UNL     2     -11.330   6.332  73.479  1.00  0.00     0.000 HD 
HETATM   18  O   UNL     2     -10.859   8.990  70.728  1.00  0.00    -0.220 OA 
HETATM   19  O   UNL     2     -10.465   8.494  72.946  1.00  0.00    -0.174 OA 
ENDBRANCH  11  14
ENDBRANCH   8  11
ENDBRANCH   2   8
TORSDOF 4
ENDMDL
MODEL      377
REMARK 921   NORMALIZED FREE ENERGY PREDICTED BY IDOCK:   -1.88 KCAL/MOL
REMARK 922        TOTAL FREE ENERGY PREDICTED BY IDOCK:   -3.33 KCAL/MOL
REMARK 923 INTER-LIGAND FREE ENERGY PREDICTED BY IDOCK:   -3.14 KCAL/MOL
REMARK 924 INTRA-LIGAND FREE ENERGY PREDICTED BY IDOCK:   -0.19 KCAL/MOL
REMARK 927      BINDING AFFINITY PREDICTED BY RF-SCORE:    0.00 PKD
ROOT
HETATM    1  K   UNL     1      -9.273   7.664  64.770  1.00  0.00    -0.375 K  
HETATM    2  C   UNL     2      -8.631  10.710  66.641  1.00  0.00    -0.139 C  
HETATM    3  H   UNL     2      -9.339   9.742  65.070  1.00  0.00     0.000 HD 
HETATM    4  O   UNL     2      -8.525  10.175  65.295  1.00  0.00    -0.144 OA 
ENDROOT
BRANCH   2   5
HETATM    5  C   UNL     2      -7.319  11.409  67.004  1.00  0.00    -0.144 C  
HETATM    6  O   UNL     2      -7.501  12.823  66.880  1.00  0.00    -0.378 OA 
HETATM    7  H   UNL     2      -6.687  13.257  67.105  1.00  0.00     0.000 HD 
ENDBRANCH   2   5
BRANCH   2   8
HETATM    8  C   UNL     2      -9.083   9.646  67.674  1.00  0.00    -0.131 C  
HETATM    9  O   UNL     2      -7.983   8.715  67.777  1.00  0.00    -0.105 OA 
HETATM   10  H   UNL     2      -8.260   8.064  68.410  1.00  0.00     0.000 HD 
BRANCH   8  11
HETATM   11  C   UNL     2      -9.508  10.209  69.064  1.00  0.00    -0.190 C  
HETATM   12  O   UNL     2      -8.376  10.731  69.787  1.00  0.00    -0.367 OA 
HETATM   13  H   UNL     2      -8.635  11.074  70.634  1.00  0.00     0.000 HD 
BRANCH  11  14
HETATM   14  C   UNL     2     -10.278   9.216  69.951  1.00  0.00    -0.205 C  
HETATM   15  C   UNL     2     -11.150   9.946  71.010  1.00  0.00    -0.331 C  
HETATM   16  O   UNL     2      -9.382   8.284  70.583  1.00  0.00    -0.151 OA 
HETATM   17  H   UNL     2      -9.858   7.671  71.131  1.00  0.00     0.000 HD 
HETATM   18  O   UNL     2     -11.666  11.034  70.605  1.00  0.00    -0.329 OA 
HETATM   19  O   UNL     2     -11.147   9.404  72.151  1.00  0.00    -0.147 OA 
ENDBRANCH  11  14
ENDBRANCH   8  11
ENDBRANCH   2   8
TORSDOF 4
ENDMDL
MODEL      378
REMARK 921   NORMALIZED FREE ENERGY PREDICTED BY IDOCK:   -1.82 KCAL/MOL
REMARK 922        TOTAL FREE ENERGY PREDICTED BY IDOCK:   -3.26 KCAL/MOL
REMARK 923 INTER-LIGAND FREE ENERGY PREDICTED BY IDOCK:   -2.79 KCAL/MOL
REMARK 924 INTRA-LIGAND FREE ENERGY PREDICTED BY IDOCK:   -0.47 KCAL/MOL
REMARK 927      BINDING AFFINITY PREDICTED BY RF-SCORE:    0.00 PKD
ROOT
HETATM    1  K   UNL     1     -14.241   5.668  72.620  1.00  0.00    -0.507 K  
HETATM    2  C   UNL     2     -10.735   4.724  72.654  1.00  0.00    -0.199 C  
HETATM    3  H   UNL     2     -12.662   4.285  72.663  1.00  0.00     0.000 HD 
HETATM    4  O   UNL     2     -11.988   4.414  73.319  1.00  0.00    -0.121 OA 
ENDROOT
BRANCH   2   5
HETATM    5  C   UNL     2      -9.649   4.932  73.711  1.00  0.00    -0.129 C  
HETATM    6  O   UNL     2      -9.855   6.202  74.340  1.00  0.00    -0.218 OA 
HETATM    7  H   UNL     2      -9.181   6.331  74.996  1.00  0.00     0.000 HD 
ENDBRANCH   2   5
BRANCH   2   8
HETATM    8  C   UNL     2     -10.865   5.897  71.648  1.00  0.00    -0.263 C  
HETATM    9  O   UNL     2     -11.975   6.691  72.122  1.00  0.00    -0.336 OA 
HETATM   10  H   UNL     2     -12.055   7.409  71.505  1.00  0.00     0.000 HD 
BRANCH   8  11
HETATM   11  C   UNL     2      -9.575   6.748  71.450  1.00  0.00    -0.167 C  
HETATM   12  O   UNL     2      -9.862   8.158  71.515  1.00  0.00    -0.164 OA 
HETATM   13  H   UNL     2      -9.075   8.677  71.395  1.00  0.00     0.000 HD 
BRANCH  11  14
HETATM   14  C   UNL     2      -8.791   6.436  70.164  1.00  0.00    -0.150 C  
HETATM   15  C   UNL     2      -9.671   6.615  68.895  1.00  0.00    -0.135 C  
HETATM   16  O   UNL     2      -8.227   5.112  70.210  1.00  0.00    -0.087 OA 
HETATM   17  H   UNL     2      -7.742   4.920  69.415  1.00  0.00     0.000 HD 
HETATM   18  O   UNL     2     -10.504   7.572  68.966  1.00  0.00    -0.210 OA 
HETATM   19  O   UNL     2      -9.499   5.729  68.011  1.00  0.00    -0.108 OA 
ENDBRANCH  11  14
ENDBRANCH   8  11
ENDBRANCH   2   8
TORSDOF 4
ENDMDL
MODEL      379
REMARK 921   NORMALIZED FREE ENERGY PREDICTED BY IDOCK:   -1.82 KCAL/MOL
REMARK 922        TOTAL FREE ENERGY PREDICTED BY IDOCK:   -3.26 KCAL/MOL
REMARK 923 INTER-LIGAND FREE ENERGY PREDICTED BY IDOCK:   -2.56 KCAL/MOL
REMARK 924 INTRA-LIGAND FREE ENERGY PREDICTED BY IDOCK:   -0.70 KCAL/MOL
REMARK 927      BINDING AFFINITY PREDICTED BY RF-SCORE:    0.00 PKD
ROOT
HETATM    1  K   UNL     1      -8.584   7.260  66.395  1.00  0.00    -0.103 K  
HETATM    2  C   UNL     2      -9.980   6.369  69.626  1.00  0.00    -0.164 C  
HETATM    3  H   UNL     2      -9.326   5.907  67.819  1.00  0.00     0.000 HD 
HETATM    4  O   UNL     2     -10.168   6.106  68.211  1.00  0.00    -0.145 OA 
ENDROOT
BRANCH   2   5
HETATM    5  C   UNL     2     -11.337   6.689  70.258  1.00  0.00    -0.374 C  
HETATM    6  O   UNL     2     -11.119   7.371  71.498  1.00  0.00    -0.236 OA 
HETATM    7  H   UNL     2     -11.961   7.569  71.889  1.00  0.00     0.000 HD 
ENDBRANCH   2   5
BRANCH   2   8
HETATM    8  C   UNL     2      -8.893   7.441  69.898  1.00  0.00    -0.141 C  
HETATM    9  O   UNL     2      -7.645   6.716  69.964  1.00  0.00    -0.095 OA 
HETATM   10  H   UNL     2      -6.979   7.373  70.131  1.00  0.00     0.000 HD 
BRANCH   8  11
HETATM   11  C   UNL     2      -8.841   8.609  68.867  1.00  0.00    -0.138 C  
HETATM   12  O   UNL     2      -7.631   8.565  68.086  1.00  0.00    -0.095 OA 
HETATM   13  H   UNL     2      -7.599   9.277  67.458  1.00  0.00     0.000 HD 
BRANCH  11  14
HETATM   14  C   UNL     2      -9.015  10.011  69.477  1.00  0.00    -0.205 C  
HETATM   15  C   UNL     2      -9.036  11.116  68.383  1.00  0.00    -0.165 C  
HETATM   16  O   UNL     2      -7.993  10.281  70.454  1.00  0.00    -0.423 OA 
HETATM   17  H   UNL     2      -8.102  11.147  70.830  1.00  0.00     0.000 HD 
HETATM   18  O   UNL     2      -9.606  10.771  67.301  1.00  0.00    -0.158 OA 
HETATM   19  O   UNL     2      -8.403  12.165  68.690  1.00  0.00    -0.116 OA 
ENDBRANCH  11  14
ENDBRANCH   8  11
ENDBRANCH   2   8
TORSDOF 4
ENDMDL
MODEL      380
REMARK 921   NORMALIZED FREE ENERGY PREDICTED BY IDOCK:   -1.81 KCAL/MOL
REMARK 922        TOTAL FREE ENERGY PREDICTED BY IDOCK:   -3.25 KCAL/MOL
REMARK 923 INTER-LIGAND FREE ENERGY PREDICTED BY IDOCK:   -3.38 KCAL/MOL
REMARK 924 INTRA-LIGAND FREE ENERGY PREDICTED BY IDOCK:    0.13 KCAL/MOL
REMARK 927      BINDING AFFINITY PREDICTED BY RF-SCORE:    0.00 PKD
ROOT
HETATM    1  K   UNL     1      -8.497  11.103  70.193  1.00  0.00    -0.346 K  
HETATM    2  C   UNL     2     -10.166  12.838  67.474  1.00  0.00    -0.216 C  
HETATM    3  H   UNL     2      -9.104  12.816  69.141  1.00  0.00     0.000 HD 
HETATM    4  O   UNL     2     -10.024  12.888  68.919  1.00  0.00    -0.064 OA 
ENDROOT
BRANCH   2   5
HETATM    5  C   UNL     2     -11.650  12.953  67.116  1.00  0.00    -0.363 C  
HETATM    6  O   UNL     2     -11.835  14.105  66.286  1.00  0.00    -0.377 OA 
HETATM    7  H   UNL     2     -12.755  14.176  66.064  1.00  0.00     0.000 HD 
ENDBRANCH   2   5
BRANCH   2   8
HETATM    8  C   UNL     2      -9.462  11.608  66.844  1.00  0.00    -0.185 C  
HETATM    9  O   UNL     2      -8.446  11.216  67.796  1.00  0.00    -0.120 OA 
HETATM   10  H   UNL     2      -8.015  10.464  67.410  1.00  0.00     0.000 HD 
BRANCH   8  11
HETATM   11  C   UNL     2     -10.402  10.425  66.468  1.00  0.00    -0.224 C  
HETATM   12  O   UNL     2     -11.108   9.928  67.621  1.00  0.00    -0.420 OA 
HETATM   13  H   UNL     2     -11.682   9.206  67.392  1.00  0.00     0.000 HD 
BRANCH  11  14
HETATM   14  C   UNL     2      -9.708   9.260  65.742  1.00  0.00    -0.269 C  
HETATM   15  C   UNL     2      -9.721   7.960  66.595  1.00  0.00    -0.235 C  
HETATM   16  O   UNL     2      -8.363   9.610  65.368  1.00  0.00    -0.131 OA 
HETATM   17  H   UNL     2      -7.935   8.891  64.919  1.00  0.00     0.000 HD 
HETATM   18  O   UNL     2     -10.775   7.797  67.285  1.00  0.00    -0.307 OA 
HETATM   19  O   UNL     2      -8.646   7.298  66.552  1.00  0.00    -0.121 OA 
ENDBRANCH  11  14
ENDBRANCH   8  11
ENDBRANCH   2   8
TORSDOF 4
ENDMDL
MODEL      381
REMARK 921   NORMALIZED FREE ENERGY PREDICTED BY IDOCK:   -1.80 KCAL/MOL
REMARK 922        TOTAL FREE ENERGY PREDICTED BY IDOCK:   -3.23 KCAL/MOL
REMARK 923 INTER-LIGAND FREE ENERGY PREDICTED BY IDOCK:   -2.65 KCAL/MOL
REMARK 924 INTRA-LIGAND FREE ENERGY PREDICTED BY IDOCK:   -0.58 KCAL/MOL
REMARK 927      BINDING AFFINITY PREDICTED BY RF-SCORE:    0.00 PKD
ROOT
HETATM    1  K   UNL     1     -10.794   9.147  65.921  1.00  0.00    -0.183 K  
HETATM    2  C   UNL     2      -7.655  10.965  65.770  1.00  0.00    -0.018 C  
HETATM    3  H   UNL     2      -9.263  10.185  64.927  1.00  0.00     0.000 HD 
HETATM    4  O   UNL     2      -8.371   9.903  65.087  1.00  0.00    -0.134 OA 
ENDROOT
BRANCH   2   5
HETATM    5  C   UNL     2      -6.216  10.510  66.027  1.00  0.00    -0.123 C  
HETATM    6  O   UNL     2      -5.339  11.624  65.829  1.00  0.00    -0.497 OA 
HETATM    7  H   UNL     2      -4.446  11.342  65.988  1.00  0.00     0.000 HD 
ENDBRANCH   2   5
BRANCH   2   8
HETATM    8  C   UNL     2      -8.392  11.465  67.039  1.00  0.00    -0.161 C  
HETATM    9  O   UNL     2      -9.335  10.422  67.374  1.00  0.00    -0.145 OA 
HETATM   10  H   UNL     2      -9.786  10.728  68.151  1.00  0.00     0.000 HD 
BRANCH   8  11
HETATM   11  C   UNL     2      -7.470  11.832  68.241  1.00  0.00    -0.103 C  
HETATM   12  O   UNL     2      -7.983  11.300  69.478  1.00  0.00    -0.369 OA 
HETATM   13  H   UNL     2      -7.421  11.524  70.210  1.00  0.00     0.000 HD 
BRANCH  11  14
HETATM   14  C   UNL     2      -7.189  13.336  68.399  1.00  0.00    -0.110 C  
HETATM   15  C   UNL     2      -8.475  14.186  68.199  1.00  0.00    -0.173 C  
HETATM   16  O   UNL     2      -6.150  13.766  67.500  1.00  0.00    -0.306 OA 
HETATM   17  H   UNL     2      -5.977  14.695  67.598  1.00  0.00     0.000 HD 
HETATM   18  O   UNL     2      -9.535  13.644  68.643  1.00  0.00    -0.177 OA 
HETATM   19  O   UNL     2      -8.300  15.251  67.543  1.00  0.00    -0.154 OA 
ENDBRANCH  11  14
ENDBRANCH   8  11
ENDBRANCH   2   8
TORSDOF 4
ENDMDL
MODEL      382
REMARK 921   NORMALIZED FREE ENERGY PREDICTED BY IDOCK:   -1.78 KCAL/MOL
REMARK 922        TOTAL FREE ENERGY PREDICTED BY IDOCK:   -3.21 KCAL/MOL
REMARK 923 INTER-LIGAND FREE ENERGY PREDICTED BY IDOCK:   -2.31 KCAL/MOL
REMARK 924 INTRA-LIGAND FREE ENERGY PREDICTED BY IDOCK:   -0.89 KCAL/MOL
REMARK 927      BINDING AFFINITY PREDICTED BY RF-SCORE:    0.00 PKD
ROOT
HETATM    1  K   UNL     1      -9.767   4.402  67.175  1.00  0.00    -0.131 K  
HETATM    2  C   UNL     2     -10.028   6.950  69.748  1.00  0.00    -0.178 C  
HETATM    3  H   UNL     2      -9.317   5.246  69.044  1.00  0.00     0.000 HD 
HETATM    4  O   UNL     2     -10.048   5.507  69.591  1.00  0.00    -0.195 OA 
ENDROOT
BRANCH   2   5
HETATM    5  C   UNL     2     -11.206   7.372  70.630  1.00  0.00    -0.270 C  
HETATM    6  O   UNL     2     -10.710   8.172  71.709  1.00  0.00    -0.227 OA 
HETATM    7  H   UNL     2     -11.440   8.433  72.256  1.00  0.00     0.000 HD 
ENDBRANCH   2   5
BRANCH   2   8
HETATM    8  C   UNL     2      -9.960   7.700  68.392  1.00  0.00    -0.176 C  
HETATM    9  O   UNL     2     -10.810   8.858  68.548  1.00  0.00    -0.418 OA 
HETATM   10  H   UNL     2     -10.768   9.317  67.719  1.00  0.00     0.000 HD 
BRANCH   8  11
HETATM   11  C   UNL     2      -8.526   8.083  67.918  1.00  0.00    -0.125 C  
HETATM   12  O   UNL     2      -8.520   9.352  67.236  1.00  0.00    -0.123 OA 
HETATM   13  H   UNL     2      -7.646   9.586  66.946  1.00  0.00     0.000 HD 
BRANCH  11  14
HETATM   14  C   UNL     2      -7.834   7.022  67.045  1.00  0.00    -0.108 C  
HETATM   15  C   UNL     2      -8.513   6.888  65.653  1.00  0.00    -0.136 C  
HETATM   16  O   UNL     2      -7.791   5.748  67.715  1.00  0.00    -0.096 OA 
HETATM   17  H   UNL     2      -7.363   5.093  67.176  1.00  0.00     0.000 HD 
HETATM   18  O   UNL     2      -8.946   7.982  65.174  1.00  0.00     0.019 OA 
HETATM   19  O   UNL     2      -8.622   5.700  65.238  1.00  0.00    -0.149 OA 
ENDBRANCH  11  14
ENDBRANCH   8  11
ENDBRANCH   2   8
TORSDOF 4
ENDMDL
MODEL      383
REMARK 921   NORMALIZED FREE ENERGY PREDICTED BY IDOCK:   -1.72 KCAL/MOL
REMARK 922        TOTAL FREE ENERGY PREDICTED BY IDOCK:   -3.14 KCAL/MOL
REMARK 923 INTER-LIGAND FREE ENERGY PREDICTED BY IDOCK:   -2.35 KCAL/MOL
REMARK 924 INTRA-LIGAND FREE ENERGY PREDICTED BY IDOCK:   -0.79 KCAL/MOL
REMARK 927      BINDING AFFINITY PREDICTED BY RF-SCORE:    0.00 PKD
ROOT
HETATM    1  K   UNL     1     -11.072   3.292  64.495  1.00  0.00    -0.378 K  
HETATM    2  C   UNL     2      -8.886   4.974  66.855  1.00  0.00    -0.106 C  
HETATM    3  H   UNL     2      -9.517   3.361  65.904  1.00  0.00     0.000 HD 
HETATM    4  O   UNL     2      -9.702   3.779  66.736  1.00  0.00    -0.208 OA 
ENDROOT
BRANCH   2   5
HETATM    5  C   UNL     2      -9.183   5.649  68.196  1.00  0.00    -0.110 C  
HETATM    6  O   UNL     2     -10.575   5.494  68.491  1.00  0.00    -0.193 OA 
HETATM    7  H   UNL     2     -10.760   5.912  69.323  1.00  0.00     0.000 HD 
ENDBRANCH   2   5
BRANCH   2   8
HETATM    8  C   UNL     2      -9.023   5.919  65.633  1.00  0.00    -0.087 C  
HETATM    9  O   UNL     2     -10.040   6.878  65.999  1.00  0.00    -0.392 OA 
HETATM   10  H   UNL     2     -10.125   7.456  65.251  1.00  0.00     0.000 HD 
BRANCH   8  11
HETATM   11  C   UNL     2      -7.703   6.608  65.174  1.00  0.00    -0.101 C  
HETATM   12  O   UNL     2      -7.219   7.529  66.170  1.00  0.00    -0.071 OA 
HETATM   13  H   UNL     2      -6.414   7.950  65.890  1.00  0.00     0.000 HD 
BRANCH  11  14
HETATM   14  C   UNL     2      -7.788   7.315  63.811  1.00  0.00    -0.109 C  
HETATM   15  C   UNL     2      -6.393   7.797  63.324  1.00  0.00    -0.067 C  
HETATM   16  O   UNL     2      -8.720   8.411  63.853  1.00  0.00    -0.408 OA 
HETATM   17  H   UNL     2      -8.773   8.847  63.010  1.00  0.00     0.000 HD 
HETATM   18  O   UNL     2      -5.435   7.019  63.625  1.00  0.00    -0.031 OA 
HETATM   19  O   UNL     2      -6.396   8.937  62.780  1.00  0.00    -0.091 OA 
ENDBRANCH  11  14
ENDBRANCH   8  11
ENDBRANCH   2   8
TORSDOF 4
ENDMDL
MODEL      384
REMARK 921   NORMALIZED FREE ENERGY PREDICTED BY IDOCK:   -1.72 KCAL/MOL
REMARK 922        TOTAL FREE ENERGY PREDICTED BY IDOCK:   -3.14 KCAL/MOL
REMARK 923 INTER-LIGAND FREE ENERGY PREDICTED BY IDOCK:   -2.76 KCAL/MOL
REMARK 924 INTRA-LIGAND FREE ENERGY PREDICTED BY IDOCK:   -0.38 KCAL/MOL
REMARK 927      BINDING AFFINITY PREDICTED BY RF-SCORE:    0.00 PKD
ROOT
HETATM    1  K   UNL     1      -9.076   6.316  66.594  1.00  0.00    -0.120 K  
HETATM    2  C   UNL     2      -8.964   5.108  70.016  1.00  0.00    -0.122 C  
HETATM    3  H   UNL     2      -8.650   4.892  68.077  1.00  0.00     0.000 HD 
HETATM    4  O   UNL     2      -9.346   4.674  68.684  1.00  0.00    -0.121 OA 
ENDROOT
BRANCH   2   5
HETATM    5  C   UNL     2     -10.086   4.756  70.995  1.00  0.00    -0.199 C  
HETATM    6  O   UNL     2      -9.966   5.591  72.152  1.00  0.00    -0.171 OA 
HETATM    7  H   UNL     2     -10.662   5.373  72.760  1.00  0.00     0.000 HD 
ENDBRANCH   2   5
BRANCH   2   8
HETATM    8  C   UNL     2      -8.534   6.597  70.061  1.00  0.00    -0.139 C  
HETATM    9  O   UNL     2      -7.093   6.586  69.951  1.00  0.00    -0.064 OA 
HETATM   10  H   UNL     2      -6.830   7.498  69.979  1.00  0.00     0.000 HD 
BRANCH   8  11
HETATM   11  C   UNL     2      -9.199   7.512  68.990  1.00  0.00    -0.146 C  
HETATM   12  O   UNL     2      -8.412   8.695  68.749  1.00  0.00    -0.127 OA 
HETATM   13  H   UNL     2      -8.817   9.253  68.096  1.00  0.00     0.000 HD 
BRANCH  11  14
HETATM   14  C   UNL     2     -10.653   7.910  69.298  1.00  0.00    -0.188 C  
HETATM   15  C   UNL     2     -10.810   8.439  70.751  1.00  0.00    -0.224 C  
HETATM   16  O   UNL     2     -11.552   6.812  69.056  1.00  0.00    -0.587 OA 
HETATM   17  H   UNL     2     -12.449   7.058  69.245  1.00  0.00     0.000 HD 
HETATM   18  O   UNL     2      -9.819   9.113  71.173  1.00  0.00    -0.270 OA 
HETATM   19  O   UNL     2     -11.857   8.047  71.338  1.00  0.00    -0.283 OA 
ENDBRANCH  11  14
ENDBRANCH   8  11
ENDBRANCH   2   8
TORSDOF 4
ENDMDL
MODEL      385
REMARK 921   NORMALIZED FREE ENERGY PREDICTED BY IDOCK:   -1.59 KCAL/MOL
REMARK 922        TOTAL FREE ENERGY PREDICTED BY IDOCK:   -2.97 KCAL/MOL
REMARK 923 INTER-LIGAND FREE ENERGY PREDICTED BY IDOCK:   -2.28 KCAL/MOL
REMARK 924 INTRA-LIGAND FREE ENERGY PREDICTED BY IDOCK:   -0.68 KCAL/MOL
REMARK 927      BINDING AFFINITY PREDICTED BY RF-SCORE:    0.00 PKD
ROOT
HETATM    1  K   UNL     1     -11.080   3.023  64.827  1.00  0.00    -0.412 K  
HETATM    2  C   UNL     2      -8.166   3.408  66.959  1.00  0.00    -0.091 C  
HETATM    3  H   UNL     2      -9.677   2.356  66.240  1.00  0.00     0.000 HD 
HETATM    4  O   UNL     2      -9.528   2.906  66.999  1.00  0.00    -0.145 OA 
ENDROOT
BRANCH   2   5
HETATM    5  C   UNL     2      -7.926   4.295  68.183  1.00  0.00    -0.078 C  
HETATM    6  O   UNL     2      -6.571   4.127  68.614  1.00  0.00    -0.043 OA 
HETATM    7  H   UNL     2      -6.422   4.677  69.373  1.00  0.00     0.000 HD 
ENDBRANCH   2   5
BRANCH   2   8
HETATM    8  C   UNL     2      -7.818   4.090  65.611  1.00  0.00    -0.090 C  
HETATM    9  O   UNL     2      -7.909   3.046  64.616  1.00  0.00    -0.077 OA 
HETATM   10  H   UNL     2      -7.696   3.463  63.790  1.00  0.00     0.000 HD 
BRANCH   8  11
HETATM   11  C   UNL     2      -8.691   5.327  65.248  1.00  0.00    -0.151 C  
HETATM   12  O   UNL     2      -9.956   4.929  64.683  1.00  0.00    -0.370 OA 
HETATM   13  H   UNL     2     -10.489   5.684  64.461  1.00  0.00     0.000 HD 
BRANCH  11  14
HETATM   14  C   UNL     2      -8.007   6.347  64.321  1.00  0.00    -0.102 C  
HETATM   15  C   UNL     2      -8.005   7.774  64.937  1.00  0.00    -0.139 C  
HETATM   16  O   UNL     2      -8.619   6.355  63.018  1.00  0.00    -0.338 OA 
HETATM   17  H   UNL     2      -8.196   6.984  62.446  1.00  0.00     0.000 HD 
HETATM   18  O   UNL     2      -7.859   7.800  66.198  1.00  0.00    -0.089 OA 
HETATM   19  O   UNL     2      -8.241   8.699  64.109  1.00  0.00    -0.160 OA 
ENDBRANCH  11  14
ENDBRANCH   8  11
ENDBRANCH   2   8
TORSDOF 4
ENDMDL
MODEL      386
REMARK 921   NORMALIZED FREE ENERGY PREDICTED BY IDOCK:   -1.52 KCAL/MOL
REMARK 922        TOTAL FREE ENERGY PREDICTED BY IDOCK:   -2.89 KCAL/MOL
REMARK 923 INTER-LIGAND FREE ENERGY PREDICTED BY IDOCK:   -2.65 KCAL/MOL
REMARK 924 INTRA-LIGAND FREE ENERGY PREDICTED BY IDOCK:   -0.25 KCAL/MOL
REMARK 927      BINDING AFFINITY PREDICTED BY RF-SCORE:    0.00 PKD
ROOT
HETATM    1  K   UNL     1     -12.269   6.605  68.396  1.00  0.00    -0.528 K  
HETATM    2  C   UNL     2      -8.718   6.142  67.794  1.00  0.00    -0.112 C  
HETATM    3  H   UNL     2     -10.581   6.360  67.171  1.00  0.00     0.000 HD 
HETATM    4  O   UNL     2     -10.006   5.629  67.363  1.00  0.00    -0.133 OA 
ENDROOT
BRANCH   2   5
HETATM    5  C   UNL     2      -7.791   4.964  68.104  1.00  0.00    -0.083 C  
HETATM    6  O   UNL     2      -7.433   4.324  66.874  1.00  0.00    -0.078 OA 
HETATM    7  H   UNL     2      -6.858   3.593  67.066  1.00  0.00     0.000 HD 
ENDBRANCH   2   5
BRANCH   2   8
HETATM    8  C   UNL     2      -8.837   7.167  68.951  1.00  0.00    -0.130 C  
HETATM    9  O   UNL     2      -7.657   6.974  69.762  1.00  0.00    -0.098 OA 
HETATM   10  H   UNL     2      -7.730   7.602  70.470  1.00  0.00     0.000 HD 
BRANCH   8  11
HETATM   11  C   UNL     2      -9.009   8.651  68.508  1.00  0.00    -0.139 C  
HETATM   12  O   UNL     2      -7.790   9.397  68.687  1.00  0.00    -0.087 OA 
HETATM   13  H   UNL     2      -7.894  10.302  68.417  1.00  0.00     0.000 HD 
BRANCH  11  14
HETATM   14  C   UNL     2     -10.175   9.392  69.184  1.00  0.00    -0.202 C  
HETATM   15  C   UNL     2     -10.857  10.399  68.215  1.00  0.00    -0.254 C  
HETATM   16  O   UNL     2      -9.740  10.056  70.385  1.00  0.00    -0.381 OA 
HETATM   17  H   UNL     2     -10.461  10.513  70.802  1.00  0.00     0.000 HD 
HETATM   18  O   UNL     2     -10.911  10.009  67.007  1.00  0.00    -0.215 OA 
HETATM   19  O   UNL     2     -11.177  11.499  68.747  1.00  0.00    -0.207 OA 
ENDBRANCH  11  14
ENDBRANCH   8  11
ENDBRANCH   2   8
TORSDOF 4
ENDMDL
MODEL      387
REMARK 921   NORMALIZED FREE ENERGY PREDICTED BY IDOCK:   -1.33 KCAL/MOL
REMARK 922        TOTAL FREE ENERGY PREDICTED BY IDOCK:   -2.65 KCAL/MOL
REMARK 923 INTER-LIGAND FREE ENERGY PREDICTED BY IDOCK:   -1.96 KCAL/MOL
REMARK 924 INTRA-LIGAND FREE ENERGY PREDICTED BY IDOCK:   -0.69 KCAL/MOL
REMARK 927      BINDING AFFINITY PREDICTED BY RF-SCORE:    0.00 PKD
ROOT
HETATM    1  K   UNL     1      -7.857  10.498  68.874  1.00  0.00    -0.077 K  
HETATM    2  C   UNL     2      -7.086   8.998  65.658  1.00  0.00    -0.081 C  
HETATM    3  H   UNL     2      -6.660  10.189  67.177  1.00  0.00     0.000 HD 
HETATM    4  O   UNL     2      -7.074  10.286  66.328  1.00  0.00    -0.103 OA 
ENDROOT
BRANCH   2   5
HETATM    5  C   UNL     2      -7.754   9.155  64.290  1.00  0.00    -0.120 C  
HETATM    6  O   UNL     2      -6.988   8.435  63.318  1.00  0.00    -0.088 OA 
HETATM    7  H   UNL     2      -7.402   8.532  62.470  1.00  0.00     0.000 HD 
ENDBRANCH   2   5
BRANCH   2   8
HETATM    8  C   UNL     2      -7.700   7.874  66.532  1.00  0.00    -0.097 C  
HETATM    9  O   UNL     2      -7.991   8.490  67.806  1.00  0.00    -0.105 OA 
HETATM   10  H   UNL     2      -8.367   7.802  68.341  1.00  0.00     0.000 HD 
BRANCH   8  11
HETATM   11  C   UNL     2      -8.947   7.166  65.923  1.00  0.00    -0.065 C  
HETATM   12  O   UNL     2     -10.171   7.727  66.435  1.00  0.00    -0.474 OA 
HETATM   13  H   UNL     2     -10.932   7.295  66.064  1.00  0.00     0.000 HD 
BRANCH  11  14
HETATM   14  C   UNL     2      -8.965   5.637  66.093  1.00  0.00    -0.151 C  
HETATM   15  C   UNL     2      -8.825   4.904  64.729  1.00  0.00    -0.147 C  
HETATM   16  O   UNL     2     -10.152   5.207  66.784  1.00  0.00    -0.182 OA 
HETATM   17  H   UNL     2     -10.163   4.263  66.889  1.00  0.00     0.000 HD 
HETATM   18  O   UNL     2      -8.060   5.484  63.899  1.00  0.00    -0.114 OA 
HETATM   19  O   UNL     2      -9.564   3.886  64.607  1.00  0.00    -0.153 OA 
ENDBRANCH  11  14
ENDBRANCH   8  11
ENDBRANCH   2   8
TORSDOF 4
ENDMDL
