MODEL        1
REMARK 921   NORMALIZED FREE ENERGY PREDICTED BY IDOCK:   -5.72 KCAL/MOL
REMARK 922        TOTAL FREE ENERGY PREDICTED BY IDOCK:   -8.91 KCAL/MOL
REMARK 923 INTER-LIGAND FREE ENERGY PREDICTED BY IDOCK:   -8.07 KCAL/MOL
REMARK 924 INTRA-LIGAND FREE ENERGY PREDICTED BY IDOCK:   -0.84 KCAL/MOL
REMARK 927      BINDING AFFINITY PREDICTED BY RF-SCORE:    0.00 PKD
ROOT
HETATM    1  C   UNL     1      -9.567   9.536  65.356  1.00  0.00    -0.342 C  
HETATM    2  C   UNL     1      -9.396  10.410  64.113  1.00  0.00    -0.277 C  
HETATM    3  C   UNL     1      -8.836   9.568  62.964  1.00  0.00    -0.242 C  
ENDROOT
BRANCH   2   4
HETATM    4  N   UNL     1     -10.700  10.983  63.780  1.00  0.00    -0.542 NA 
HETATM    5  H   UNL     1     -11.417  10.644  64.421  1.00  0.00     0.000 HD 
BRANCH   4   6
HETATM    6  C   UNL     1     -10.702  12.449  63.729  1.00  0.00    -0.451 C  
BRANCH   6   7
HETATM    7  C   UNL     1     -12.147  12.965  63.812  1.00  0.00    -0.508 C  
HETATM    8  H   UNL     1     -13.928  12.377  63.199  1.00  0.00     0.000 HD 
HETATM    9  O   UNL     1     -13.035  12.057  63.148  1.00  0.00    -0.662 OA 
BRANCH   7  10
HETATM   10  C   UNL     1     -12.579  13.163  65.265  1.00  0.00    -0.472 C  
BRANCH  10  11
HETATM   11  O   UNL     1     -11.967  12.186  66.127  1.00  0.00    -0.593 OA 
BRANCH  11  12
HETATM   12  C   UNL     1     -11.891  12.574  67.445  1.00  0.00    -0.312 A  
HETATM   13  C   UNL     1     -11.840  11.691  68.517  1.00  0.00    -0.357 A  
HETATM   14  C   UNL     1     -11.837  12.152  69.829  1.00  0.00    -0.397 A  
HETATM   15  C   UNL     1     -11.862  13.518  70.109  1.00  0.00    -0.278 A  
HETATM   16  C   UNL     1     -11.882  13.946  67.708  1.00  0.00    -0.415 A  
HETATM   17  C   UNL     1     -11.872  14.418  69.034  1.00  0.00    -0.358 A  
BRANCH  15  18
HETATM   18  N   UNL     1     -11.920  14.009  71.432  1.00  0.00    -0.404 N  
HETATM   19  H   UNL     1     -11.037  14.116  71.929  1.00  0.00     0.000 HD 
HETATM   20  C   UNL     1     -13.077  14.357  72.115  1.00  0.00    -0.366 C  
HETATM   21  O   UNL     1     -14.231  14.136  71.769  1.00  0.00    -0.436 OA 
HETATM   22  C   UNL     1     -12.811  15.049  73.424  1.00  0.00    -0.652 C  
ENDBRANCH  15  18
ENDBRANCH  11  12
ENDBRANCH  10  11
ENDBRANCH   7  10
ENDBRANCH   6   7
ENDBRANCH   4   6
ENDBRANCH   2   4
TORSDOF 7
ENDMDL
MODEL        2
REMARK 921   NORMALIZED FREE ENERGY PREDICTED BY IDOCK:   -5.67 KCAL/MOL
REMARK 922        TOTAL FREE ENERGY PREDICTED BY IDOCK:   -8.83 KCAL/MOL
REMARK 923 INTER-LIGAND FREE ENERGY PREDICTED BY IDOCK:   -8.02 KCAL/MOL
REMARK 924 INTRA-LIGAND FREE ENERGY PREDICTED BY IDOCK:   -0.82 KCAL/MOL
REMARK 927      BINDING AFFINITY PREDICTED BY RF-SCORE:    0.00 PKD
ROOT
HETATM    1  C   UNL     1     -11.080  10.397  68.935  1.00  0.00    -0.296 C  
HETATM    2  C   UNL     1     -10.538  10.618  67.522  1.00  0.00    -0.252 C  
HETATM    3  C   UNL     1     -10.137   9.274  66.909  1.00  0.00    -0.324 C  
ENDROOT
BRANCH   2   4
HETATM    4  N   UNL     1     -11.578  11.284  66.737  1.00  0.00    -0.394 NA 
HETATM    5  H   UNL     1     -12.132  11.904  67.326  1.00  0.00     0.000 HD 
BRANCH   4   6
HETATM    6  C   UNL     1     -11.060  12.004  65.569  1.00  0.00    -0.313 C  
BRANCH   6   7
HETATM    7  C   UNL     1     -12.102  13.029  65.094  1.00  0.00    -0.433 C  
HETATM    8  H   UNL     1     -13.895  12.991  64.270  1.00  0.00     0.000 HD 
HETATM    9  O   UNL     1     -13.251  12.358  64.564  1.00  0.00    -0.834 OA 
BRANCH   7  10
HETATM   10  C   UNL     1     -12.512  13.966  66.232  1.00  0.00    -0.409 C  
BRANCH  10  11
HETATM   11  O   UNL     1     -11.369  14.649  66.779  1.00  0.00    -0.339 OA 
BRANCH  11  12
HETATM   12  C   UNL     1     -11.466  14.906  68.128  1.00  0.00    -0.330 A  
HETATM   13  C   UNL     1     -11.038  16.083  68.730  1.00  0.00    -0.338 A  
HETATM   14  C   UNL     1     -11.101  16.248  70.109  1.00  0.00    -0.346 A  
HETATM   15  C   UNL     1     -11.618  15.245  70.929  1.00  0.00    -0.343 A  
HETATM   16  C   UNL     1     -12.018  13.905  68.931  1.00  0.00    -0.393 A  
HETATM   17  C   UNL     1     -12.090  14.070  70.327  1.00  0.00    -0.425 A  
BRANCH  15  18
HETATM   18  N   UNL     1     -11.636  15.366  72.336  1.00  0.00    -0.461 N  
HETATM   19  H   UNL     1     -10.769  15.162  72.833  1.00  0.00     0.000 HD 
HETATM   20  C   UNL     1     -12.732  15.737  73.102  1.00  0.00    -0.507 C  
HETATM   21  O   UNL     1     -13.892  15.845  72.723  1.00  0.00    -0.584 OA 
HETATM   22  C   UNL     1     -12.394  15.988  74.545  1.00  0.00    -0.698 C  
ENDBRANCH  15  18
ENDBRANCH  11  12
ENDBRANCH  10  11
ENDBRANCH   7  10
ENDBRANCH   6   7
ENDBRANCH   4   6
ENDBRANCH   2   4
TORSDOF 7
ENDMDL
MODEL        3
REMARK 921   NORMALIZED FREE ENERGY PREDICTED BY IDOCK:   -5.67 KCAL/MOL
REMARK 922        TOTAL FREE ENERGY PREDICTED BY IDOCK:   -8.83 KCAL/MOL
REMARK 923 INTER-LIGAND FREE ENERGY PREDICTED BY IDOCK:   -8.09 KCAL/MOL
REMARK 924 INTRA-LIGAND FREE ENERGY PREDICTED BY IDOCK:   -0.74 KCAL/MOL
REMARK 927      BINDING AFFINITY PREDICTED BY RF-SCORE:    0.00 PKD
ROOT
HETATM    1  C   UNL     1     -10.201  10.872  64.199  1.00  0.00    -0.424 C  
HETATM    2  C   UNL     1     -10.769  12.061  63.423  1.00  0.00    -0.417 C  
HETATM    3  C   UNL     1     -12.299  12.007  63.444  1.00  0.00    -0.635 C  
ENDROOT
BRANCH   2   4
HETATM    4  N   UNL     1     -10.261  13.288  64.038  1.00  0.00    -0.758 NA 
HETATM    5  H   UNL     1      -9.471  13.656  63.509  1.00  0.00     0.000 HD 
BRANCH   4   6
HETATM    6  C   UNL     1     -11.287  14.320  64.223  1.00  0.00    -0.184 C  
BRANCH   6   7
HETATM    7  C   UNL     1     -10.688  15.507  64.994  1.00  0.00    -0.441 C  
HETATM    8  H   UNL     1     -10.915  17.467  65.032  1.00  0.00     0.000 HD 
HETATM    9  O   UNL     1     -11.286  16.733  64.556  1.00  0.00    -0.997 OA 
BRANCH   7  10
HETATM   10  C   UNL     1     -10.874  15.334  66.502  1.00  0.00    -0.311 C  
BRANCH  10  11
HETATM   11  O   UNL     1     -12.085  14.611  66.796  1.00  0.00    -0.353 OA 
BRANCH  11  12
HETATM   12  C   UNL     1     -11.919  13.595  67.710  1.00  0.00    -0.352 A  
HETATM   13  C   UNL     1     -11.660  12.274  67.368  1.00  0.00    -0.425 A  
HETATM   14  C   UNL     1     -11.574  11.284  68.341  1.00  0.00    -0.378 A  
HETATM   15  C   UNL     1     -11.723  11.592  69.694  1.00  0.00    -0.351 A  
HETATM   16  C   UNL     1     -12.037  13.927  69.062  1.00  0.00    -0.365 A  
HETATM   17  C   UNL     1     -11.944  12.930  70.051  1.00  0.00    -0.380 A  
BRANCH  15  18
HETATM   18  N   UNL     1     -11.700  10.595  70.693  1.00  0.00    -0.342 N  
HETATM   19  H   UNL     1     -12.518  10.522  71.298  1.00  0.00     0.000 HD 
HETATM   20  C   UNL     1     -10.660   9.706  70.925  1.00  0.00    -0.316 C  
HETATM   21  O   UNL     1      -9.536   9.745  70.439  1.00  0.00    -0.252 OA 
HETATM   22  C   UNL     1     -11.009   8.624  71.910  1.00  0.00    -0.412 C  
ENDBRANCH  15  18
ENDBRANCH  11  12
ENDBRANCH  10  11
ENDBRANCH   7  10
ENDBRANCH   6   7
ENDBRANCH   4   6
ENDBRANCH   2   4
TORSDOF 7
ENDMDL
MODEL        4
REMARK 921   NORMALIZED FREE ENERGY PREDICTED BY IDOCK:   -5.66 KCAL/MOL
REMARK 922        TOTAL FREE ENERGY PREDICTED BY IDOCK:   -8.82 KCAL/MOL
REMARK 923 INTER-LIGAND FREE ENERGY PREDICTED BY IDOCK:   -8.18 KCAL/MOL
REMARK 924 INTRA-LIGAND FREE ENERGY PREDICTED BY IDOCK:   -0.65 KCAL/MOL
REMARK 927      BINDING AFFINITY PREDICTED BY RF-SCORE:    0.00 PKD
ROOT
HETATM    1  C   UNL     1     -10.273  10.934  64.298  1.00  0.00    -0.430 C  
HETATM    2  C   UNL     1     -10.820  12.117  63.497  1.00  0.00    -0.458 C  
HETATM    3  C   UNL     1     -12.350  12.111  63.550  1.00  0.00    -0.682 C  
ENDROOT
BRANCH   2   4
HETATM    4  N   UNL     1     -10.263  13.345  64.065  1.00  0.00    -0.752 NA 
HETATM    5  H   UNL     1      -9.533  13.722  63.461  1.00  0.00     0.000 HD 
BRANCH   4   6
HETATM    6  C   UNL     1     -11.273  14.367  64.357  1.00  0.00    -0.222 C  
BRANCH   6   7
HETATM    7  C   UNL     1     -10.606  15.565  65.052  1.00  0.00    -0.409 C  
HETATM    8  H   UNL     1     -10.728  17.533  64.974  1.00  0.00     0.000 HD 
HETATM    9  O   UNL     1     -11.141  16.793  64.545  1.00  0.00    -0.989 OA 
BRANCH   7  10
HETATM   10  C   UNL     1     -10.788  15.493  66.569  1.00  0.00    -0.284 C  
BRANCH  10  11
HETATM   11  O   UNL     1     -12.019  14.830  66.914  1.00  0.00    -0.334 OA 
BRANCH  11  12
HETATM   12  C   UNL     1     -11.865  13.801  67.815  1.00  0.00    -0.369 A  
HETATM   13  C   UNL     1     -12.081  13.923  69.182  1.00  0.00    -0.377 A  
HETATM   14  C   UNL     1     -11.838  12.861  70.046  1.00  0.00    -0.356 A  
HETATM   15  C   UNL     1     -11.390  11.631  69.562  1.00  0.00    -0.260 A  
HETATM   16  C   UNL     1     -11.450  12.566  67.310  1.00  0.00    -0.416 A  
HETATM   17  C   UNL     1     -11.208  11.486  68.179  1.00  0.00    -0.335 A  
BRANCH  15  18
HETATM   18  N   UNL     1     -11.078  10.558  70.425  1.00  0.00    -0.409 N  
HETATM   19  H   UNL     1     -10.094  10.318  70.534  1.00  0.00     0.000 HD 
HETATM   20  C   UNL     1     -11.997   9.800  71.138  1.00  0.00    -0.376 C  
HETATM   21  O   UNL     1     -13.216   9.807  71.008  1.00  0.00    -0.353 OA 
HETATM   22  C   UNL     1     -11.360   8.873  72.135  1.00  0.00    -0.369 C  
ENDBRANCH  15  18
ENDBRANCH  11  12
ENDBRANCH  10  11
ENDBRANCH   7  10
ENDBRANCH   6   7
ENDBRANCH   4   6
ENDBRANCH   2   4
TORSDOF 7
ENDMDL
MODEL        5
REMARK 921   NORMALIZED FREE ENERGY PREDICTED BY IDOCK:   -5.66 KCAL/MOL
REMARK 922        TOTAL FREE ENERGY PREDICTED BY IDOCK:   -8.82 KCAL/MOL
REMARK 923 INTER-LIGAND FREE ENERGY PREDICTED BY IDOCK:   -8.19 KCAL/MOL
REMARK 924 INTRA-LIGAND FREE ENERGY PREDICTED BY IDOCK:   -0.63 KCAL/MOL
REMARK 927      BINDING AFFINITY PREDICTED BY RF-SCORE:    0.00 PKD
ROOT
HETATM    1  C   UNL     1     -10.831  11.230  65.000  1.00  0.00    -0.285 C  
HETATM    2  C   UNL     1     -10.243  12.082  63.874  1.00  0.00    -0.398 C  
HETATM    3  C   UNL     1      -9.572  11.177  62.838  1.00  0.00    -0.373 C  
ENDROOT
BRANCH   2   4
HETATM    4  N   UNL     1     -11.329  12.867  63.286  1.00  0.00    -0.732 NA 
HETATM    5  H   UNL     1     -11.979  12.263  62.783  1.00  0.00     0.000 HD 
BRANCH   4   6
HETATM    6  C   UNL     1     -12.043  13.701  64.258  1.00  0.00    -0.434 C  
BRANCH   6   7
HETATM    7  C   UNL     1     -11.307  15.040  64.425  1.00  0.00    -0.198 C  
HETATM    8  H   UNL     1     -11.633  16.934  63.977  1.00  0.00     0.000 HD 
HETATM    9  O   UNL     1     -12.089  16.107  63.873  1.00  0.00    -0.956 OA 
BRANCH   7  10
HETATM   10  C   UNL     1     -10.994  15.316  65.896  1.00  0.00    -0.325 C  
BRANCH  10  11
HETATM   11  O   UNL     1     -11.295  14.171  66.716  1.00  0.00    -0.319 OA 
BRANCH  11  12
HETATM   12  C   UNL     1     -11.435  14.463  68.053  1.00  0.00    -0.310 A  
HETATM   13  C   UNL     1     -10.991  15.640  68.645  1.00  0.00    -0.294 A  
HETATM   14  C   UNL     1     -11.101  15.840  70.016  1.00  0.00    -0.348 A  
HETATM   15  C   UNL     1     -11.682  14.874  70.838  1.00  0.00    -0.323 A  
HETATM   16  C   UNL     1     -12.051  13.500  68.857  1.00  0.00    -0.315 A  
HETATM   17  C   UNL     1     -12.170  13.701  70.245  1.00  0.00    -0.423 A  
BRANCH  15  18
HETATM   18  N   UNL     1     -11.750  15.029  72.240  1.00  0.00    -0.365 N  
HETATM   19  H   UNL     1     -10.932  14.747  72.780  1.00  0.00     0.000 HD 
HETATM   20  C   UNL     1     -12.833  15.530  72.947  1.00  0.00    -0.457 C  
HETATM   21  O   UNL     1     -13.958  15.751  72.513  1.00  0.00    -0.545 OA 
HETATM   22  C   UNL     1     -12.535  15.779  74.400  1.00  0.00    -0.790 C  
ENDBRANCH  15  18
ENDBRANCH  11  12
ENDBRANCH  10  11
ENDBRANCH   7  10
ENDBRANCH   6   7
ENDBRANCH   4   6
ENDBRANCH   2   4
TORSDOF 7
ENDMDL
MODEL        6
REMARK 921   NORMALIZED FREE ENERGY PREDICTED BY IDOCK:   -5.53 KCAL/MOL
REMARK 922        TOTAL FREE ENERGY PREDICTED BY IDOCK:   -8.63 KCAL/MOL
REMARK 923 INTER-LIGAND FREE ENERGY PREDICTED BY IDOCK:   -7.87 KCAL/MOL
REMARK 924 INTRA-LIGAND FREE ENERGY PREDICTED BY IDOCK:   -0.76 KCAL/MOL
REMARK 927      BINDING AFFINITY PREDICTED BY RF-SCORE:    0.00 PKD
ROOT
HETATM    1  C   UNL     1     -14.114  14.235  72.208  1.00  0.00    -0.621 C  
HETATM    2  C   UNL     1     -13.457  15.494  71.639  1.00  0.00    -0.494 C  
HETATM    3  C   UNL     1     -12.155  15.780  72.391  1.00  0.00    -0.588 C  
ENDROOT
BRANCH   2   4
HETATM    4  N   UNL     1     -13.222  15.276  70.211  1.00  0.00    -0.678 NA 
HETATM    5  H   UNL     1     -13.490  16.099  69.672  1.00  0.00     0.000 HD 
BRANCH   4   6
HETATM    6  C   UNL     1     -11.846  14.876  69.898  1.00  0.00    -0.311 C  
BRANCH   6   7
HETATM    7  C   UNL     1     -11.849  13.930  68.686  1.00  0.00    -0.372 C  
HETATM    8  H   UNL     1     -10.759  13.657  67.064  1.00  0.00     0.000 HD 
HETATM    9  O   UNL     1     -10.757  14.241  67.813  1.00  0.00    -0.247 OA 
BRANCH   7  10
HETATM   10  C   UNL     1     -11.778  12.468  69.128  1.00  0.00    -0.321 C  
BRANCH  10  11
HETATM   11  O   UNL     1     -12.094  12.332  70.526  1.00  0.00    -0.364 OA 
BRANCH  11  12
HETATM   12  C   UNL     1     -12.189  11.027  70.952  1.00  0.00    -0.367 A  
HETATM   13  C   UNL     1     -13.126  10.573  71.872  1.00  0.00    -0.567 A  
HETATM   14  C   UNL     1     -13.121   9.254  72.312  1.00  0.00    -0.517 A  
HETATM   15  C   UNL     1     -12.187   8.339  71.825  1.00  0.00    -0.326 A  
HETATM   16  C   UNL     1     -11.269  10.115  70.428  1.00  0.00    -0.402 A  
HETATM   17  C   UNL     1     -11.264   8.777  70.865  1.00  0.00    -0.320 A  
BRANCH  15  18
HETATM   18  N   UNL     1     -12.124   7.011  72.301  1.00  0.00    -0.476 N  
HETATM   19  H   UNL     1     -12.900   6.394  72.066  1.00  0.00     0.000 HD 
HETATM   20  C   UNL     1     -11.096   6.473  73.062  1.00  0.00    -0.198 C  
HETATM   21  O   UNL     1     -10.177   7.084  73.596  1.00  0.00    -0.287 OA 
HETATM   22  C   UNL     1     -11.199   4.983  73.236  1.00  0.00    -0.411 C  
ENDBRANCH  15  18
ENDBRANCH  11  12
ENDBRANCH  10  11
ENDBRANCH   7  10
ENDBRANCH   6   7
ENDBRANCH   4   6
ENDBRANCH   2   4
TORSDOF 7
ENDMDL
MODEL        7
REMARK 921   NORMALIZED FREE ENERGY PREDICTED BY IDOCK:   -5.43 KCAL/MOL
REMARK 922        TOTAL FREE ENERGY PREDICTED BY IDOCK:   -8.49 KCAL/MOL
REMARK 923 INTER-LIGAND FREE ENERGY PREDICTED BY IDOCK:   -7.93 KCAL/MOL
REMARK 924 INTRA-LIGAND FREE ENERGY PREDICTED BY IDOCK:   -0.56 KCAL/MOL
REMARK 927      BINDING AFFINITY PREDICTED BY RF-SCORE:    0.00 PKD
ROOT
HETATM    1  C   UNL     1     -12.902  11.596  63.355  1.00  0.00    -0.154 C  
HETATM    2  C   UNL     1     -11.946  12.623  63.964  1.00  0.00    -0.451 C  
HETATM    3  C   UNL     1     -10.501  12.236  63.643  1.00  0.00    -0.483 C  
ENDROOT
BRANCH   2   4
HETATM    4  N   UNL     1     -12.289  13.938  63.421  1.00  0.00    -1.139 NA 
HETATM    5  H   UNL     1     -13.137  13.885  62.857  1.00  0.00     0.000 HD 
BRANCH   4   6
HETATM    6  C   UNL     1     -12.410  14.982  64.444  1.00  0.00    -0.266 C  
BRANCH   6   7
HETATM    7  C   UNL     1     -11.049  15.669  64.641  1.00  0.00    -0.373 C  
HETATM    8  H   UNL     1     -10.340  17.510  64.597  1.00  0.00     0.000 HD 
HETATM    9  O   UNL     1     -11.181  17.086  64.476  1.00  0.00    -1.091 OA 
BRANCH   7  10
HETATM   10  C   UNL     1     -10.463  15.346  66.016  1.00  0.00    -0.321 C  
BRANCH  10  11
HETATM   11  O   UNL     1     -11.423  15.592  67.060  1.00  0.00    -0.202 OA 
BRANCH  11  12
HETATM   12  C   UNL     1     -11.607  14.526  67.911  1.00  0.00    -0.344 A  
HETATM   13  C   UNL     1     -11.519  13.195  67.523  1.00  0.00    -0.371 A  
HETATM   14  C   UNL     1     -11.787  12.166  68.420  1.00  0.00    -0.360 A  
HETATM   15  C   UNL     1     -12.131  12.440  69.744  1.00  0.00    -0.223 A  
HETATM   16  C   UNL     1     -11.917  14.817  69.242  1.00  0.00    -0.329 A  
HETATM   17  C   UNL     1     -12.183  13.779  70.155  1.00  0.00    -0.425 A  
BRANCH  15  18
HETATM   18  N   UNL     1     -12.466  11.415  70.656  1.00  0.00    -0.340 N  
HETATM   19  H   UNL     1     -13.353  11.503  71.151  1.00  0.00     0.000 HD 
HETATM   20  C   UNL     1     -11.693  10.298  70.937  1.00  0.00    -0.379 C  
HETATM   21  O   UNL     1     -10.534  10.099  70.593  1.00  0.00    -0.229 OA 
HETATM   22  C   UNL     1     -12.404   9.277  71.782  1.00  0.00    -0.454 C  
ENDBRANCH  15  18
ENDBRANCH  11  12
ENDBRANCH  10  11
ENDBRANCH   7  10
ENDBRANCH   6   7
ENDBRANCH   4   6
ENDBRANCH   2   4
TORSDOF 7
ENDMDL
MODEL        8
REMARK 921   NORMALIZED FREE ENERGY PREDICTED BY IDOCK:   -5.34 KCAL/MOL
REMARK 922        TOTAL FREE ENERGY PREDICTED BY IDOCK:   -8.37 KCAL/MOL
REMARK 923 INTER-LIGAND FREE ENERGY PREDICTED BY IDOCK:   -7.56 KCAL/MOL
REMARK 924 INTRA-LIGAND FREE ENERGY PREDICTED BY IDOCK:   -0.81 KCAL/MOL
REMARK 927      BINDING AFFINITY PREDICTED BY RF-SCORE:    0.00 PKD
ROOT
HETATM    1  C   UNL     1     -14.156  14.368  72.315  1.00  0.00    -0.609 C  
HETATM    2  C   UNL     1     -13.532  15.697  71.884  1.00  0.00    -0.446 C  
HETATM    3  C   UNL     1     -12.301  15.991  72.745  1.00  0.00    -0.603 C  
ENDROOT
BRANCH   2   4
HETATM    4  N   UNL     1     -13.189  15.597  70.465  1.00  0.00    -0.762 NA 
HETATM    5  H   UNL     1     -13.517  16.418  69.957  1.00  0.00     0.000 HD 
BRANCH   4   6
HETATM    6  C   UNL     1     -11.761  15.371  70.221  1.00  0.00    -0.327 C  
BRANCH   6   7
HETATM    7  C   UNL     1     -11.580  14.600  68.904  1.00  0.00    -0.310 C  
HETATM    8  H   UNL     1     -10.320  14.610  67.385  1.00  0.00     0.000 HD 
HETATM    9  O   UNL     1     -10.431  15.087  68.198  1.00  0.00    -0.239 OA 
BRANCH   7  10
HETATM   10  C   UNL     1     -11.450  13.098  69.159  1.00  0.00    -0.305 C  
BRANCH  10  11
HETATM   11  O   UNL     1     -12.407  12.653  70.138  1.00  0.00    -0.250 OA 
BRANCH  11  12
HETATM   12  C   UNL     1     -12.213  11.356  70.558  1.00  0.00    -0.386 A  
HETATM   13  C   UNL     1     -11.316  10.473  69.971  1.00  0.00    -0.392 A  
HETATM   14  C   UNL     1     -11.222   9.153  70.401  1.00  0.00    -0.279 A  
HETATM   15  C   UNL     1     -12.011   8.683  71.451  1.00  0.00    -0.304 A  
HETATM   16  C   UNL     1     -12.986  10.911  71.634  1.00  0.00    -0.569 A  
HETATM   17  C   UNL     1     -12.890   9.579  72.077  1.00  0.00    -0.499 A  
BRANCH  15  18
HETATM   18  N   UNL     1     -11.976   7.333  71.865  1.00  0.00    -0.296 N  
HETATM   19  H   UNL     1     -12.632   6.692  71.419  1.00  0.00     0.000 HD 
HETATM   20  C   UNL     1     -11.127   6.803  72.825  1.00  0.00    -0.257 C  
HETATM   21  O   UNL     1     -10.404   7.426  73.594  1.00  0.00    -0.351 OA 
HETATM   22  C   UNL     1     -11.171   5.301  72.897  1.00  0.00    -0.375 C  
ENDBRANCH  15  18
ENDBRANCH  11  12
ENDBRANCH  10  11
ENDBRANCH   7  10
ENDBRANCH   6   7
ENDBRANCH   4   6
ENDBRANCH   2   4
TORSDOF 7
ENDMDL
MODEL        9
REMARK 921   NORMALIZED FREE ENERGY PREDICTED BY IDOCK:   -5.30 KCAL/MOL
REMARK 922        TOTAL FREE ENERGY PREDICTED BY IDOCK:   -8.31 KCAL/MOL
REMARK 923 INTER-LIGAND FREE ENERGY PREDICTED BY IDOCK:   -7.57 KCAL/MOL
REMARK 924 INTRA-LIGAND FREE ENERGY PREDICTED BY IDOCK:   -0.74 KCAL/MOL
REMARK 927      BINDING AFFINITY PREDICTED BY RF-SCORE:    0.00 PKD
ROOT
HETATM    1  C   UNL     1     -10.679  19.363  65.886  1.00  0.00    -0.501 C  
HETATM    2  C   UNL     1     -10.115  17.983  66.228  1.00  0.00    -0.363 C  
HETATM    3  C   UNL     1     -10.476  17.623  67.671  1.00  0.00    -0.372 C  
ENDROOT
BRANCH   2   4
HETATM    4  N   UNL     1     -10.665  17.020  65.274  1.00  0.00    -0.617 NA 
HETATM    5  H   UNL     1     -10.490  17.322  64.315  1.00  0.00     0.000 HD 
BRANCH   4   6
HETATM    6  C   UNL     1     -10.186  15.650  65.481  1.00  0.00    -0.385 C  
BRANCH   6   7
HETATM    7  C   UNL     1     -11.169  14.659  64.837  1.00  0.00    -0.396 C  
HETATM    8  H   UNL     1     -11.066  12.923  63.904  1.00  0.00     0.000 HD 
HETATM    9  O   UNL     1     -10.459  13.535  64.302  1.00  0.00    -0.414 OA 
BRANCH   7  10
HETATM   10  C   UNL     1     -12.221  14.193  65.844  1.00  0.00    -0.439 C  
BRANCH  10  11
HETATM   11  O   UNL     1     -11.863  14.577  67.184  1.00  0.00    -0.392 OA 
BRANCH  11  12
HETATM   12  C   UNL     1     -11.831  13.529  68.075  1.00  0.00    -0.365 A  
HETATM   13  C   UNL     1     -12.038  13.660  69.443  1.00  0.00    -0.364 A  
HETATM   14  C   UNL     1     -11.920  12.568  70.295  1.00  0.00    -0.364 A  
HETATM   15  C   UNL     1     -11.613  11.301  69.800  1.00  0.00    -0.333 A  
HETATM   16  C   UNL     1     -11.556  12.260  67.558  1.00  0.00    -0.422 A  
HETATM   17  C   UNL     1     -11.443  11.150  68.416  1.00  0.00    -0.377 A  
BRANCH  15  18
HETATM   18  N   UNL     1     -11.429  10.190  70.652  1.00  0.00    -0.326 N  
HETATM   19  H   UNL     1     -10.474   9.859  70.787  1.00  0.00     0.000 HD 
HETATM   20  C   UNL     1     -12.436   9.510  71.323  1.00  0.00    -0.346 C  
HETATM   21  O   UNL     1     -13.644   9.631  71.157  1.00  0.00    -0.340 OA 
HETATM   22  C   UNL     1     -11.918   8.512  72.322  1.00  0.00    -0.454 C  
ENDBRANCH  15  18
ENDBRANCH  11  12
ENDBRANCH  10  11
ENDBRANCH   7  10
ENDBRANCH   6   7
ENDBRANCH   4   6
ENDBRANCH   2   4
TORSDOF 7
ENDMDL
MODEL       10
REMARK 921   NORMALIZED FREE ENERGY PREDICTED BY IDOCK:   -5.27 KCAL/MOL
REMARK 922        TOTAL FREE ENERGY PREDICTED BY IDOCK:   -8.27 KCAL/MOL
REMARK 923 INTER-LIGAND FREE ENERGY PREDICTED BY IDOCK:   -7.47 KCAL/MOL
REMARK 924 INTRA-LIGAND FREE ENERGY PREDICTED BY IDOCK:   -0.80 KCAL/MOL
REMARK 927      BINDING AFFINITY PREDICTED BY RF-SCORE:    0.00 PKD
ROOT
HETATM    1  C   UNL     1     -10.915   6.295  68.000  1.00  0.00    -0.418 C  
HETATM    2  C   UNL     1     -11.118   6.004  69.488  1.00  0.00    -0.398 C  
HETATM    3  C   UNL     1      -9.768   6.043  70.209  1.00  0.00    -0.201 C  
ENDROOT
BRANCH   2   4
HETATM    4  N   UNL     1     -12.047   7.000  70.021  1.00  0.00    -0.606 NA 
HETATM    5  H   UNL     1     -12.920   6.997  69.494  1.00  0.00     0.000 HD 
BRANCH   4   6
HETATM    6  C   UNL     1     -12.307   6.850  71.456  1.00  0.00    -0.376 C  
BRANCH   6   7
HETATM    7  C   UNL     1     -12.075   8.195  72.164  1.00  0.00    -0.357 C  
HETATM    8  H   UNL     1     -10.602   9.082  73.133  1.00  0.00     0.000 HD 
HETATM    9  O   UNL     1     -10.746   8.251  72.696  1.00  0.00    -0.343 OA 
BRANCH   7  10
HETATM   10  C   UNL     1     -12.316   9.367  71.212  1.00  0.00    -0.341 C  
BRANCH  10  11
HETATM   11  O   UNL     1     -11.118   9.702  70.486  1.00  0.00    -0.260 OA 
BRANCH  11  12
HETATM   12  C   UNL     1     -11.321  10.594  69.458  1.00  0.00    -0.277 A  
HETATM   13  C   UNL     1     -11.030  10.328  68.125  1.00  0.00    -0.328 A  
HETATM   14  C   UNL     1     -11.193  11.302  67.146  1.00  0.00    -0.344 A  
HETATM   15  C   UNL     1     -11.675  12.571  67.469  1.00  0.00    -0.374 A  
HETATM   16  C   UNL     1     -11.837  11.849  69.793  1.00  0.00    -0.411 A  
HETATM   17  C   UNL     1     -12.009  12.836  68.805  1.00  0.00    -0.278 A  
BRANCH  15  18
HETATM   18  N   UNL     1     -11.791  13.594  66.503  1.00  0.00    -0.381 N  
HETATM   19  H   UNL     1     -11.404  14.507  66.742  1.00  0.00     0.000 HD 
HETATM   20  C   UNL     1     -12.386  13.466  65.256  1.00  0.00    -0.469 C  
HETATM   21  O   UNL     1     -13.059  12.523  64.855  1.00  0.00    -0.833 OA 
HETATM   22  C   UNL     1     -12.168  14.657  64.365  1.00  0.00    -0.473 C  
ENDBRANCH  15  18
ENDBRANCH  11  12
ENDBRANCH  10  11
ENDBRANCH   7  10
ENDBRANCH   6   7
ENDBRANCH   4   6
ENDBRANCH   2   4
TORSDOF 7
ENDMDL
MODEL       11
REMARK 921   NORMALIZED FREE ENERGY PREDICTED BY IDOCK:   -5.20 KCAL/MOL
REMARK 922        TOTAL FREE ENERGY PREDICTED BY IDOCK:   -8.17 KCAL/MOL
REMARK 923 INTER-LIGAND FREE ENERGY PREDICTED BY IDOCK:   -7.69 KCAL/MOL
REMARK 924 INTRA-LIGAND FREE ENERGY PREDICTED BY IDOCK:   -0.47 KCAL/MOL
REMARK 927      BINDING AFFINITY PREDICTED BY RF-SCORE:    0.00 PKD
ROOT
HETATM    1  C   UNL     1     -10.356  17.571  66.969  1.00  0.00    -0.324 C  
HETATM    2  C   UNL     1      -9.731  16.739  65.848  1.00  0.00    -0.217 C  
HETATM    3  C   UNL     1      -8.901  15.603  66.451  1.00  0.00    -0.365 C  
ENDROOT
BRANCH   2   4
HETATM    4  N   UNL     1     -10.813  16.231  65.003  1.00  0.00    -0.610 NA 
HETATM    5  H   UNL     1     -10.870  16.761  64.134  1.00  0.00     0.000 HD 
BRANCH   4   6
HETATM    6  C   UNL     1     -10.718  14.794  64.730  1.00  0.00    -0.358 C  
BRANCH   6   7
HETATM    7  C   UNL     1     -12.124  14.226  64.477  1.00  0.00    -0.480 C  
HETATM    8  H   UNL     1     -13.034  13.199  63.059  1.00  0.00     0.000 HD 
HETATM    9  O   UNL     1     -12.165  13.550  63.215  1.00  0.00    -0.619 OA 
BRANCH   7  10
HETATM   10  C   UNL     1     -12.545  13.278  65.602  1.00  0.00    -0.406 C  
BRANCH  10  11
HETATM   11  O   UNL     1     -11.431  12.960  66.457  1.00  0.00    -0.307 OA 
BRANCH  11  12
HETATM   12  C   UNL     1     -11.666  13.203  67.792  1.00  0.00    -0.358 A  
HETATM   13  C   UNL     1     -11.754  12.211  68.761  1.00  0.00    -0.374 A  
HETATM   14  C   UNL     1     -12.064  12.521  70.080  1.00  0.00    -0.368 A  
HETATM   15  C   UNL     1     -12.276  13.842  70.476  1.00  0.00    -0.373 A  
HETATM   16  C   UNL     1     -11.842  14.534  68.178  1.00  0.00    -0.348 A  
HETATM   17  C   UNL     1     -12.150  14.854  69.513  1.00  0.00    -0.315 A  
BRANCH  15  18
HETATM   18  N   UNL     1     -12.653  14.176  71.796  1.00  0.00    -0.331 N  
HETATM   19  H   UNL     1     -13.307  13.551  72.266  1.00  0.00     0.000 HD 
HETATM   20  C   UNL     1     -12.209  15.280  72.509  1.00  0.00    -0.390 C  
HETATM   21  O   UNL     1     -11.574  16.233  72.071  1.00  0.00    -0.457 OA 
HETATM   22  C   UNL     1     -12.609  15.255  73.958  1.00  0.00    -0.695 C  
ENDBRANCH  15  18
ENDBRANCH  11  12
ENDBRANCH  10  11
ENDBRANCH   7  10
ENDBRANCH   6   7
ENDBRANCH   4   6
ENDBRANCH   2   4
TORSDOF 7
ENDMDL
MODEL       12
REMARK 921   NORMALIZED FREE ENERGY PREDICTED BY IDOCK:   -5.20 KCAL/MOL
REMARK 922        TOTAL FREE ENERGY PREDICTED BY IDOCK:   -8.16 KCAL/MOL
REMARK 923 INTER-LIGAND FREE ENERGY PREDICTED BY IDOCK:   -7.18 KCAL/MOL
REMARK 924 INTRA-LIGAND FREE ENERGY PREDICTED BY IDOCK:   -0.98 KCAL/MOL
REMARK 927      BINDING AFFINITY PREDICTED BY RF-SCORE:    0.00 PKD
ROOT
HETATM    1  C   UNL     1     -10.532  10.869  63.883  1.00  0.00    -0.359 C  
HETATM    2  C   UNL     1     -10.589  12.363  63.562  1.00  0.00    -0.413 C  
HETATM    3  C   UNL     1     -12.046  12.794  63.370  1.00  0.00    -0.619 C  
ENDROOT
BRANCH   2   4
HETATM    4  N   UNL     1      -9.950  13.088  64.661  1.00  0.00    -0.586 NA 
HETATM    5  H   UNL     1      -8.959  13.235  64.467  1.00  0.00     0.000 HD 
BRANCH   4   6
HETATM    6  C   UNL     1     -10.608  14.356  64.989  1.00  0.00    -0.432 C  
BRANCH   6   7
HETATM    7  C   UNL     1     -10.752  14.481  66.514  1.00  0.00    -0.312 C  
HETATM    8  H   UNL     1     -10.762  15.934  67.850  1.00  0.00     0.000 HD 
HETATM    9  O   UNL     1     -10.674  15.857  66.907  1.00  0.00    -0.321 OA 
BRANCH   7  10
HETATM   10  C   UNL     1     -12.066  13.865  66.995  1.00  0.00    -0.415 C  
BRANCH  10  11
HETATM   11  O   UNL     1     -12.122  12.458  66.691  1.00  0.00    -0.592 OA 
BRANCH  11  12
HETATM   12  C   UNL     1     -11.670  11.649  67.709  1.00  0.00    -0.245 A  
HETATM   13  C   UNL     1     -10.882  10.521  67.517  1.00  0.00    -0.357 A  
HETATM   14  C   UNL     1     -10.520   9.707  68.585  1.00  0.00    -0.235 A  
HETATM   15  C   UNL     1     -10.920  10.012  69.887  1.00  0.00    -0.293 A  
HETATM   16  C   UNL     1     -12.050  11.988  69.010  1.00  0.00    -0.223 A  
HETATM   17  C   UNL     1     -11.681  11.171  70.095  1.00  0.00    -0.439 A  
BRANCH  15  18
HETATM   18  N   UNL     1     -10.616   9.169  70.978  1.00  0.00    -0.265 N  
HETATM   19  H   UNL     1      -9.637   9.095  71.252  1.00  0.00     0.000 HD 
HETATM   20  C   UNL     1     -11.535   8.432  71.711  1.00  0.00    -0.301 C  
HETATM   21  O   UNL     1     -12.714   8.243  71.436  1.00  0.00    -0.308 OA 
HETATM   22  C   UNL     1     -10.948   7.801  72.943  1.00  0.00    -0.467 C  
ENDBRANCH  15  18
ENDBRANCH  11  12
ENDBRANCH  10  11
ENDBRANCH   7  10
ENDBRANCH   6   7
ENDBRANCH   4   6
ENDBRANCH   2   4
TORSDOF 7
ENDMDL
MODEL       13
REMARK 921   NORMALIZED FREE ENERGY PREDICTED BY IDOCK:   -5.19 KCAL/MOL
REMARK 922        TOTAL FREE ENERGY PREDICTED BY IDOCK:   -8.16 KCAL/MOL
REMARK 923 INTER-LIGAND FREE ENERGY PREDICTED BY IDOCK:   -7.19 KCAL/MOL
REMARK 924 INTRA-LIGAND FREE ENERGY PREDICTED BY IDOCK:   -0.97 KCAL/MOL
REMARK 927      BINDING AFFINITY PREDICTED BY RF-SCORE:    0.00 PKD
ROOT
HETATM    1  C   UNL     1     -12.164  14.445  64.355  1.00  0.00    -0.481 C  
HETATM    2  C   UNL     1     -12.562  13.647  65.598  1.00  0.00    -0.484 C  
HETATM    3  C   UNL     1     -11.821  12.307  65.609  1.00  0.00    -0.423 C  
ENDROOT
BRANCH   2   4
HETATM    4  N   UNL     1     -12.241  14.453  66.776  1.00  0.00    -0.515 NA 
HETATM    5  H   UNL     1     -12.288  13.888  67.623  1.00  0.00     0.000 HD 
BRANCH   4   6
HETATM    6  C   UNL     1     -10.949  15.141  66.682  1.00  0.00    -0.318 C  
BRANCH   6   7
HETATM    7  C   UNL     1     -10.514  15.611  68.079  1.00  0.00    -0.263 C  
HETATM    8  H   UNL     1     -11.140  16.911  69.426  1.00  0.00     0.000 HD 
HETATM    9  O   UNL     1     -11.409  16.621  68.562  1.00  0.00    -0.317 OA 
BRANCH   7  10
HETATM   10  C   UNL     1     -10.455  14.440  69.060  1.00  0.00    -0.222 C  
BRANCH  10  11
HETATM   11  O   UNL     1     -11.642  14.381  69.872  1.00  0.00    -0.263 OA 
BRANCH  11  12
HETATM   12  C   UNL     1     -12.040  13.102  70.188  1.00  0.00    -0.321 A  
HETATM   13  C   UNL     1     -12.782  12.772  71.315  1.00  0.00    -0.364 A  
HETATM   14  C   UNL     1     -13.089  11.448  71.610  1.00  0.00    -0.498 A  
HETATM   15  C   UNL     1     -12.679  10.412  70.771  1.00  0.00    -0.371 A  
HETATM   16  C   UNL     1     -11.651  12.079  69.318  1.00  0.00    -0.380 A  
HETATM   17  C   UNL     1     -11.964  10.739  69.610  1.00  0.00    -0.385 A  
BRANCH  15  18
HETATM   18  N   UNL     1     -12.927   9.056  71.081  1.00  0.00    -0.510 N  
HETATM   19  H   UNL     1     -13.807   8.657  70.757  1.00  0.00     0.000 HD 
HETATM   20  C   UNL     1     -12.075   8.221  71.790  1.00  0.00    -0.319 C  
HETATM   21  O   UNL     1     -11.071   8.548  72.411  1.00  0.00    -0.361 OA 
HETATM   22  C   UNL     1     -12.506   6.780  71.777  1.00  0.00    -0.394 C  
ENDBRANCH  15  18
ENDBRANCH  11  12
ENDBRANCH  10  11
ENDBRANCH   7  10
ENDBRANCH   6   7
ENDBRANCH   4   6
ENDBRANCH   2   4
TORSDOF 7
ENDMDL
MODEL       14
REMARK 921   NORMALIZED FREE ENERGY PREDICTED BY IDOCK:   -5.18 KCAL/MOL
REMARK 922        TOTAL FREE ENERGY PREDICTED BY IDOCK:   -8.14 KCAL/MOL
REMARK 923 INTER-LIGAND FREE ENERGY PREDICTED BY IDOCK:   -7.19 KCAL/MOL
REMARK 924 INTRA-LIGAND FREE ENERGY PREDICTED BY IDOCK:   -0.95 KCAL/MOL
REMARK 927      BINDING AFFINITY PREDICTED BY RF-SCORE:    0.00 PKD
ROOT
HETATM    1  C   UNL     1     -12.621  16.027  74.030  1.00  0.00    -0.733 C  
HETATM    2  C   UNL     1     -12.765  14.842  73.074  1.00  0.00    -0.449 C  
HETATM    3  C   UNL     1     -14.101  14.938  72.333  1.00  0.00    -0.554 C  
ENDROOT
BRANCH   2   4
HETATM    4  N   UNL     1     -11.630  14.864  72.151  1.00  0.00    -0.407 NA 
HETATM    5  H   UNL     1     -11.619  14.024  71.573  1.00  0.00     0.000 HD 
BRANCH   4   6
HETATM    6  C   UNL     1     -11.576  16.068  71.316  1.00  0.00    -0.449 C  
BRANCH   6   7
HETATM    7  C   UNL     1     -11.587  15.667  69.833  1.00  0.00    -0.347 C  
HETATM    8  H   UNL     1     -10.706  16.257  68.169  1.00  0.00     0.000 HD 
HETATM    9  O   UNL     1     -10.698  16.505  69.086  1.00  0.00    -0.295 OA 
BRANCH   7  10
HETATM   10  C   UNL     1     -11.204  14.196  69.658  1.00  0.00    -0.191 C  
BRANCH  10  11
HETATM   11  O   UNL     1     -12.372  13.355  69.625  1.00  0.00    -0.247 OA 
BRANCH  11  12
HETATM   12  C   UNL     1     -12.168  12.097  70.143  1.00  0.00    -0.231 A  
HETATM   13  C   UNL     1     -12.883  11.567  71.210  1.00  0.00    -0.463 A  
HETATM   14  C   UNL     1     -12.576  10.314  71.728  1.00  0.00    -0.488 A  
HETATM   15  C   UNL     1     -11.554   9.540  71.178  1.00  0.00    -0.367 A  
HETATM   16  C   UNL     1     -11.164  11.320  69.557  1.00  0.00    -0.337 A  
HETATM   17  C   UNL     1     -10.854  10.049  70.075  1.00  0.00    -0.352 A  
BRANCH  15  18
HETATM   18  N   UNL     1     -11.184   8.292  71.726  1.00  0.00    -0.266 N  
HETATM   19  H   UNL     1     -10.261   8.225  72.152  1.00  0.00     0.000 HD 
HETATM   20  C   UNL     1     -11.969   7.148  71.733  1.00  0.00    -0.313 C  
HETATM   21  O   UNL     1     -13.017   6.969  71.123  1.00  0.00    -0.360 OA 
HETATM   22  C   UNL     1     -11.400   6.039  72.575  1.00  0.00    -0.344 C  
ENDBRANCH  15  18
ENDBRANCH  11  12
ENDBRANCH  10  11
ENDBRANCH   7  10
ENDBRANCH   6   7
ENDBRANCH   4   6
ENDBRANCH   2   4
TORSDOF 7
ENDMDL
MODEL       15
REMARK 921   NORMALIZED FREE ENERGY PREDICTED BY IDOCK:   -5.16 KCAL/MOL
REMARK 922        TOTAL FREE ENERGY PREDICTED BY IDOCK:   -8.11 KCAL/MOL
REMARK 923 INTER-LIGAND FREE ENERGY PREDICTED BY IDOCK:   -7.34 KCAL/MOL
REMARK 924 INTRA-LIGAND FREE ENERGY PREDICTED BY IDOCK:   -0.77 KCAL/MOL
REMARK 927      BINDING AFFINITY PREDICTED BY RF-SCORE:    0.00 PKD
ROOT
HETATM    1  C   UNL     1     -10.982  16.423  69.563  1.00  0.00    -0.317 C  
HETATM    2  C   UNL     1     -11.630  15.228  68.861  1.00  0.00    -0.347 C  
HETATM    3  C   UNL     1     -10.602  14.106  68.700  1.00  0.00    -0.253 C  
ENDROOT
BRANCH   2   4
HETATM    4  N   UNL     1     -12.779  14.801  69.661  1.00  0.00    -0.584 NA 
HETATM    5  H   UNL     1     -12.791  13.786  69.760  1.00  0.00     0.000 HD 
BRANCH   4   6
HETATM    6  C   UNL     1     -12.854  15.452  70.973  1.00  0.00    -0.463 C  
BRANCH   6   7
HETATM    7  C   UNL     1     -12.679  14.399  72.079  1.00  0.00    -0.328 C  
HETATM    8  H   UNL     1     -13.139  14.220  73.989  1.00  0.00     0.000 HD 
HETATM    9  O   UNL     1     -13.248  14.870  73.306  1.00  0.00    -0.494 OA 
BRANCH   7  10
HETATM   10  C   UNL     1     -13.312  13.066  71.676  1.00  0.00    -0.292 C  
BRANCH  10  11
HETATM   11  O   UNL     1     -12.404  12.277  70.885  1.00  0.00    -0.376 OA 
BRANCH  11  12
HETATM   12  C   UNL     1     -12.416  10.936  71.194  1.00  0.00    -0.405 A  
HETATM   13  C   UNL     1     -13.366  10.332  72.008  1.00  0.00    -0.466 A  
HETATM   14  C   UNL     1     -13.278   8.984  72.337  1.00  0.00    -0.507 A  
HETATM   15  C   UNL     1     -12.243   8.190  71.840  1.00  0.00    -0.331 A  
HETATM   16  C   UNL     1     -11.393  10.148  70.659  1.00  0.00    -0.433 A  
HETATM   17  C   UNL     1     -11.303   8.782  70.984  1.00  0.00    -0.332 A  
BRANCH  15  18
HETATM   18  N   UNL     1     -12.099   6.835  72.208  1.00  0.00    -0.486 N  
HETATM   19  H   UNL     1     -12.744   6.167  71.788  1.00  0.00     0.000 HD 
HETATM   20  C   UNL     1     -11.154   6.333  73.091  1.00  0.00    -0.171 C  
HETATM   21  O   UNL     1     -10.418   6.979  73.827  1.00  0.00    -0.364 OA 
HETATM   22  C   UNL     1     -11.102   4.830  73.120  1.00  0.00    -0.388 C  
ENDBRANCH  15  18
ENDBRANCH  11  12
ENDBRANCH  10  11
ENDBRANCH   7  10
ENDBRANCH   6   7
ENDBRANCH   4   6
ENDBRANCH   2   4
TORSDOF 7
ENDMDL
MODEL       16
REMARK 921   NORMALIZED FREE ENERGY PREDICTED BY IDOCK:   -5.12 KCAL/MOL
REMARK 922        TOTAL FREE ENERGY PREDICTED BY IDOCK:   -8.06 KCAL/MOL
REMARK 923 INTER-LIGAND FREE ENERGY PREDICTED BY IDOCK:   -7.56 KCAL/MOL
REMARK 924 INTRA-LIGAND FREE ENERGY PREDICTED BY IDOCK:   -0.50 KCAL/MOL
REMARK 927      BINDING AFFINITY PREDICTED BY RF-SCORE:    0.00 PKD
ROOT
HETATM    1  C   UNL     1     -10.009  19.707  68.751  1.00  0.00    -0.542 C  
HETATM    2  C   UNL     1     -10.620  19.222  67.435  1.00  0.00    -0.487 C  
HETATM    3  C   UNL     1      -9.780  19.730  66.260  1.00  0.00    -0.532 C  
ENDROOT
BRANCH   2   4
HETATM    4  N   UNL     1     -10.673  17.760  67.472  1.00  0.00    -0.353 NA 
HETATM    5  H   UNL     1     -11.626  17.438  67.640  1.00  0.00     0.000 HD 
BRANCH   4   6
HETATM    6  C   UNL     1     -10.112  17.122  66.277  1.00  0.00    -0.320 C  
BRANCH   6   7
HETATM    7  C   UNL     1     -11.213  16.329  65.554  1.00  0.00     0.101 C  
HETATM    8  H   UNL     1     -11.980  16.247  63.738  1.00  0.00     0.000 HD 
HETATM    9  O   UNL     1     -11.299  16.737  64.184  1.00  0.00    -1.194 OA 
BRANCH   7  10
HETATM   10  C   UNL     1     -10.956  14.824  65.645  1.00  0.00    -0.344 C  
BRANCH  10  11
HETATM   11  O   UNL     1     -12.119  14.127  66.130  1.00  0.00    -0.405 OA 
BRANCH  11  12
HETATM   12  C   UNL     1     -11.844  13.192  67.101  1.00  0.00    -0.369 A  
HETATM   13  C   UNL     1     -11.512  11.868  66.838  1.00  0.00    -0.390 A  
HETATM   14  C   UNL     1     -11.316  10.958  67.871  1.00  0.00    -0.380 A  
HETATM   15  C   UNL     1     -11.424  11.352  69.205  1.00  0.00    -0.299 A  
HETATM   16  C   UNL     1     -11.923  13.611  68.432  1.00  0.00    -0.391 A  
HETATM   17  C   UNL     1     -11.718  12.695  69.481  1.00  0.00    -0.374 A  
BRANCH  15  18
HETATM   18  N   UNL     1     -11.289  10.433  70.268  1.00  0.00    -0.307 N  
HETATM   19  H   UNL     1     -10.342  10.177  70.546  1.00  0.00     0.000 HD 
HETATM   20  C   UNL     1     -12.334   9.847  70.969  1.00  0.00    -0.357 C  
HETATM   21  O   UNL     1     -13.524   9.880  70.680  1.00  0.00    -0.232 OA 
HETATM   22  C   UNL     1     -11.884   9.082  72.183  1.00  0.00    -0.384 C  
ENDBRANCH  15  18
ENDBRANCH  11  12
ENDBRANCH  10  11
ENDBRANCH   7  10
ENDBRANCH   6   7
ENDBRANCH   4   6
ENDBRANCH   2   4
TORSDOF 7
ENDMDL
MODEL       17
REMARK 921   NORMALIZED FREE ENERGY PREDICTED BY IDOCK:   -5.08 KCAL/MOL
REMARK 922        TOTAL FREE ENERGY PREDICTED BY IDOCK:   -8.01 KCAL/MOL
REMARK 923 INTER-LIGAND FREE ENERGY PREDICTED BY IDOCK:   -7.40 KCAL/MOL
REMARK 924 INTRA-LIGAND FREE ENERGY PREDICTED BY IDOCK:   -0.60 KCAL/MOL
REMARK 927      BINDING AFFINITY PREDICTED BY RF-SCORE:    0.00 PKD
ROOT
HETATM    1  C   UNL     1     -14.006  13.643  72.202  1.00  0.00    -0.609 C  
HETATM    2  C   UNL     1     -14.114  15.157  72.014  1.00  0.00    -0.559 C  
HETATM    3  C   UNL     1     -13.363  15.871  73.140  1.00  0.00    -0.681 C  
ENDROOT
BRANCH   2   4
HETATM    4  N   UNL     1     -13.565  15.490  70.699  1.00  0.00    -0.849 NA 
HETATM    5  H   UNL     1     -14.028  16.312  70.313  1.00  0.00     0.000 HD 
BRANCH   4   6
HETATM    6  C   UNL     1     -12.109  15.667  70.699  1.00  0.00    -0.405 C  
BRANCH   6   7
HETATM    7  C   UNL     1     -11.621  15.914  69.263  1.00  0.00    -0.369 C  
HETATM    8  H   UNL     1     -10.266  17.036  68.370  1.00  0.00     0.000 HD 
HETATM    9  O   UNL     1     -10.567  16.884  69.258  1.00  0.00    -0.336 OA 
BRANCH   7  10
HETATM   10  C   UNL     1     -11.150  14.614  68.610  1.00  0.00    -0.262 C  
BRANCH  10  11
HETATM   11  O   UNL     1     -12.230  13.668  68.498  1.00  0.00    -0.342 OA 
BRANCH  11  12
HETATM   12  C   UNL     1     -11.860  12.366  68.749  1.00  0.00    -0.311 A  
HETATM   13  C   UNL     1     -11.870  11.782  70.009  1.00  0.00    -0.422 A  
HETATM   14  C   UNL     1     -11.415  10.482  70.202  1.00  0.00    -0.405 A  
HETATM   15  C   UNL     1     -10.955   9.716  69.130  1.00  0.00    -0.151 A  
HETATM   16  C   UNL     1     -11.434  11.602  67.659  1.00  0.00    -0.373 A  
HETATM   17  C   UNL     1     -10.979  10.284  67.848  1.00  0.00    -0.350 A  
BRANCH  15  18
HETATM   18  N   UNL     1     -10.432   8.417  69.310  1.00  0.00    -0.222 N  
HETATM   19  H   UNL     1      -9.612   8.164  68.760  1.00  0.00     0.000 HD 
HETATM   20  C   UNL     1     -10.938   7.454  70.171  1.00  0.00    -0.255 C  
HETATM   21  O   UNL     1     -12.004   7.492  70.775  1.00  0.00    -0.277 OA 
HETATM   22  C   UNL     1     -10.048   6.249  70.309  1.00  0.00    -0.226 C  
ENDBRANCH  15  18
ENDBRANCH  11  12
ENDBRANCH  10  11
ENDBRANCH   7  10
ENDBRANCH   6   7
ENDBRANCH   4   6
ENDBRANCH   2   4
TORSDOF 7
ENDMDL
MODEL       18
REMARK 921   NORMALIZED FREE ENERGY PREDICTED BY IDOCK:   -5.07 KCAL/MOL
REMARK 922        TOTAL FREE ENERGY PREDICTED BY IDOCK:   -7.98 KCAL/MOL
REMARK 923 INTER-LIGAND FREE ENERGY PREDICTED BY IDOCK:   -6.93 KCAL/MOL
REMARK 924 INTRA-LIGAND FREE ENERGY PREDICTED BY IDOCK:   -1.06 KCAL/MOL
REMARK 927      BINDING AFFINITY PREDICTED BY RF-SCORE:    0.00 PKD
ROOT
HETATM    1  C   UNL     1     -10.314  10.784  64.338  1.00  0.00    -0.405 C  
HETATM    2  C   UNL     1     -10.888  11.961  63.548  1.00  0.00    -0.434 C  
HETATM    3  C   UNL     1     -12.354  12.173  63.932  1.00  0.00    -0.587 C  
ENDROOT
BRANCH   2   4
HETATM    4  N   UNL     1     -10.075  13.142  63.841  1.00  0.00    -0.764 NA 
HETATM    5  H   UNL     1      -9.540  13.424  63.019  1.00  0.00     0.000 HD 
BRANCH   4   6
HETATM    6  C   UNL     1     -10.848  14.270  64.369  1.00  0.00    -0.150 C  
BRANCH   6   7
HETATM    7  C   UNL     1      -9.938  15.157  65.234  1.00  0.00    -0.290 C  
HETATM    8  H   UNL     1      -9.749  17.080  65.633  1.00  0.00     0.000 HD 
HETATM    9  O   UNL     1     -10.312  16.533  65.098  1.00  0.00    -0.618 OA 
BRANCH   7  10
HETATM   10  C   UNL     1      -9.994  14.734  66.703  1.00  0.00    -0.264 C  
BRANCH  10  11
HETATM   11  O   UNL     1      -9.251  13.520  66.923  1.00  0.00    -0.237 OA 
BRANCH  11  12
HETATM   12  C   UNL     1      -9.876  12.629  67.766  1.00  0.00    -0.212 A  
HETATM   13  C   UNL     1      -9.207  11.694  68.546  1.00  0.00    -0.163 A  
HETATM   14  C   UNL     1      -9.906  10.775  69.322  1.00  0.00    -0.160 A  
HETATM   15  C   UNL     1     -11.301  10.780  69.358  1.00  0.00    -0.285 A  
HETATM   16  C   UNL     1     -11.272  12.670  67.817  1.00  0.00    -0.319 A  
HETATM   17  C   UNL     1     -11.983  11.746  68.606  1.00  0.00    -0.299 A  
BRANCH  15  18
HETATM   18  N   UNL     1     -12.032   9.819  70.091  1.00  0.00    -0.463 N  
HETATM   19  H   UNL     1     -12.075   8.875  69.708  1.00  0.00     0.000 HD 
HETATM   20  C   UNL     1     -12.697  10.049  71.287  1.00  0.00    -0.399 C  
HETATM   21  O   UNL     1     -12.916  11.135  71.811  1.00  0.00    -0.451 OA 
HETATM   22  C   UNL     1     -13.202   8.791  71.939  1.00  0.00    -0.424 C  
ENDBRANCH  15  18
ENDBRANCH  11  12
ENDBRANCH  10  11
ENDBRANCH   7  10
ENDBRANCH   6   7
ENDBRANCH   4   6
ENDBRANCH   2   4
TORSDOF 7
ENDMDL
MODEL       19
REMARK 921   NORMALIZED FREE ENERGY PREDICTED BY IDOCK:   -5.04 KCAL/MOL
REMARK 922        TOTAL FREE ENERGY PREDICTED BY IDOCK:   -7.95 KCAL/MOL
REMARK 923 INTER-LIGAND FREE ENERGY PREDICTED BY IDOCK:   -6.91 KCAL/MOL
REMARK 924 INTRA-LIGAND FREE ENERGY PREDICTED BY IDOCK:   -1.04 KCAL/MOL
REMARK 927      BINDING AFFINITY PREDICTED BY RF-SCORE:    0.00 PKD
ROOT
HETATM    1  C   UNL     1     -10.421  10.936  66.340  1.00  0.00    -0.307 C  
HETATM    2  C   UNL     1      -9.385  11.228  65.252  1.00  0.00    -0.203 C  
HETATM    3  C   UNL     1      -8.955   9.918  64.586  1.00  0.00    -0.260 C  
ENDROOT
BRANCH   2   4
HETATM    4  N   UNL     1      -9.986  12.154  64.292  1.00  0.00    -0.469 NA 
HETATM    5  H   UNL     1      -9.267  12.588  63.713  1.00  0.00     0.000 HD 
BRANCH   4   6
HETATM    6  C   UNL     1     -11.023  11.541  63.456  1.00  0.00    -0.373 C  
BRANCH   6   7
HETATM    7  C   UNL     1     -12.265  12.447  63.432  1.00  0.00    -0.523 C  
HETATM    8  H   UNL     1     -14.091  12.416  64.179  1.00  0.00     0.000 HD 
HETATM    9  O   UNL     1     -13.324  11.856  64.194  1.00  0.00    -0.652 OA 
BRANCH   7  10
HETATM   10  C   UNL     1     -11.939  13.842  63.967  1.00  0.00    -0.408 C  
BRANCH  10  11
HETATM   11  O   UNL     1     -12.298  13.963  65.356  1.00  0.00    -0.416 OA 
BRANCH  11  12
HETATM   12  C   UNL     1     -11.423  14.726  66.094  1.00  0.00    -0.311 A  
HETATM   13  C   UNL     1     -11.430  14.799  67.481  1.00  0.00    -0.369 A  
HETATM   14  C   UNL     1     -10.562  15.646  68.161  1.00  0.00    -0.274 A  
HETATM   15  C   UNL     1      -9.640  16.433  67.470  1.00  0.00    -0.227 A  
HETATM   16  C   UNL     1     -10.482  15.481  65.388  1.00  0.00    -0.429 A  
HETATM   17  C   UNL     1      -9.597  16.335  66.072  1.00  0.00    -0.371 A  
BRANCH  15  18
HETATM   18  N   UNL     1      -8.790  17.344  68.134  1.00  0.00    -0.246 N  
HETATM   19  H   UNL     1      -7.894  16.989  68.466  1.00  0.00     0.000 HD 
HETATM   20  C   UNL     1      -9.069  18.682  68.375  1.00  0.00    -0.324 C  
HETATM   21  O   UNL     1     -10.145  19.249  68.221  1.00  0.00    -0.379 OA 
HETATM   22  C   UNL     1      -7.891  19.451  68.906  1.00  0.00    -0.370 C  
ENDBRANCH  15  18
ENDBRANCH  11  12
ENDBRANCH  10  11
ENDBRANCH   7  10
ENDBRANCH   6   7
ENDBRANCH   4   6
ENDBRANCH   2   4
TORSDOF 7
ENDMDL
MODEL       20
REMARK 921   NORMALIZED FREE ENERGY PREDICTED BY IDOCK:   -5.04 KCAL/MOL
REMARK 922        TOTAL FREE ENERGY PREDICTED BY IDOCK:   -7.94 KCAL/MOL
REMARK 923 INTER-LIGAND FREE ENERGY PREDICTED BY IDOCK:   -7.53 KCAL/MOL
REMARK 924 INTRA-LIGAND FREE ENERGY PREDICTED BY IDOCK:   -0.41 KCAL/MOL
REMARK 927      BINDING AFFINITY PREDICTED BY RF-SCORE:    0.00 PKD
ROOT
HETATM    1  C   UNL     1     -12.390  14.148  64.470  1.00  0.00    -0.419 C  
HETATM    2  C   UNL     1     -12.554  12.651  64.740  1.00  0.00    -0.454 C  
HETATM    3  C   UNL     1     -11.741  11.852  63.719  1.00  0.00    -0.554 C  
ENDROOT
BRANCH   2   4
HETATM    4  N   UNL     1     -12.113  12.388  66.111  1.00  0.00    -0.641 NA 
HETATM    5  H   UNL     1     -11.391  11.668  66.124  1.00  0.00     0.000 HD 
BRANCH   4   6
HETATM    6  C   UNL     1     -11.663  13.588  66.823  1.00  0.00    -0.391 C  
BRANCH   6   7
HETATM    7  C   UNL     1     -11.357  13.232  68.286  1.00  0.00    -0.300 C  
HETATM    8  H   UNL     1     -11.896  13.874  70.073  1.00  0.00     0.000 HD 
HETATM    9  O   UNL     1     -12.085  14.094  69.169  1.00  0.00    -0.341 OA 
BRANCH   7  10
HETATM   10  C   UNL     1     -11.690  11.768  68.579  1.00  0.00    -0.330 C  
BRANCH  10  11
HETATM   11  O   UNL     1     -12.509  11.647  69.756  1.00  0.00    -0.158 OA 
BRANCH  11  12
HETATM   12  C   UNL     1     -12.166  10.590  70.568  1.00  0.00    -0.344 A  
HETATM   13  C   UNL     1     -10.910   9.996  70.586  1.00  0.00    -0.367 A  
HETATM   14  C   UNL     1     -10.652   8.885  71.381  1.00  0.00    -0.374 A  
HETATM   15  C   UNL     1     -11.641   8.345  72.203  1.00  0.00    -0.374 A  
HETATM   16  C   UNL     1     -13.158  10.084  71.412  1.00  0.00    -0.512 A  
HETATM   17  C   UNL     1     -12.900   8.963  72.222  1.00  0.00    -0.475 A  
BRANCH  15  18
HETATM   18  N   UNL     1     -11.421   7.182  72.972  1.00  0.00    -0.559 N  
HETATM   19  H   UNL     1     -11.454   7.280  73.986  1.00  0.00     0.000 HD 
HETATM   20  C   UNL     1     -11.163   5.915  72.467  1.00  0.00    -0.294 C  
HETATM   21  O   UNL     1     -10.907   5.624  71.304  1.00  0.00    -0.255 OA 
HETATM   22  C   UNL     1     -11.187   4.838  73.516  1.00  0.00    -0.392 C  
ENDBRANCH  15  18
ENDBRANCH  11  12
ENDBRANCH  10  11
ENDBRANCH   7  10
ENDBRANCH   6   7
ENDBRANCH   4   6
ENDBRANCH   2   4
TORSDOF 7
ENDMDL
MODEL       21
REMARK 921   NORMALIZED FREE ENERGY PREDICTED BY IDOCK:   -5.04 KCAL/MOL
REMARK 922        TOTAL FREE ENERGY PREDICTED BY IDOCK:   -7.94 KCAL/MOL
REMARK 923 INTER-LIGAND FREE ENERGY PREDICTED BY IDOCK:   -7.47 KCAL/MOL
REMARK 924 INTRA-LIGAND FREE ENERGY PREDICTED BY IDOCK:   -0.47 KCAL/MOL
REMARK 927      BINDING AFFINITY PREDICTED BY RF-SCORE:    0.00 PKD
ROOT
HETATM    1  C   UNL     1      -8.546  20.048  67.336  1.00  0.00    -0.403 C  
HETATM    2  C   UNL     1     -10.073  20.022  67.245  1.00  0.00    -0.437 C  
HETATM    3  C   UNL     1     -10.500  19.420  65.904  1.00  0.00    -0.561 C  
ENDROOT
BRANCH   2   4
HETATM    4  N   UNL     1     -10.580  19.242  68.376  1.00  0.00    -0.421 NA 
HETATM    5  H   UNL     1     -11.590  19.122  68.306  1.00  0.00     0.000 HD 
BRANCH   4   6
HETATM    6  C   UNL     1      -9.914  17.947  68.540  1.00  0.00    -0.379 C  
BRANCH   6   7
HETATM    7  C   UNL     1     -10.970  16.834  68.634  1.00  0.00    -0.298 C  
HETATM    8  H   UNL     1     -11.533  15.282  67.553  1.00  0.00     0.000 HD 
HETATM    9  O   UNL     1     -10.880  15.969  67.495  1.00  0.00    -0.317 OA 
BRANCH   7  10
HETATM   10  C   UNL     1     -10.810  16.030  69.925  1.00  0.00    -0.351 C  
BRANCH  10  11
HETATM   11  O   UNL     1     -12.090  15.730  70.512  1.00  0.00    -0.371 OA 
BRANCH  11  12
HETATM   12  C   UNL     1     -12.299  14.388  70.738  1.00  0.00    -0.347 A  
HETATM   13  C   UNL     1     -11.848  13.377  69.898  1.00  0.00    -0.385 A  
HETATM   14  C   UNL     1     -12.156  12.044  70.150  1.00  0.00    -0.377 A  
HETATM   15  C   UNL     1     -12.910  11.680  71.266  1.00  0.00    -0.328 A  
HETATM   16  C   UNL     1     -13.025  14.038  71.879  1.00  0.00    -0.444 A  
HETATM   17  C   UNL     1     -13.334  12.690  72.141  1.00  0.00    -0.570 A  
BRANCH  15  18
HETATM   18  N   UNL     1     -13.286  10.341  71.509  1.00  0.00    -0.391 N  
HETATM   19  H   UNL     1     -14.284  10.135  71.537  1.00  0.00     0.000 HD 
HETATM   20  C   UNL     1     -12.415   9.280  71.713  1.00  0.00    -0.381 C  
HETATM   21  O   UNL     1     -11.205   9.346  71.896  1.00  0.00    -0.354 OA 
HETATM   22  C   UNL     1     -13.099   7.941  71.730  1.00  0.00    -0.352 C  
ENDBRANCH  15  18
ENDBRANCH  11  12
ENDBRANCH  10  11
ENDBRANCH   7  10
ENDBRANCH   6   7
ENDBRANCH   4   6
ENDBRANCH   2   4
TORSDOF 7
ENDMDL
MODEL       22
REMARK 921   NORMALIZED FREE ENERGY PREDICTED BY IDOCK:   -5.03 KCAL/MOL
REMARK 922        TOTAL FREE ENERGY PREDICTED BY IDOCK:   -7.93 KCAL/MOL
REMARK 923 INTER-LIGAND FREE ENERGY PREDICTED BY IDOCK:   -7.28 KCAL/MOL
REMARK 924 INTRA-LIGAND FREE ENERGY PREDICTED BY IDOCK:   -0.65 KCAL/MOL
REMARK 927      BINDING AFFINITY PREDICTED BY RF-SCORE:    0.00 PKD
ROOT
HETATM    1  C   UNL     1      -9.506   8.110  71.257  1.00  0.00    -0.199 C  
HETATM    2  C   UNL     1     -10.451   7.026  70.735  1.00  0.00    -0.212 C  
HETATM    3  C   UNL     1     -10.357   5.787  71.628  1.00  0.00    -0.266 C  
ENDROOT
BRANCH   2   4
HETATM    4  N   UNL     1     -11.806   7.578  70.713  1.00  0.00    -0.419 NA 
HETATM    5  H   UNL     1     -12.492   6.842  70.547  1.00  0.00     0.000 HD 
BRANCH   4   6
HETATM    6  C   UNL     1     -12.147   8.342  71.917  1.00  0.00    -0.342 C  
BRANCH   6   7
HETATM    7  C   UNL     1     -13.402   9.187  71.651  1.00  0.00    -0.383 C  
HETATM    8  H   UNL     1     -15.066   9.645  72.609  1.00  0.00     0.000 HD 
HETATM    9  O   UNL     1     -14.290   9.123  72.774  1.00  0.00    -0.563 OA 
BRANCH   7  10
HETATM   10  C   UNL     1     -13.034  10.640  71.347  1.00  0.00    -0.443 C  
BRANCH  10  11
HETATM   11  O   UNL     1     -11.669  10.748  70.902  1.00  0.00    -0.320 OA 
BRANCH  11  12
HETATM   12  C   UNL     1     -11.538  11.189  69.605  1.00  0.00    -0.326 A  
HETATM   13  C   UNL     1     -11.773  12.497  69.199  1.00  0.00    -0.375 A  
HETATM   14  C   UNL     1     -11.691  12.858  67.858  1.00  0.00    -0.405 A  
HETATM   15  C   UNL     1     -11.348  11.922  66.882  1.00  0.00    -0.330 A  
HETATM   16  C   UNL     1     -11.160  10.247  68.645  1.00  0.00    -0.290 A  
HETATM   17  C   UNL     1     -11.070  10.609  67.288  1.00  0.00    -0.313 A  
BRANCH  15  18
HETATM   18  N   UNL     1     -11.318  12.252  65.510  1.00  0.00    -0.336 N  
HETATM   19  H   UNL     1     -10.506  11.946  64.975  1.00  0.00     0.000 HD 
HETATM   20  C   UNL     1     -12.299  12.956  64.825  1.00  0.00    -0.459 C  
HETATM   21  O   UNL     1     -13.249  13.557  65.312  1.00  0.00    -0.688 OA 
HETATM   22  C   UNL     1     -12.096  12.965  63.335  1.00  0.00    -0.610 C  
ENDBRANCH  15  18
ENDBRANCH  11  12
ENDBRANCH  10  11
ENDBRANCH   7  10
ENDBRANCH   6   7
ENDBRANCH   4   6
ENDBRANCH   2   4
TORSDOF 7
ENDMDL
MODEL       23
REMARK 921   NORMALIZED FREE ENERGY PREDICTED BY IDOCK:   -5.02 KCAL/MOL
REMARK 922        TOTAL FREE ENERGY PREDICTED BY IDOCK:   -7.92 KCAL/MOL
REMARK 923 INTER-LIGAND FREE ENERGY PREDICTED BY IDOCK:   -6.96 KCAL/MOL
REMARK 924 INTRA-LIGAND FREE ENERGY PREDICTED BY IDOCK:   -0.95 KCAL/MOL
REMARK 927      BINDING AFFINITY PREDICTED BY RF-SCORE:    0.00 PKD
ROOT
HETATM    1  C   UNL     1     -10.603  19.837  66.364  1.00  0.00    -0.575 C  
HETATM    2  C   UNL     1      -9.872  20.419  67.575  1.00  0.00    -0.424 C  
HETATM    3  C   UNL     1      -9.996  19.460  68.761  1.00  0.00    -0.522 C  
ENDROOT
BRANCH   2   4
HETATM    4  N   UNL     1      -8.475  20.638  67.199  1.00  0.00    -0.530 NA 
HETATM    5  H   UNL     1      -7.861  20.509  68.003  1.00  0.00     0.000 HD 
BRANCH   4   6
HETATM    6  C   UNL     1      -8.034  19.809  66.072  1.00  0.00    -0.330 C  
BRANCH   6   7
HETATM    7  C   UNL     1      -6.872  18.909  66.520  1.00  0.00    -0.203 C  
HETATM    8  H   UNL     1      -5.945  18.479  68.208  1.00  0.00     0.000 HD 
HETATM    9  O   UNL     1      -6.663  19.035  67.932  1.00  0.00    -0.215 OA 
BRANCH   7  10
HETATM   10  C   UNL     1      -7.132  17.448  66.149  1.00  0.00    -0.284 C  
BRANCH  10  11
HETATM   11  O   UNL     1      -8.520  17.233  65.831  1.00  0.00    -0.533 OA 
BRANCH  11  12
HETATM   12  C   UNL     1      -9.110  16.228  66.564  1.00  0.00    -0.269 A  
HETATM   13  C   UNL     1     -10.426  16.257  67.009  1.00  0.00    -0.306 A  
HETATM   14  C   UNL     1     -10.937  15.238  67.806  1.00  0.00    -0.312 A  
HETATM   15  C   UNL     1     -10.150  14.144  68.165  1.00  0.00    -0.239 A  
HETATM   16  C   UNL     1      -8.318  15.122  66.885  1.00  0.00    -0.267 A  
HETATM   17  C   UNL     1      -8.833  14.086  67.686  1.00  0.00    -0.190 A  
BRANCH  15  18
HETATM   18  N   UNL     1     -10.628  13.129  69.022  1.00  0.00    -0.424 N  
HETATM   19  H   UNL     1     -10.259  13.109  69.972  1.00  0.00     0.000 HD 
HETATM   20  C   UNL     1     -11.556  12.155  68.683  1.00  0.00    -0.321 C  
HETATM   21  O   UNL     1     -11.977  11.897  67.562  1.00  0.00    -0.586 OA 
HETATM   22  C   UNL     1     -12.031  11.348  69.860  1.00  0.00    -0.434 C  
ENDBRANCH  15  18
ENDBRANCH  11  12
ENDBRANCH  10  11
ENDBRANCH   7  10
ENDBRANCH   6   7
ENDBRANCH   4   6
ENDBRANCH   2   4
TORSDOF 7
ENDMDL
MODEL       24
REMARK 921   NORMALIZED FREE ENERGY PREDICTED BY IDOCK:   -4.99 KCAL/MOL
REMARK 922        TOTAL FREE ENERGY PREDICTED BY IDOCK:   -7.88 KCAL/MOL
REMARK 923 INTER-LIGAND FREE ENERGY PREDICTED BY IDOCK:   -6.96 KCAL/MOL
REMARK 924 INTRA-LIGAND FREE ENERGY PREDICTED BY IDOCK:   -0.92 KCAL/MOL
REMARK 927      BINDING AFFINITY PREDICTED BY RF-SCORE:    0.00 PKD
ROOT
HETATM    1  C   UNL     1     -13.207  11.431  71.826  1.00  0.00    -0.472 C  
HETATM    2  C   UNL     1     -12.619  10.037  71.601  1.00  0.00    -0.427 C  
HETATM    3  C   UNL     1     -13.612   8.976  72.081  1.00  0.00    -0.523 C  
ENDROOT
BRANCH   2   4
HETATM    4  N   UNL     1     -12.321   9.895  70.175  1.00  0.00    -0.490 NA 
HETATM    5  H   UNL     1     -12.560  10.749  69.671  1.00  0.00     0.000 HD 
BRANCH   4   6
HETATM    6  C   UNL     1     -10.936   9.501  69.902  1.00  0.00    -0.238 C  
BRANCH   6   7
HETATM    7  C   UNL     1     -10.242  10.598  69.078  1.00  0.00    -0.215 C  
HETATM    8  H   UNL     1      -8.496  10.855  68.195  1.00  0.00     0.000 HD 
HETATM    9  O   UNL     1      -8.925  10.177  68.704  1.00  0.00    -0.125 OA 
BRANCH   7  10
HETATM   10  C   UNL     1     -11.060  10.954  67.836  1.00  0.00    -0.302 C  
BRANCH  10  11
HETATM   11  O   UNL     1     -12.159  11.823  68.169  1.00  0.00    -0.556 OA 
BRANCH  11  12
HETATM   12  C   UNL     1     -11.814  13.153  68.248  1.00  0.00    -0.349 A  
HETATM   13  C   UNL     1     -12.012  13.945  69.372  1.00  0.00    -0.402 A  
HETATM   14  C   UNL     1     -11.705  15.301  69.358  1.00  0.00    -0.361 A  
HETATM   15  C   UNL     1     -11.167  15.904  68.221  1.00  0.00    -0.354 A  
HETATM   16  C   UNL     1     -11.243  13.733  67.111  1.00  0.00    -0.327 A  
HETATM   17  C   UNL     1     -10.925  15.104  67.095  1.00  0.00    -0.326 A  
BRANCH  15  18
HETATM   18  N   UNL     1     -10.904  17.290  68.164  1.00  0.00    -0.353 N  
HETATM   19  H   UNL     1     -11.650  17.892  67.817  1.00  0.00     0.000 HD 
HETATM   20  C   UNL     1      -9.717  17.904  68.539  1.00  0.00    -0.351 C  
HETATM   21  O   UNL     1      -8.655  17.353  68.805  1.00  0.00    -0.275 OA 
HETATM   22  C   UNL     1      -9.807  19.405  68.572  1.00  0.00    -0.509 C  
ENDBRANCH  15  18
ENDBRANCH  11  12
ENDBRANCH  10  11
ENDBRANCH   7  10
ENDBRANCH   6   7
ENDBRANCH   4   6
ENDBRANCH   2   4
TORSDOF 7
ENDMDL
MODEL       25
REMARK 921   NORMALIZED FREE ENERGY PREDICTED BY IDOCK:   -4.98 KCAL/MOL
REMARK 922        TOTAL FREE ENERGY PREDICTED BY IDOCK:   -7.86 KCAL/MOL
REMARK 923 INTER-LIGAND FREE ENERGY PREDICTED BY IDOCK:   -6.94 KCAL/MOL
REMARK 924 INTRA-LIGAND FREE ENERGY PREDICTED BY IDOCK:   -0.92 KCAL/MOL
REMARK 927      BINDING AFFINITY PREDICTED BY RF-SCORE:    0.00 PKD
ROOT
HETATM    1  C   UNL     1     -11.706   5.968  72.266  1.00  0.00    -0.338 C  
HETATM    2  C   UNL     1     -12.558   6.938  71.446  1.00  0.00    -0.353 C  
HETATM    3  C   UNL     1     -12.398   8.357  71.999  1.00  0.00    -0.413 C  
ENDROOT
BRANCH   2   4
HETATM    4  N   UNL     1     -12.130   6.848  70.050  1.00  0.00    -0.637 NA 
HETATM    5  H   UNL     1     -12.012   7.779  69.649  1.00  0.00     0.000 HD 
BRANCH   4   6
HETATM    6  C   UNL     1     -10.919   6.044  69.858  1.00  0.00    -0.388 C  
BRANCH   6   7
HETATM    7  C   UNL     1     -10.268   6.408  68.514  1.00  0.00    -0.175 C  
HETATM    8  H   UNL     1     -10.865   6.744  66.664  1.00  0.00     0.000 HD 
HETATM    9  O   UNL     1     -11.268   6.520  67.494  1.00  0.00    -0.343 OA 
BRANCH   7  10
HETATM   10  C   UNL     1      -9.471   7.708  68.623  1.00  0.00    -0.151 C  
BRANCH  10  11
HETATM   11  O   UNL     1     -10.243   8.738  69.269  1.00  0.00    -0.200 OA 
BRANCH  11  12
HETATM   12  C   UNL     1     -10.582   9.784  68.441  1.00  0.00    -0.226 A  
HETATM   13  C   UNL     1     -10.177   9.892  67.117  1.00  0.00    -0.285 A  
HETATM   14  C   UNL     1     -10.497  11.012  66.357  1.00  0.00    -0.312 A  
HETATM   15  C   UNL     1     -11.255  12.052  66.896  1.00  0.00    -0.320 A  
HETATM   16  C   UNL     1     -11.371  10.800  68.986  1.00  0.00    -0.349 A  
HETATM   17  C   UNL     1     -11.703  11.932  68.219  1.00  0.00    -0.385 A  
BRANCH  15  18
HETATM   18  N   UNL     1     -11.541  13.225  66.164  1.00  0.00    -0.333 N  
HETATM   19  H   UNL     1     -11.045  14.074  66.431  1.00  0.00     0.000 HD 
HETATM   20  C   UNL     1     -12.440  13.322  65.111  1.00  0.00    -0.470 C  
HETATM   21  O   UNL     1     -13.256  12.478  64.759  1.00  0.00    -0.839 OA 
HETATM   22  C   UNL     1     -12.373  14.640  64.389  1.00  0.00    -0.420 C  
ENDBRANCH  15  18
ENDBRANCH  11  12
ENDBRANCH  10  11
ENDBRANCH   7  10
ENDBRANCH   6   7
ENDBRANCH   4   6
ENDBRANCH   2   4
TORSDOF 7
ENDMDL
MODEL       26
REMARK 921   NORMALIZED FREE ENERGY PREDICTED BY IDOCK:   -4.98 KCAL/MOL
REMARK 922        TOTAL FREE ENERGY PREDICTED BY IDOCK:   -7.86 KCAL/MOL
REMARK 923 INTER-LIGAND FREE ENERGY PREDICTED BY IDOCK:   -6.84 KCAL/MOL
REMARK 924 INTRA-LIGAND FREE ENERGY PREDICTED BY IDOCK:   -1.02 KCAL/MOL
REMARK 927      BINDING AFFINITY PREDICTED BY RF-SCORE:    0.00 PKD
ROOT
HETATM    1  C   UNL     1     -10.178  11.145  66.599  1.00  0.00    -0.274 C  
HETATM    2  C   UNL     1      -9.375  11.180  65.298  1.00  0.00    -0.219 C  
HETATM    3  C   UNL     1      -9.524   9.844  64.565  1.00  0.00    -0.328 C  
ENDROOT
BRANCH   2   4
HETATM    4  N   UNL     1      -9.866  12.299  64.492  1.00  0.00    -0.478 NA 
HETATM    5  H   UNL     1      -9.121  12.674  63.906  1.00  0.00     0.000 HD 
BRANCH   4   6
HETATM    6  C   UNL     1     -11.044  11.967  63.685  1.00  0.00    -0.452 C  
BRANCH   6   7
HETATM    7  C   UNL     1     -12.152  13.000  63.946  1.00  0.00    -0.471 C  
HETATM    8  H   UNL     1     -13.825  13.093  64.988  1.00  0.00     0.000 HD 
HETATM    9  O   UNL     1     -13.140  12.454  64.828  1.00  0.00    -0.806 OA 
BRANCH   7  10
HETATM   10  C   UNL     1     -11.575  14.292  64.527  1.00  0.00    -0.387 C  
BRANCH  10  11
HETATM   11  O   UNL     1     -11.572  14.257  65.967  1.00  0.00    -0.342 OA 
BRANCH  11  12
HETATM   12  C   UNL     1     -10.722  15.171  66.545  1.00  0.00    -0.310 A  
HETATM   13  C   UNL     1      -9.452  15.468  66.064  1.00  0.00    -0.387 A  
HETATM   14  C   UNL     1      -8.617  16.352  66.739  1.00  0.00    -0.270 A  
HETATM   15  C   UNL     1      -9.038  16.986  67.908  1.00  0.00    -0.232 A  
HETATM   16  C   UNL     1     -11.172  15.824  67.696  1.00  0.00    -0.246 A  
HETATM   17  C   UNL     1     -10.332  16.724  68.378  1.00  0.00    -0.319 A  
BRANCH  15  18
HETATM   18  N   UNL     1      -8.186  17.840  68.643  1.00  0.00    -0.290 N  
HETATM   19  H   UNL     1      -7.680  17.431  69.427  1.00  0.00     0.000 HD 
HETATM   20  C   UNL     1      -7.979  19.188  68.390  1.00  0.00    -0.341 C  
HETATM   21  O   UNL     1      -8.616  19.900  67.623  1.00  0.00    -0.316 OA 
HETATM   22  C   UNL     1      -6.858  19.781  69.198  1.00  0.00    -0.373 C  
ENDBRANCH  15  18
ENDBRANCH  11  12
ENDBRANCH  10  11
ENDBRANCH   7  10
ENDBRANCH   6   7
ENDBRANCH   4   6
ENDBRANCH   2   4
TORSDOF 7
ENDMDL
MODEL       27
REMARK 921   NORMALIZED FREE ENERGY PREDICTED BY IDOCK:   -4.97 KCAL/MOL
REMARK 922        TOTAL FREE ENERGY PREDICTED BY IDOCK:   -7.85 KCAL/MOL
REMARK 923 INTER-LIGAND FREE ENERGY PREDICTED BY IDOCK:   -7.05 KCAL/MOL
REMARK 924 INTRA-LIGAND FREE ENERGY PREDICTED BY IDOCK:   -0.79 KCAL/MOL
REMARK 927      BINDING AFFINITY PREDICTED BY RF-SCORE:    0.00 PKD
ROOT
HETATM    1  C   UNL     1     -11.813  11.230  68.669  1.00  0.00    -0.369 C  
HETATM    2  C   UNL     1     -11.541  12.527  67.905  1.00  0.00    -0.347 C  
HETATM    3  C   UNL     1     -10.056  12.882  68.005  1.00  0.00    -0.235 C  
ENDROOT
BRANCH   2   4
HETATM    4  N   UNL     1     -11.959  12.330  66.516  1.00  0.00    -0.626 NA 
HETATM    5  H   UNL     1     -12.588  11.531  66.439  1.00  0.00     0.000 HD 
BRANCH   4   6
HETATM    6  C   UNL     1     -12.560  13.523  65.910  1.00  0.00    -0.396 C  
BRANCH   6   7
HETATM    7  C   UNL     1     -11.714  13.969  64.707  1.00  0.00    -0.394 C  
HETATM    8  H   UNL     1     -12.035  14.524  62.841  1.00  0.00     0.000 HD 
HETATM    9  O   UNL     1     -12.558  14.248  63.584  1.00  0.00    -0.831 OA 
BRANCH   7  10
HETATM   10  C   UNL     1     -10.868  15.196  65.054  1.00  0.00    -0.440 C  
BRANCH  10  11
HETATM   11  O   UNL     1     -11.153  15.663  66.386  1.00  0.00    -0.254 OA 
BRANCH  11  12
HETATM   12  C   UNL     1     -10.251  16.591  66.855  1.00  0.00    -0.296 A  
HETATM   13  C   UNL     1     -10.547  17.548  67.819  1.00  0.00    -0.375 A  
HETATM   14  C   UNL     1      -9.608  18.501  68.196  1.00  0.00    -0.353 A  
HETATM   15  C   UNL     1      -8.332  18.513  67.634  1.00  0.00    -0.255 A  
HETATM   16  C   UNL     1      -8.966  16.567  66.307  1.00  0.00    -0.359 A  
HETATM   17  C   UNL     1      -8.010  17.527  66.691  1.00  0.00    -0.288 A  
BRANCH  15  18
HETATM   18  N   UNL     1      -7.383  19.508  67.957  1.00  0.00    -0.273 N  
HETATM   19  H   UNL     1      -7.397  20.364  67.402  1.00  0.00     0.000 HD 
HETATM   20  C   UNL     1      -6.431  19.422  68.963  1.00  0.00    -0.299 C  
HETATM   21  O   UNL     1      -6.133  18.426  69.611  1.00  0.00    -0.253 OA 
HETATM   22  C   UNL     1      -5.707  20.717  69.211  1.00  0.00    -0.408 C  
ENDBRANCH  15  18
ENDBRANCH  11  12
ENDBRANCH  10  11
ENDBRANCH   7  10
ENDBRANCH   6   7
ENDBRANCH   4   6
ENDBRANCH   2   4
TORSDOF 7
ENDMDL
MODEL       28
REMARK 921   NORMALIZED FREE ENERGY PREDICTED BY IDOCK:   -4.97 KCAL/MOL
REMARK 922        TOTAL FREE ENERGY PREDICTED BY IDOCK:   -7.84 KCAL/MOL
REMARK 923 INTER-LIGAND FREE ENERGY PREDICTED BY IDOCK:   -6.81 KCAL/MOL
REMARK 924 INTRA-LIGAND FREE ENERGY PREDICTED BY IDOCK:   -1.03 KCAL/MOL
REMARK 927      BINDING AFFINITY PREDICTED BY RF-SCORE:    0.00 PKD
ROOT
HETATM    1  C   UNL     1     -12.056  14.279  64.771  1.00  0.00    -0.457 C  
HETATM    2  C   UNL     1     -12.671  12.880  64.823  1.00  0.00    -0.370 C  
HETATM    3  C   UNL     1     -12.356  12.130  63.527  1.00  0.00    -0.682 C  
ENDROOT
BRANCH   2   4
HETATM    4  N   UNL     1     -12.127  12.190  65.994  1.00  0.00    -0.586 NA 
HETATM    5  H   UNL     1     -12.792  11.502  66.347  1.00  0.00     0.000 HD 
BRANCH   4   6
HETATM    6  C   UNL     1     -10.818  11.574  65.757  1.00  0.00    -0.262 C  
BRANCH   6   7
HETATM    7  C   UNL     1     -10.386  10.790  67.006  1.00  0.00    -0.228 C  
HETATM    8  H   UNL     1      -9.184   9.280  67.420  1.00  0.00     0.000 HD 
HETATM    9  O   UNL     1      -9.451   9.764  66.648  1.00  0.00    -0.158 OA 
BRANCH   7  10
HETATM   10  C   UNL     1      -9.777  11.720  68.056  1.00  0.00    -0.185 C  
BRANCH  10  11
HETATM   11  O   UNL     1     -10.801  12.437  68.771  1.00  0.00    -0.228 OA 
BRANCH  11  12
HETATM   12  C   UNL     1     -10.745  13.802  68.605  1.00  0.00    -0.256 A  
HETATM   13  C   UNL     1     -11.781  14.670  68.926  1.00  0.00    -0.343 A  
HETATM   14  C   UNL     1     -11.683  16.033  68.666  1.00  0.00    -0.273 A  
HETATM   15  C   UNL     1     -10.531  16.574  68.095  1.00  0.00    -0.313 A  
HETATM   16  C   UNL     1      -9.570  14.332  68.064  1.00  0.00    -0.223 A  
HETATM   17  C   UNL     1      -9.464  15.712  67.805  1.00  0.00    -0.208 A  
BRANCH  15  18
HETATM   18  N   UNL     1     -10.433  17.944  67.766  1.00  0.00    -0.388 N  
HETATM   19  H   UNL     1     -10.330  18.602  68.538  1.00  0.00     0.000 HD 
HETATM   20  C   UNL     1     -10.464  18.472  66.484  1.00  0.00    -0.398 C  
HETATM   21  O   UNL     1     -10.758  17.881  65.451  1.00  0.00    -0.634 OA 
HETATM   22  C   UNL     1     -10.121  19.935  66.433  1.00  0.00    -0.615 C  
ENDBRANCH  15  18
ENDBRANCH  11  12
ENDBRANCH  10  11
ENDBRANCH   7  10
ENDBRANCH   6   7
ENDBRANCH   4   6
ENDBRANCH   2   4
TORSDOF 7
ENDMDL
MODEL       29
REMARK 921   NORMALIZED FREE ENERGY PREDICTED BY IDOCK:   -4.96 KCAL/MOL
REMARK 922        TOTAL FREE ENERGY PREDICTED BY IDOCK:   -7.83 KCAL/MOL
REMARK 923 INTER-LIGAND FREE ENERGY PREDICTED BY IDOCK:   -7.05 KCAL/MOL
REMARK 924 INTRA-LIGAND FREE ENERGY PREDICTED BY IDOCK:   -0.78 KCAL/MOL
REMARK 927      BINDING AFFINITY PREDICTED BY RF-SCORE:    0.00 PKD
ROOT
HETATM    1  C   UNL     1      -9.360  14.776  68.746  1.00  0.00    -0.198 C  
HETATM    2  C   UNL     1     -10.501  15.624  69.309  1.00  0.00    -0.247 C  
HETATM    3  C   UNL     1     -11.770  15.394  68.485  1.00  0.00    -0.355 C  
ENDROOT
BRANCH   2   4
HETATM    4  N   UNL     1     -10.691  15.253  70.712  1.00  0.00    -0.513 NA 
HETATM    5  H   UNL     1      -9.832  15.397  71.242  1.00  0.00     0.000 HD 
BRANCH   4   6
HETATM    6  C   UNL     1     -11.817  15.941  71.353  1.00  0.00    -0.463 C  
BRANCH   6   7
HETATM    7  C   UNL     1     -12.126  15.271  72.702  1.00  0.00    -0.419 C  
HETATM    8  H   UNL     1     -12.761  15.836  74.483  1.00  0.00     0.000 HD 
HETATM    9  O   UNL     1     -12.570  16.250  73.650  1.00  0.00    -0.508 OA 
BRANCH   7  10
HETATM   10  C   UNL     1     -13.177  14.171  72.543  1.00  0.00    -0.502 C  
BRANCH  10  11
HETATM   11  O   UNL     1     -13.191  13.658  71.197  1.00  0.00    -0.278 OA 
BRANCH  11  12
HETATM   12  C   UNL     1     -12.784  12.347  71.097  1.00  0.00    -0.240 A  
HETATM   13  C   UNL     1     -13.190  11.336  71.960  1.00  0.00    -0.437 A  
HETATM   14  C   UNL     1     -12.684  10.046  71.844  1.00  0.00    -0.493 A  
HETATM   15  C   UNL     1     -11.770   9.721  70.841  1.00  0.00    -0.347 A  
HETATM   16  C   UNL     1     -11.896  12.030  70.065  1.00  0.00    -0.392 A  
HETATM   17  C   UNL     1     -11.387  10.725  69.939  1.00  0.00    -0.385 A  
BRANCH  15  18
HETATM   18  N   UNL     1     -11.198   8.434  70.740  1.00  0.00    -0.262 N  
HETATM   19  H   UNL     1     -10.216   8.381  70.471  1.00  0.00     0.000 HD 
HETATM   20  C   UNL     1     -11.856   7.236  70.976  1.00  0.00    -0.318 C  
HETATM   21  O   UNL     1     -13.061   7.075  71.129  1.00  0.00    -0.345 OA 
HETATM   22  C   UNL     1     -10.937   6.046  71.003  1.00  0.00    -0.350 C  
ENDBRANCH  15  18
ENDBRANCH  11  12
ENDBRANCH  10  11
ENDBRANCH   7  10
ENDBRANCH   6   7
ENDBRANCH   4   6
ENDBRANCH   2   4
TORSDOF 7
ENDMDL
MODEL       30
REMARK 921   NORMALIZED FREE ENERGY PREDICTED BY IDOCK:   -4.95 KCAL/MOL
REMARK 922        TOTAL FREE ENERGY PREDICTED BY IDOCK:   -7.82 KCAL/MOL
REMARK 923 INTER-LIGAND FREE ENERGY PREDICTED BY IDOCK:   -6.99 KCAL/MOL
REMARK 924 INTRA-LIGAND FREE ENERGY PREDICTED BY IDOCK:   -0.83 KCAL/MOL
REMARK 927      BINDING AFFINITY PREDICTED BY RF-SCORE:    0.00 PKD
ROOT
HETATM    1  C   UNL     1     -12.850  10.819  70.993  1.00  0.00    -0.480 C  
HETATM    2  C   UNL     1     -11.641  10.895  70.059  1.00  0.00    -0.341 C  
HETATM    3  C   UNL     1     -10.612   9.836  70.462  1.00  0.00    -0.376 C  
ENDROOT
BRANCH   2   4
HETATM    4  N   UNL     1     -12.114  10.698  68.688  1.00  0.00    -0.812 NA 
HETATM    5  H   UNL     1     -12.583  11.536  68.345  1.00  0.00     0.000 HD 
BRANCH   4   6
HETATM    6  C   UNL     1     -11.061  10.275  67.760  1.00  0.00    -0.269 C  
BRANCH   6   7
HETATM    7  C   UNL     1     -10.490  11.505  67.036  1.00  0.00    -0.228 C  
HETATM    8  H   UNL     1      -8.933  11.917  65.895  1.00  0.00     0.000 HD 
HETATM    9  O   UNL     1      -9.286  11.156  66.342  1.00  0.00    -0.173 OA 
BRANCH   7  10
HETATM   10  C   UNL     1     -11.512  12.096  66.064  1.00  0.00    -0.370 C  
BRANCH  10  11
HETATM   11  O   UNL     1     -12.304  13.117  66.701  1.00  0.00    -0.330 OA 
BRANCH  11  12
HETATM   12  C   UNL     1     -11.667  14.333  66.804  1.00  0.00    -0.405 A  
HETATM   13  C   UNL     1     -11.022  14.968  65.750  1.00  0.00    -0.351 A  
HETATM   14  C   UNL     1     -10.337  16.163  65.942  1.00  0.00    -0.384 A  
HETATM   15  C   UNL     1     -10.296  16.772  67.196  1.00  0.00    -0.297 A  
HETATM   16  C   UNL     1     -11.665  14.947  68.059  1.00  0.00    -0.344 A  
HETATM   17  C   UNL     1     -10.978  16.160  68.257  1.00  0.00    -0.340 A  
BRANCH  15  18
HETATM   18  N   UNL     1      -9.557  17.953  67.429  1.00  0.00    -0.267 N  
HETATM   19  H   UNL     1      -8.626  17.849  67.832  1.00  0.00     0.000 HD 
HETATM   20  C   UNL     1      -9.987  19.244  67.155  1.00  0.00    -0.360 C  
HETATM   21  O   UNL     1     -11.120  19.592  66.844  1.00  0.00    -0.406 OA 
HETATM   22  C   UNL     1      -8.906  20.278  67.305  1.00  0.00    -0.454 C  
ENDBRANCH  15  18
ENDBRANCH  11  12
ENDBRANCH  10  11
ENDBRANCH   7  10
ENDBRANCH   6   7
ENDBRANCH   4   6
ENDBRANCH   2   4
TORSDOF 7
ENDMDL
MODEL       31
REMARK 921   NORMALIZED FREE ENERGY PREDICTED BY IDOCK:   -4.95 KCAL/MOL
REMARK 922        TOTAL FREE ENERGY PREDICTED BY IDOCK:   -7.81 KCAL/MOL
REMARK 923 INTER-LIGAND FREE ENERGY PREDICTED BY IDOCK:   -7.10 KCAL/MOL
REMARK 924 INTRA-LIGAND FREE ENERGY PREDICTED BY IDOCK:   -0.72 KCAL/MOL
REMARK 927      BINDING AFFINITY PREDICTED BY RF-SCORE:    0.00 PKD
ROOT
HETATM    1  C   UNL     1     -10.921  14.721  65.414  1.00  0.00    -0.365 C  
HETATM    2  C   UNL     1     -12.089  13.906  65.972  1.00  0.00    -0.437 C  
HETATM    3  C   UNL     1     -11.785  12.412  65.838  1.00  0.00    -0.476 C  
ENDROOT
BRANCH   2   4
HETATM    4  N   UNL     1     -12.286  14.296  67.368  1.00  0.00    -0.591 NA 
HETATM    5  H   UNL     1     -12.969  13.687  67.819  1.00  0.00     0.000 HD 
BRANCH   4   6
HETATM    6  C   UNL     1     -11.043  14.346  68.145  1.00  0.00    -0.264 C  
BRANCH   6   7
HETATM    7  C   UNL     1     -11.371  14.619  69.621  1.00  0.00    -0.280 C  
HETATM    8  H   UNL     1     -12.305  16.012  70.661  1.00  0.00     0.000 HD 
HETATM    9  O   UNL     1     -12.103  15.843  69.748  1.00  0.00    -0.325 OA 
BRANCH   7  10
HETATM   10  C   UNL     1     -12.160  13.461  70.233  1.00  0.00    -0.349 C  
BRANCH  10  11
HETATM   11  O   UNL     1     -12.017  12.262  69.449  1.00  0.00    -0.297 OA 
BRANCH  11  12
HETATM   12  C   UNL     1     -11.846  11.121  70.199  1.00  0.00    -0.365 A  
HETATM   13  C   UNL     1     -10.792  10.231  70.036  1.00  0.00    -0.364 A  
HETATM   14  C   UNL     1     -10.720   9.059  70.782  1.00  0.00    -0.301 A  
HETATM   15  C   UNL     1     -11.692   8.753  71.734  1.00  0.00    -0.346 A  
HETATM   16  C   UNL     1     -12.810  10.847  71.173  1.00  0.00    -0.508 A  
HETATM   17  C   UNL     1     -12.738   9.666  71.935  1.00  0.00    -0.499 A  
BRANCH  15  18
HETATM   18  N   UNL     1     -11.672   7.542  72.460  1.00  0.00    -0.467 N  
HETATM   19  H   UNL     1     -12.474   6.922  72.354  1.00  0.00     0.000 HD 
HETATM   20  C   UNL     1     -10.655   7.123  73.305  1.00  0.00    -0.364 C  
HETATM   21  O   UNL     1      -9.707   7.789  73.704  1.00  0.00    -0.293 OA 
HETATM   22  C   UNL     1     -10.812   5.700  73.767  1.00  0.00    -0.207 C  
ENDBRANCH  15  18
ENDBRANCH  11  12
ENDBRANCH  10  11
ENDBRANCH   7  10
ENDBRANCH   6   7
ENDBRANCH   4   6
ENDBRANCH   2   4
TORSDOF 7
ENDMDL
MODEL       32
REMARK 921   NORMALIZED FREE ENERGY PREDICTED BY IDOCK:   -4.93 KCAL/MOL
REMARK 922        TOTAL FREE ENERGY PREDICTED BY IDOCK:   -7.79 KCAL/MOL
REMARK 923 INTER-LIGAND FREE ENERGY PREDICTED BY IDOCK:   -7.04 KCAL/MOL
REMARK 924 INTRA-LIGAND FREE ENERGY PREDICTED BY IDOCK:   -0.75 KCAL/MOL
REMARK 927      BINDING AFFINITY PREDICTED BY RF-SCORE:    0.00 PKD
ROOT
HETATM    1  C   UNL     1      -9.022  19.300  68.495  1.00  0.00    -0.414 C  
HETATM    2  C   UNL     1     -10.388  19.059  67.851  1.00  0.00    -0.405 C  
HETATM    3  C   UNL     1     -10.526  19.924  66.596  1.00  0.00    -0.580 C  
ENDROOT
BRANCH   2   4
HETATM    4  N   UNL     1     -10.498  17.633  67.542  1.00  0.00    -0.364 NA 
HETATM    5  H   UNL     1     -11.467  17.323  67.612  1.00  0.00     0.000 HD 
BRANCH   4   6
HETATM    6  C   UNL     1      -9.930  17.270  66.240  1.00  0.00    -0.300 C  
BRANCH   6   7
HETATM    7  C   UNL     1     -10.892  16.322  65.505  1.00  0.00    -0.245 C  
HETATM    8  H   UNL     1     -11.711  16.198  63.714  1.00  0.00     0.000 HD 
HETATM    9  O   UNL     1     -11.116  16.783  64.168  1.00  0.00    -1.061 OA 
BRANCH   7  10
HETATM   10  C   UNL     1     -10.352  14.892  65.491  1.00  0.00    -0.365 C  
BRANCH  10  11
HETATM   11  O   UNL     1      -9.675  14.579  66.723  1.00  0.00    -0.242 OA 
BRANCH  11  12
HETATM   12  C   UNL     1     -10.452  13.892  67.627  1.00  0.00    -0.245 A  
HETATM   13  C   UNL     1     -10.776  14.362  68.894  1.00  0.00    -0.260 A  
HETATM   14  C   UNL     1     -11.508  13.583  69.784  1.00  0.00    -0.246 A  
HETATM   15  C   UNL     1     -11.959  12.313  69.423  1.00  0.00    -0.259 A  
HETATM   16  C   UNL     1     -10.925  12.636  67.237  1.00  0.00    -0.291 A  
HETATM   17  C   UNL     1     -11.672  11.847  68.132  1.00  0.00    -0.388 A  
BRANCH  15  18
HETATM   18  N   UNL     1     -12.651  11.481  70.330  1.00  0.00    -0.202 N  
HETATM   19  H   UNL     1     -13.601  11.753  70.581  1.00  0.00     0.000 HD 
HETATM   20  C   UNL     1     -12.149  10.324  70.910  1.00  0.00    -0.368 C  
HETATM   21  O   UNL     1     -10.989   9.930  70.883  1.00  0.00    -0.319 OA 
HETATM   22  C   UNL     1     -13.186   9.535  71.661  1.00  0.00    -0.486 C  
ENDBRANCH  15  18
ENDBRANCH  11  12
ENDBRANCH  10  11
ENDBRANCH   7  10
ENDBRANCH   6   7
ENDBRANCH   4   6
ENDBRANCH   2   4
TORSDOF 7
ENDMDL
MODEL       33
REMARK 921   NORMALIZED FREE ENERGY PREDICTED BY IDOCK:   -4.89 KCAL/MOL
REMARK 922        TOTAL FREE ENERGY PREDICTED BY IDOCK:   -7.73 KCAL/MOL
REMARK 923 INTER-LIGAND FREE ENERGY PREDICTED BY IDOCK:   -6.98 KCAL/MOL
REMARK 924 INTRA-LIGAND FREE ENERGY PREDICTED BY IDOCK:   -0.75 KCAL/MOL
REMARK 927      BINDING AFFINITY PREDICTED BY RF-SCORE:    0.00 PKD
ROOT
HETATM    1  C   UNL     1     -10.880  16.415  65.129  1.00  0.00    -0.289 C  
HETATM    2  C   UNL     1      -9.828  15.355  65.457  1.00  0.00    -0.324 C  
HETATM    3  C   UNL     1      -9.651  15.258  66.974  1.00  0.00    -0.233 C  
ENDROOT
BRANCH   2   4
HETATM    4  N   UNL     1     -10.269  14.085  64.880  1.00  0.00    -0.552 NA 
HETATM    5  H   UNL     1     -10.237  13.342  65.577  1.00  0.00     0.000 HD 
BRANCH   4   6
HETATM    6  C   UNL     1     -11.594  14.154  64.255  1.00  0.00    -0.309 C  
BRANCH   6   7
HETATM    7  C   UNL     1     -12.500  13.064  64.851  1.00  0.00    -0.455 C  
HETATM    8  H   UNL     1     -13.520  11.510  64.187  1.00  0.00     0.000 HD 
HETATM    9  O   UNL     1     -12.960  12.183  63.818  1.00  0.00    -0.753 OA 
BRANCH   7  10
HETATM   10  C   UNL     1     -11.769  12.274  65.937  1.00  0.00    -0.389 C  
BRANCH  10  11
HETATM   11  O   UNL     1     -12.009  12.838  67.240  1.00  0.00    -0.369 OA 
BRANCH  11  12
HETATM   12  C   UNL     1     -11.784  11.961  68.277  1.00  0.00    -0.321 A  
HETATM   13  C   UNL     1     -11.151  10.733  68.136  1.00  0.00    -0.337 A  
HETATM   14  C   UNL     1     -11.019   9.864  69.215  1.00  0.00    -0.244 A  
HETATM   15  C   UNL     1     -11.501  10.211  70.477  1.00  0.00    -0.337 A  
HETATM   16  C   UNL     1     -12.242  12.338  69.543  1.00  0.00    -0.153 A  
HETATM   17  C   UNL     1     -12.105  11.465  70.638  1.00  0.00    -0.469 A  
BRANCH  15  18
HETATM   18  N   UNL     1     -11.434   9.321  71.572  1.00  0.00    -0.358 N  
HETATM   19  H   UNL     1     -12.315   9.048  72.006  1.00  0.00     0.000 HD 
HETATM   20  C   UNL     1     -10.271   8.786  72.109  1.00  0.00    -0.301 C  
HETATM   21  O   UNL     1      -9.120   9.121  71.855  1.00  0.00    -0.354 OA 
HETATM   22  C   UNL     1     -10.525   7.706  73.124  1.00  0.00    -0.433 C  
ENDBRANCH  15  18
ENDBRANCH  11  12
ENDBRANCH  10  11
ENDBRANCH   7  10
ENDBRANCH   6   7
ENDBRANCH   4   6
ENDBRANCH   2   4
TORSDOF 7
ENDMDL
MODEL       34
REMARK 921   NORMALIZED FREE ENERGY PREDICTED BY IDOCK:   -4.88 KCAL/MOL
REMARK 922        TOTAL FREE ENERGY PREDICTED BY IDOCK:   -7.72 KCAL/MOL
REMARK 923 INTER-LIGAND FREE ENERGY PREDICTED BY IDOCK:   -6.77 KCAL/MOL
REMARK 924 INTRA-LIGAND FREE ENERGY PREDICTED BY IDOCK:   -0.94 KCAL/MOL
REMARK 927      BINDING AFFINITY PREDICTED BY RF-SCORE:    0.00 PKD
ROOT
HETATM    1  C   UNL     1     -12.279  14.374  64.188  1.00  0.00    -0.393 C  
HETATM    2  C   UNL     1     -12.140  12.918  64.636  1.00  0.00    -0.418 C  
HETATM    3  C   UNL     1     -12.420  11.987  63.454  1.00  0.00    -0.625 C  
ENDROOT
BRANCH   2   4
HETATM    4  N   UNL     1     -10.788  12.734  65.163  1.00  0.00    -0.284 NA 
HETATM    5  H   UNL     1     -10.358  13.634  65.374  1.00  0.00     0.000 HD 
BRANCH   4   6
HETATM    6  C   UNL     1     -10.728  11.845  66.328  1.00  0.00    -0.271 C  
BRANCH   6   7
HETATM    7  C   UNL     1     -11.786  12.276  67.357  1.00  0.00    -0.335 C  
HETATM    8  H   UNL     1     -12.749  11.453  68.870  1.00  0.00     0.000 HD 
HETATM    9  O   UNL     1     -12.095  11.187  68.235  1.00  0.00    -0.620 OA 
BRANCH   7  10
HETATM   10  C   UNL     1     -11.311  13.487  68.161  1.00  0.00    -0.286 C  
BRANCH  10  11
HETATM   11  O   UNL     1     -11.838  14.712  67.616  1.00  0.00    -0.367 OA 
BRANCH  11  12
HETATM   12  C   UNL     1     -10.922  15.737  67.559  1.00  0.00    -0.293 A  
HETATM   13  C   UNL     1      -9.947  15.857  66.576  1.00  0.00    -0.286 A  
HETATM   14  C   UNL     1      -9.007  16.881  66.618  1.00  0.00    -0.279 A  
HETATM   15  C   UNL     1      -9.027  17.832  67.638  1.00  0.00    -0.249 A  
HETATM   16  C   UNL     1     -10.978  16.701  68.569  1.00  0.00    -0.339 A  
HETATM   17  C   UNL     1     -10.032  17.742  68.612  1.00  0.00    -0.379 A  
BRANCH  15  18
HETATM   18  N   UNL     1      -8.047  18.844  67.736  1.00  0.00    -0.256 N  
HETATM   19  H   UNL     1      -7.152  18.588  68.152  1.00  0.00     0.000 HD 
HETATM   20  C   UNL     1      -8.196  20.158  67.315  1.00  0.00    -0.336 C  
HETATM   21  O   UNL     1      -9.234  20.705  66.962  1.00  0.00    -0.336 OA 
HETATM   22  C   UNL     1      -6.914  20.944  67.348  1.00  0.00    -0.426 C  
ENDBRANCH  15  18
ENDBRANCH  11  12
ENDBRANCH  10  11
ENDBRANCH   7  10
ENDBRANCH   6   7
ENDBRANCH   4   6
ENDBRANCH   2   4
TORSDOF 7
ENDMDL
MODEL       35
REMARK 921   NORMALIZED FREE ENERGY PREDICTED BY IDOCK:   -4.88 KCAL/MOL
REMARK 922        TOTAL FREE ENERGY PREDICTED BY IDOCK:   -7.71 KCAL/MOL
REMARK 923 INTER-LIGAND FREE ENERGY PREDICTED BY IDOCK:   -6.86 KCAL/MOL
REMARK 924 INTRA-LIGAND FREE ENERGY PREDICTED BY IDOCK:   -0.85 KCAL/MOL
REMARK 927      BINDING AFFINITY PREDICTED BY RF-SCORE:    0.00 PKD
ROOT
HETATM    1  C   UNL     1     -12.700  15.567  73.774  1.00  0.00    -0.735 C  
HETATM    2  C   UNL     1     -12.756  14.985  72.361  1.00  0.00    -0.342 C  
HETATM    3  C   UNL     1     -14.187  14.546  72.041  1.00  0.00    -0.630 C  
ENDROOT
BRANCH   2   4
HETATM    4  N   UNL     1     -12.282  16.010  71.430  1.00  0.00    -0.563 NA 
HETATM    5  H   UNL     1     -12.261  16.924  71.882  1.00  0.00     0.000 HD 
BRANCH   4   6
HETATM    6  C   UNL     1     -10.983  15.699  70.827  1.00  0.00    -0.311 C  
BRANCH   6   7
HETATM    7  C   UNL     1     -10.868  16.401  69.464  1.00  0.00    -0.338 C  
HETATM    8  H   UNL     1      -9.423  17.109  68.321  1.00  0.00     0.000 HD 
HETATM    9  O   UNL     1      -9.494  16.675  69.163  1.00  0.00    -0.252 OA 
BRANCH   7  10
HETATM   10  C   UNL     1     -11.497  15.556  68.356  1.00  0.00    -0.363 C  
BRANCH  10  11
HETATM   11  O   UNL     1     -12.245  14.454  68.903  1.00  0.00    -0.281 OA 
BRANCH  11  12
HETATM   12  C   UNL     1     -11.814  13.220  68.473  1.00  0.00    -0.349 A  
HETATM   13  C   UNL     1     -11.450  12.934  67.163  1.00  0.00    -0.388 A  
HETATM   14  C   UNL     1     -11.092  11.645  66.782  1.00  0.00    -0.366 A  
HETATM   15  C   UNL     1     -11.065  10.604  67.710  1.00  0.00    -0.321 A  
HETATM   16  C   UNL     1     -11.760  12.196  69.423  1.00  0.00    -0.391 A  
HETATM   17  C   UNL     1     -11.392  10.892  69.043  1.00  0.00    -0.348 A  
BRANCH  15  18
HETATM   18  N   UNL     1     -10.764   9.276  67.335  1.00  0.00    -0.377 N  
HETATM   19  H   UNL     1     -11.549   8.644  67.188  1.00  0.00     0.000 HD 
HETATM   20  C   UNL     1      -9.490   8.758  67.149  1.00  0.00    -0.162 C  
HETATM   21  O   UNL     1      -8.427   9.292  67.445  1.00  0.00    -0.121 OA 
HETATM   22  C   UNL     1      -9.489   7.382  66.543  1.00  0.00    -0.229 C  
ENDBRANCH  15  18
ENDBRANCH  11  12
ENDBRANCH  10  11
ENDBRANCH   7  10
ENDBRANCH   6   7
ENDBRANCH   4   6
ENDBRANCH   2   4
TORSDOF 7
ENDMDL
MODEL       36
REMARK 921   NORMALIZED FREE ENERGY PREDICTED BY IDOCK:   -4.84 KCAL/MOL
REMARK 922        TOTAL FREE ENERGY PREDICTED BY IDOCK:   -7.67 KCAL/MOL
REMARK 923 INTER-LIGAND FREE ENERGY PREDICTED BY IDOCK:   -6.83 KCAL/MOL
REMARK 924 INTRA-LIGAND FREE ENERGY PREDICTED BY IDOCK:   -0.84 KCAL/MOL
REMARK 927      BINDING AFFINITY PREDICTED BY RF-SCORE:    0.00 PKD
ROOT
HETATM    1  C   UNL     1      -5.925  19.913  66.296  1.00  0.00    -0.181 C  
HETATM    2  C   UNL     1      -6.814  18.875  66.982  1.00  0.00    -0.201 C  
HETATM    3  C   UNL     1      -7.203  19.371  68.377  1.00  0.00    -0.345 C  
ENDROOT
BRANCH   2   4
HETATM    4  N   UNL     1      -7.988  18.655  66.137  1.00  0.00    -0.424 NA 
HETATM    5  H   UNL     1      -8.486  17.812  66.424  1.00  0.00     0.000 HD 
BRANCH   4   6
HETATM    6  C   UNL     1      -8.899  19.803  66.089  1.00  0.00    -0.336 C  
BRANCH   6   7
HETATM    7  C   UNL     1     -10.343  19.323  66.301  1.00  0.00    -0.480 C  
HETATM    8  H   UNL     1     -12.046  19.379  65.304  1.00  0.00     0.000 HD 
HETATM    9  O   UNL     1     -11.153  19.675  65.173  1.00  0.00    -0.355 OA 
BRANCH   7  10
HETATM   10  C   UNL     1     -10.392  17.813  66.539  1.00  0.00    -0.345 C  
BRANCH  10  11
HETATM   11  O   UNL     1     -10.497  17.094  65.296  1.00  0.00    -0.655 OA 
BRANCH  11  12
HETATM   12  C   UNL     1     -10.463  15.726  65.438  1.00  0.00    -0.414 A  
HETATM   13  C   UNL     1     -11.312  14.851  64.771  1.00  0.00    -0.400 A  
HETATM   14  C   UNL     1     -11.271  13.483  65.016  1.00  0.00    -0.334 A  
HETATM   15  C   UNL     1     -10.358  12.944  65.924  1.00  0.00    -0.285 A  
HETATM   16  C   UNL     1      -9.520  15.199  66.325  1.00  0.00    -0.341 A  
HETATM   17  C   UNL     1      -9.470  13.814  66.571  1.00  0.00    -0.282 A  
BRANCH  15  18
HETATM   18  N   UNL     1     -10.338  11.566  66.234  1.00  0.00    -0.231 N  
HETATM   19  H   UNL     1      -9.716  10.974  65.685  1.00  0.00     0.000 HD 
HETATM   20  C   UNL     1     -11.093  10.948  67.221  1.00  0.00    -0.283 C  
HETATM   21  O   UNL     1     -12.017  11.440  67.858  1.00  0.00    -0.626 OA 
HETATM   22  C   UNL     1     -10.701   9.517  67.463  1.00  0.00    -0.311 C  
ENDBRANCH  15  18
ENDBRANCH  11  12
ENDBRANCH  10  11
ENDBRANCH   7  10
ENDBRANCH   6   7
ENDBRANCH   4   6
ENDBRANCH   2   4
TORSDOF 7
ENDMDL
MODEL       37
REMARK 921   NORMALIZED FREE ENERGY PREDICTED BY IDOCK:   -4.83 KCAL/MOL
REMARK 922        TOTAL FREE ENERGY PREDICTED BY IDOCK:   -7.65 KCAL/MOL
REMARK 923 INTER-LIGAND FREE ENERGY PREDICTED BY IDOCK:   -7.19 KCAL/MOL
REMARK 924 INTRA-LIGAND FREE ENERGY PREDICTED BY IDOCK:   -0.46 KCAL/MOL
REMARK 927      BINDING AFFINITY PREDICTED BY RF-SCORE:    0.00 PKD
ROOT
HETATM    1  C   UNL     1     -13.875   7.253  71.499  1.00  0.00    -0.463 C  
HETATM    2  C   UNL     1     -13.233   8.563  71.959  1.00  0.00    -0.369 C  
HETATM    3  C   UNL     1     -11.780   8.309  72.368  1.00  0.00    -0.463 C  
ENDROOT
BRANCH   2   4
HETATM    4  N   UNL     1     -13.327   9.523  70.859  1.00  0.00    -0.589 NA 
HETATM    5  H   UNL     1     -14.281   9.570  70.502  1.00  0.00     0.000 HD 
BRANCH   4   6
HETATM    6  C   UNL     1     -12.837  10.861  71.206  1.00  0.00    -0.433 C  
BRANCH   6   7
HETATM    7  C   UNL     1     -11.961  11.400  70.063  1.00  0.00    -0.363 C  
HETATM    8  H   UNL     1     -11.863  11.203  68.102  1.00  0.00     0.000 HD 
HETATM    9  O   UNL     1     -12.404  10.871  68.808  1.00  0.00    -0.495 OA 
BRANCH   7  10
HETATM   10  C   UNL     1     -11.977  12.928  70.031  1.00  0.00    -0.309 C  
BRANCH  10  11
HETATM   11  O   UNL     1     -12.205  13.418  68.696  1.00  0.00    -0.298 OA 
BRANCH  11  12
HETATM   12  C   UNL     1     -11.562  14.603  68.419  1.00  0.00    -0.323 A  
HETATM   13  C   UNL     1     -11.112  14.969  67.157  1.00  0.00    -0.332 A  
HETATM   14  C   UNL     1     -10.407  16.152  66.961  1.00  0.00    -0.290 A  
HETATM   15  C   UNL     1     -10.148  17.017  68.024  1.00  0.00    -0.305 A  
HETATM   16  C   UNL     1     -11.341  15.475  69.489  1.00  0.00    -0.317 A  
HETATM   17  C   UNL     1     -10.633  16.675  69.294  1.00  0.00    -0.343 A  
BRANCH  15  18
HETATM   18  N   UNL     1      -9.382  18.192  67.861  1.00  0.00    -0.267 N  
HETATM   19  H   UNL     1      -8.400  18.150  68.131  1.00  0.00     0.000 HD 
HETATM   20  C   UNL     1      -9.850  19.400  67.364  1.00  0.00    -0.345 C  
HETATM   21  O   UNL     1     -11.018  19.709  67.157  1.00  0.00    -0.467 OA 
HETATM   22  C   UNL     1      -8.758  20.401  67.104  1.00  0.00    -0.413 C  
ENDBRANCH  15  18
ENDBRANCH  11  12
ENDBRANCH  10  11
ENDBRANCH   7  10
ENDBRANCH   6   7
ENDBRANCH   4   6
ENDBRANCH   2   4
TORSDOF 7
ENDMDL
MODEL       38
REMARK 921   NORMALIZED FREE ENERGY PREDICTED BY IDOCK:   -4.83 KCAL/MOL
REMARK 922        TOTAL FREE ENERGY PREDICTED BY IDOCK:   -7.64 KCAL/MOL
REMARK 923 INTER-LIGAND FREE ENERGY PREDICTED BY IDOCK:   -7.18 KCAL/MOL
REMARK 924 INTRA-LIGAND FREE ENERGY PREDICTED BY IDOCK:   -0.46 KCAL/MOL
REMARK 927      BINDING AFFINITY PREDICTED BY RF-SCORE:    0.00 PKD
ROOT
HETATM    1  C   UNL     1     -10.279  19.933  66.698  1.00  0.00    -0.609 C  
HETATM    2  C   UNL     1      -8.928  19.234  66.535  1.00  0.00    -0.346 C  
HETATM    3  C   UNL     1      -8.249  19.104  67.900  1.00  0.00    -0.325 C  
ENDROOT
BRANCH   2   4
HETATM    4  N   UNL     1      -9.165  17.928  65.920  1.00  0.00    -0.509 NA 
HETATM    5  H   UNL     1      -8.315  17.366  65.930  1.00  0.00     0.000 HD 
BRANCH   4   6
HETATM    6  C   UNL     1     -10.281  17.191  66.520  1.00  0.00    -0.322 C  
BRANCH   6   7
HETATM    7  C   UNL     1     -10.823  16.166  65.511  1.00  0.00    -0.270 C  
HETATM    8  H   UNL     1     -11.382  16.159  63.618  1.00  0.00     0.000 HD 
HETATM    9  O   UNL     1     -11.047  16.792  64.242  1.00  0.00    -1.106 OA 
BRANCH   7  10
HETATM   10  C   UNL     1      -9.865  14.984  65.358  1.00  0.00    -0.277 C  
BRANCH  10  11
HETATM   11  O   UNL     1     -10.523  13.857  64.750  1.00  0.00    -0.408 OA 
BRANCH  11  12
HETATM   12  C   UNL     1     -10.724  12.799  65.607  1.00  0.00    -0.273 A  
HETATM   13  C   UNL     1     -11.457  12.878  66.784  1.00  0.00    -0.391 A  
HETATM   14  C   UNL     1     -11.561  11.787  67.641  1.00  0.00    -0.364 A  
HETATM   15  C   UNL     1     -10.949  10.572  67.331  1.00  0.00    -0.288 A  
HETATM   16  C   UNL     1     -10.134  11.579  65.265  1.00  0.00    -0.314 A  
HETATM   17  C   UNL     1     -10.242  10.470  66.125  1.00  0.00    -0.299 A  
BRANCH  15  18
HETATM   18  N   UNL     1     -10.990   9.470  68.213  1.00  0.00    -0.469 N  
HETATM   19  H   UNL     1     -11.774   8.825  68.119  1.00  0.00     0.000 HD 
HETATM   20  C   UNL     1     -10.055   9.188  69.199  1.00  0.00    -0.194 C  
HETATM   21  O   UNL     1      -9.153   9.920  69.590  1.00  0.00    -0.201 OA 
HETATM   22  C   UNL     1     -10.244   7.837  69.833  1.00  0.00    -0.213 C  
ENDBRANCH  15  18
ENDBRANCH  11  12
ENDBRANCH  10  11
ENDBRANCH   7  10
ENDBRANCH   6   7
ENDBRANCH   4   6
ENDBRANCH   2   4
TORSDOF 7
ENDMDL
MODEL       39
REMARK 921   NORMALIZED FREE ENERGY PREDICTED BY IDOCK:   -4.82 KCAL/MOL
REMARK 922        TOTAL FREE ENERGY PREDICTED BY IDOCK:   -7.64 KCAL/MOL
REMARK 923 INTER-LIGAND FREE ENERGY PREDICTED BY IDOCK:   -6.72 KCAL/MOL
REMARK 924 INTRA-LIGAND FREE ENERGY PREDICTED BY IDOCK:   -0.92 KCAL/MOL
REMARK 927      BINDING AFFINITY PREDICTED BY RF-SCORE:    0.00 PKD
ROOT
HETATM    1  C   UNL     1      -9.789   7.908  70.286  1.00  0.00    -0.184 C  
HETATM    2  C   UNL     1     -10.938   6.899  70.329  1.00  0.00    -0.281 C  
HETATM    3  C   UNL     1     -10.682   5.874  71.437  1.00  0.00    -0.319 C  
ENDROOT
BRANCH   2   4
HETATM    4  N   UNL     1     -12.182   7.638  70.549  1.00  0.00    -0.505 NA 
HETATM    5  H   UNL     1     -12.990   7.045  70.365  1.00  0.00     0.000 HD 
BRANCH   4   6
HETATM    6  C   UNL     1     -12.276   8.244  71.881  1.00  0.00    -0.337 C  
BRANCH   6   7
HETATM    7  C   UNL     1     -13.486   9.189  71.932  1.00  0.00    -0.430 C  
HETATM    8  H   UNL     1     -14.912   9.644  73.218  1.00  0.00     0.000 HD 
HETATM    9  O   UNL     1     -14.164   9.060  73.187  1.00  0.00    -0.334 OA 
BRANCH   7  10
HETATM   10  C   UNL     1     -13.061  10.641  71.705  1.00  0.00    -0.450 C  
BRANCH  10  11
HETATM   11  O   UNL     1     -11.800  10.710  71.013  1.00  0.00    -0.336 OA 
BRANCH  11  12
HETATM   12  C   UNL     1     -11.833  11.472  69.867  1.00  0.00    -0.355 A  
HETATM   13  C   UNL     1     -11.708  10.956  68.583  1.00  0.00    -0.334 A  
HETATM   14  C   UNL     1     -11.680  11.792  67.473  1.00  0.00    -0.312 A  
HETATM   15  C   UNL     1     -11.799  13.175  67.612  1.00  0.00    -0.359 A  
HETATM   16  C   UNL     1     -11.989  12.852  70.022  1.00  0.00    -0.380 A  
HETATM   17  C   UNL     1     -11.967  13.702  68.901  1.00  0.00    -0.392 A  
BRANCH  15  18
HETATM   18  N   UNL     1     -11.713  14.048  66.505  1.00  0.00    -0.374 N  
HETATM   19  H   UNL     1     -12.561  14.194  65.960  1.00  0.00     0.000 HD 
HETATM   20  C   UNL     1     -10.572  14.723  66.095  1.00  0.00    -0.311 C  
HETATM   21  O   UNL     1      -9.427  14.547  66.497  1.00  0.00    -0.264 OA 
HETATM   22  C   UNL     1     -10.836  15.743  65.022  1.00  0.00    -0.461 C  
ENDBRANCH  15  18
ENDBRANCH  11  12
ENDBRANCH  10  11
ENDBRANCH   7  10
ENDBRANCH   6   7
ENDBRANCH   4   6
ENDBRANCH   2   4
TORSDOF 7
ENDMDL
MODEL       40
REMARK 921   NORMALIZED FREE ENERGY PREDICTED BY IDOCK:   -4.81 KCAL/MOL
REMARK 922        TOTAL FREE ENERGY PREDICTED BY IDOCK:   -7.62 KCAL/MOL
REMARK 923 INTER-LIGAND FREE ENERGY PREDICTED BY IDOCK:   -6.88 KCAL/MOL
REMARK 924 INTRA-LIGAND FREE ENERGY PREDICTED BY IDOCK:   -0.74 KCAL/MOL
REMARK 927      BINDING AFFINITY PREDICTED BY RF-SCORE:    0.00 PKD
ROOT
HETATM    1  C   UNL     1     -11.634  11.986  67.011  1.00  0.00    -0.387 C  
HETATM    2  C   UNL     1     -11.788  13.397  66.440  1.00  0.00    -0.396 C  
HETATM    3  C   UNL     1     -12.705  13.360  65.215  1.00  0.00    -0.481 C  
ENDROOT
BRANCH   2   4
HETATM    4  N   UNL     1     -12.326  14.256  67.496  1.00  0.00    -0.587 NA 
HETATM    5  H   UNL     1     -13.331  14.384  67.378  1.00  0.00     0.000 HD 
BRANCH   4   6
HETATM    6  C   UNL     1     -12.018  13.785  68.849  1.00  0.00    -0.359 C  
BRANCH   6   7
HETATM    7  C   UNL     1     -12.034  14.974  69.823  1.00  0.00    -0.328 C  
HETATM    8  H   UNL     1     -11.915  15.245  71.774  1.00  0.00     0.000 HD 
HETATM    9  O   UNL     1     -11.904  14.510  71.173  1.00  0.00    -0.326 OA 
BRANCH   7  10
HETATM   10  C   UNL     1     -10.922  15.970  69.494  1.00  0.00    -0.326 C  
BRANCH  10  11
HETATM   11  O   UNL     1     -11.368  16.949  68.537  1.00  0.00    -0.221 OA 
BRANCH  11  12
HETATM   12  C   UNL     1     -10.352  17.705  67.998  1.00  0.00    -0.375 A  
HETATM   13  C   UNL     1      -9.075  17.795  68.539  1.00  0.00    -0.282 A  
HETATM   14  C   UNL     1      -8.117  18.634  67.983  1.00  0.00    -0.296 A  
HETATM   15  C   UNL     1      -8.401  19.397  66.849  1.00  0.00    -0.287 A  
HETATM   16  C   UNL     1     -10.643  18.436  66.843  1.00  0.00    -0.381 A  
HETATM   17  C   UNL     1      -9.674  19.282  66.273  1.00  0.00    -0.430 A  
BRANCH  15  18
HETATM   18  N   UNL     1      -7.464  20.301  66.303  1.00  0.00    -0.405 N  
HETATM   19  H   UNL     1      -7.463  21.251  66.673  1.00  0.00     0.000 HD 
HETATM   20  C   UNL     1      -6.545  20.009  65.306  1.00  0.00    -0.294 C  
HETATM   21  O   UNL     1      -6.506  18.999  64.613  1.00  0.00    -0.489 OA 
HETATM   22  C   UNL     1      -5.538  21.104  65.083  1.00  0.00    -0.231 C  
ENDBRANCH  15  18
ENDBRANCH  11  12
ENDBRANCH  10  11
ENDBRANCH   7  10
ENDBRANCH   6   7
ENDBRANCH   4   6
ENDBRANCH   2   4
TORSDOF 7
ENDMDL
MODEL       41
REMARK 921   NORMALIZED FREE ENERGY PREDICTED BY IDOCK:   -4.81 KCAL/MOL
REMARK 922        TOTAL FREE ENERGY PREDICTED BY IDOCK:   -7.62 KCAL/MOL
REMARK 923 INTER-LIGAND FREE ENERGY PREDICTED BY IDOCK:   -7.12 KCAL/MOL
REMARK 924 INTRA-LIGAND FREE ENERGY PREDICTED BY IDOCK:   -0.50 KCAL/MOL
REMARK 927      BINDING AFFINITY PREDICTED BY RF-SCORE:    0.00 PKD
ROOT
HETATM    1  C   UNL     1     -14.271   7.150  71.348  1.00  0.00    -0.414 C  
HETATM    2  C   UNL     1     -12.863   7.166  71.944  1.00  0.00    -0.260 C  
HETATM    3  C   UNL     1     -11.846   6.759  70.875  1.00  0.00    -0.438 C  
ENDROOT
BRANCH   2   4
HETATM    4  N   UNL     1     -12.602   8.512  72.455  1.00  0.00    -0.547 NA 
HETATM    5  H   UNL     1     -12.304   8.476  73.430  1.00  0.00     0.000 HD 
BRANCH   4   6
HETATM    6  C   UNL     1     -11.643   9.271  71.647  1.00  0.00    -0.393 C  
BRANCH   6   7
HETATM    7  C   UNL     1     -12.387  10.348  70.842  1.00  0.00    -0.381 C  
HETATM    8  H   UNL     1     -13.492  11.937  71.229  1.00  0.00     0.000 HD 
HETATM    9  O   UNL     1     -13.031  11.272  71.727  1.00  0.00    -0.453 OA 
BRANCH   7  10
HETATM   10  C   UNL     1     -11.436  11.088  69.901  1.00  0.00    -0.320 C  
BRANCH  10  11
HETATM   11  O   UNL     1     -12.131  11.578  68.739  1.00  0.00    -0.439 OA 
BRANCH  11  12
HETATM   12  C   UNL     1     -11.912  12.912  68.479  1.00  0.00    -0.234 A  
HETATM   13  C   UNL     1     -11.602  13.421  67.224  1.00  0.00    -0.400 A  
HETATM   14  C   UNL     1     -11.324  14.772  67.046  1.00  0.00    -0.358 A  
HETATM   15  C   UNL     1     -11.369  15.662  68.120  1.00  0.00    -0.340 A  
HETATM   16  C   UNL     1     -11.996  13.795  69.559  1.00  0.00    -0.399 A  
HETATM   17  C   UNL     1     -11.721  15.164  69.382  1.00  0.00    -0.355 A  
BRANCH  15  18
HETATM   18  N   UNL     1     -11.031  17.025  67.975  1.00  0.00    -0.324 N  
HETATM   19  H   UNL     1     -11.706  17.625  67.501  1.00  0.00     0.000 HD 
HETATM   20  C   UNL     1      -9.860  17.620  68.421  1.00  0.00    -0.334 C  
HETATM   21  O   UNL     1      -8.860  17.051  68.845  1.00  0.00    -0.266 OA 
HETATM   22  C   UNL     1      -9.876  19.120  68.318  1.00  0.00    -0.462 C  
ENDBRANCH  15  18
ENDBRANCH  11  12
ENDBRANCH  10  11
ENDBRANCH   7  10
ENDBRANCH   6   7
ENDBRANCH   4   6
ENDBRANCH   2   4
TORSDOF 7
ENDMDL
MODEL       42
REMARK 921   NORMALIZED FREE ENERGY PREDICTED BY IDOCK:   -4.79 KCAL/MOL
REMARK 922        TOTAL FREE ENERGY PREDICTED BY IDOCK:   -7.60 KCAL/MOL
REMARK 923 INTER-LIGAND FREE ENERGY PREDICTED BY IDOCK:   -6.79 KCAL/MOL
REMARK 924 INTRA-LIGAND FREE ENERGY PREDICTED BY IDOCK:   -0.81 KCAL/MOL
REMARK 927      BINDING AFFINITY PREDICTED BY RF-SCORE:    0.00 PKD
ROOT
HETATM    1  C   UNL     1     -10.444  19.711  65.831  1.00  0.00    -0.591 C  
HETATM    2  C   UNL     1      -9.971  20.278  67.170  1.00  0.00    -0.453 C  
HETATM    3  C   UNL     1     -10.234  19.259  68.282  1.00  0.00    -0.513 C  
ENDROOT
BRANCH   2   4
HETATM    4  N   UNL     1      -8.547  20.594  67.050  1.00  0.00    -0.564 NA 
HETATM    5  H   UNL     1      -8.082  20.508  67.954  1.00  0.00     0.000 HD 
BRANCH   4   6
HETATM    6  C   UNL     1      -7.854  19.801  66.031  1.00  0.00    -0.336 C  
BRANCH   6   7
HETATM    7  C   UNL     1      -6.739  18.976  66.693  1.00  0.00    -0.193 C  
HETATM    8  H   UNL     1      -6.007  18.730  68.510  1.00  0.00     0.000 HD 
HETATM    9  O   UNL     1      -6.697  19.239  68.101  1.00  0.00    -0.236 OA 
BRANCH   7  10
HETATM   10  C   UNL     1      -6.935  17.480  66.438  1.00  0.00    -0.280 C  
BRANCH  10  11
HETATM   11  O   UNL     1      -7.949  16.935  67.303  1.00  0.00    -0.164 OA 
BRANCH  11  12
HETATM   12  C   UNL     1      -8.844  16.110  66.661  1.00  0.00    -0.264 A  
HETATM   13  C   UNL     1      -9.741  16.537  65.690  1.00  0.00    -0.124 A  
HETATM   14  C   UNL     1     -10.667  15.662  65.132  1.00  0.00    -0.463 A  
HETATM   15  C   UNL     1     -10.709  14.321  65.515  1.00  0.00    -0.331 A  
HETATM   16  C   UNL     1      -8.849  14.762  67.031  1.00  0.00    -0.258 A  
HETATM   17  C   UNL     1      -9.780  13.871  66.465  1.00  0.00    -0.303 A  
BRANCH  15  18
HETATM   18  N   UNL     1     -11.679  13.429  65.008  1.00  0.00    -0.314 N  
HETATM   19  H   UNL     1     -12.583  13.408  65.478  1.00  0.00     0.000 HD 
HETATM   20  C   UNL     1     -11.507  12.579  63.925  1.00  0.00    -0.437 C  
HETATM   21  O   UNL     1     -10.457  12.325  63.347  1.00  0.00    -0.435 OA 
HETATM   22  C   UNL     1     -12.780  11.909  63.485  1.00  0.00    -0.530 C  
ENDBRANCH  15  18
ENDBRANCH  11  12
ENDBRANCH  10  11
ENDBRANCH   7  10
ENDBRANCH   6   7
ENDBRANCH   4   6
ENDBRANCH   2   4
TORSDOF 7
ENDMDL
MODEL       43
REMARK 921   NORMALIZED FREE ENERGY PREDICTED BY IDOCK:   -4.79 KCAL/MOL
REMARK 922        TOTAL FREE ENERGY PREDICTED BY IDOCK:   -7.59 KCAL/MOL
REMARK 923 INTER-LIGAND FREE ENERGY PREDICTED BY IDOCK:   -6.64 KCAL/MOL
REMARK 924 INTRA-LIGAND FREE ENERGY PREDICTED BY IDOCK:   -0.95 KCAL/MOL
REMARK 927      BINDING AFFINITY PREDICTED BY RF-SCORE:    0.00 PKD
ROOT
HETATM    1  C   UNL     1      -9.531  10.909  66.955  1.00  0.00    -0.184 C  
HETATM    2  C   UNL     1     -10.949  11.070  67.505  1.00  0.00    -0.281 C  
HETATM    3  C   UNL     1     -10.916  11.923  68.775  1.00  0.00    -0.280 C  
ENDROOT
BRANCH   2   4
HETATM    4  N   UNL     1     -11.772  11.684  66.461  1.00  0.00    -0.471 NA 
HETATM    5  H   UNL     1     -12.186  12.554  66.794  1.00  0.00     0.000 HD 
BRANCH   4   6
HETATM    6  C   UNL     1     -11.054  11.899  65.200  1.00  0.00    -0.305 C  
BRANCH   6   7
HETATM    7  C   UNL     1     -11.946  12.691  64.231  1.00  0.00    -0.408 C  
HETATM    8  H   UNL     1     -13.847  12.708  63.702  1.00  0.00     0.000 HD 
HETATM    9  O   UNL     1     -13.297  12.219  64.302  1.00  0.00    -0.777 OA 
BRANCH   7  10
HETATM   10  C   UNL     1     -11.891  14.190  64.532  1.00  0.00    -0.436 C  
BRANCH  10  11
HETATM   11  O   UNL     1     -12.218  14.455  65.909  1.00  0.00    -0.392 OA 
BRANCH  11  12
HETATM   12  C   UNL     1     -11.247  15.157  66.587  1.00  0.00    -0.274 A  
HETATM   13  C   UNL     1     -11.320  15.484  67.936  1.00  0.00    -0.309 A  
HETATM   14  C   UNL     1     -10.336  16.257  68.541  1.00  0.00    -0.261 A  
HETATM   15  C   UNL     1      -9.232  16.709  67.818  1.00  0.00    -0.214 A  
HETATM   16  C   UNL     1     -10.131  15.572  65.856  1.00  0.00    -0.374 A  
HETATM   17  C   UNL     1      -9.129  16.350  66.466  1.00  0.00    -0.308 A  
BRANCH  15  18
HETATM   18  N   UNL     1      -8.252  17.545  68.396  1.00  0.00    -0.270 N  
HETATM   19  H   UNL     1      -7.401  17.099  68.737  1.00  0.00     0.000 HD 
HETATM   20  C   UNL     1      -8.346  18.922  68.540  1.00  0.00    -0.349 C  
HETATM   21  O   UNL     1      -9.341  19.614  68.364  1.00  0.00    -0.348 OA 
HETATM   22  C   UNL     1      -7.062  19.564  68.990  1.00  0.00    -0.399 C  
ENDBRANCH  15  18
ENDBRANCH  11  12
ENDBRANCH  10  11
ENDBRANCH   7  10
ENDBRANCH   6   7
ENDBRANCH   4   6
ENDBRANCH   2   4
TORSDOF 7
ENDMDL
MODEL       44
REMARK 921   NORMALIZED FREE ENERGY PREDICTED BY IDOCK:   -4.77 KCAL/MOL
REMARK 922        TOTAL FREE ENERGY PREDICTED BY IDOCK:   -7.56 KCAL/MOL
REMARK 923 INTER-LIGAND FREE ENERGY PREDICTED BY IDOCK:   -6.84 KCAL/MOL
REMARK 924 INTRA-LIGAND FREE ENERGY PREDICTED BY IDOCK:   -0.72 KCAL/MOL
REMARK 927      BINDING AFFINITY PREDICTED BY RF-SCORE:    0.00 PKD
ROOT
HETATM    1  C   UNL     1      -6.431  20.862  66.522  1.00  0.00    -0.333 C  
HETATM    2  C   UNL     1      -7.220  19.773  65.794  1.00  0.00    -0.318 C  
HETATM    3  C   UNL     1      -6.688  18.395  66.198  1.00  0.00    -0.279 C  
ENDROOT
BRANCH   2   4
HETATM    4  N   UNL     1      -8.633  19.931  66.138  1.00  0.00    -0.460 NA 
HETATM    5  H   UNL     1      -9.136  19.054  66.006  1.00  0.00     0.000 HD 
BRANCH   4   6
HETATM    6  C   UNL     1      -8.853  20.456  67.490  1.00  0.00    -0.282 C  
BRANCH   6   7
HETATM    7  C   UNL     1      -9.547  19.388  68.349  1.00  0.00    -0.388 C  
HETATM    8  H   UNL     1     -10.581  19.333  70.030  1.00  0.00     0.000 HD 
HETATM    9  O   UNL     1     -10.152  19.993  69.499  1.00  0.00    -0.267 OA 
BRANCH   7  10
HETATM   10  C   UNL     1     -10.595  18.624  67.538  1.00  0.00    -0.423 C  
BRANCH  10  11
HETATM   11  O   UNL     1     -10.920  17.367  68.161  1.00  0.00    -0.334 OA 
BRANCH  11  12
HETATM   12  C   UNL     1     -10.782  16.280  67.329  1.00  0.00    -0.265 A  
HETATM   13  C   UNL     1     -11.414  15.059  67.529  1.00  0.00    -0.339 A  
HETATM   14  C   UNL     1     -11.174  13.979  66.687  1.00  0.00    -0.330 A  
HETATM   15  C   UNL     1     -10.307  14.095  65.600  1.00  0.00    -0.333 A  
HETATM   16  C   UNL     1      -9.937  16.424  66.225  1.00  0.00    -0.341 A  
HETATM   17  C   UNL     1      -9.696  15.335  65.366  1.00  0.00    -0.243 A  
BRANCH  15  18
HETATM   18  N   UNL     1     -10.001  12.996  64.767  1.00  0.00    -0.557 N  
HETATM   19  H   UNL     1      -9.083  12.567  64.881  1.00  0.00     0.000 HD 
HETATM   20  C   UNL     1     -10.841  12.450  63.808  1.00  0.00    -0.454 C  
HETATM   21  O   UNL     1     -11.895  12.923  63.396  1.00  0.00    -0.525 OA 
HETATM   22  C   UNL     1     -10.330  11.158  63.232  1.00  0.00    -0.368 C  
ENDBRANCH  15  18
ENDBRANCH  11  12
ENDBRANCH  10  11
ENDBRANCH   7  10
ENDBRANCH   6   7
ENDBRANCH   4   6
ENDBRANCH   2   4
TORSDOF 7
ENDMDL
MODEL       45
REMARK 921   NORMALIZED FREE ENERGY PREDICTED BY IDOCK:   -4.76 KCAL/MOL
REMARK 922        TOTAL FREE ENERGY PREDICTED BY IDOCK:   -7.55 KCAL/MOL
REMARK 923 INTER-LIGAND FREE ENERGY PREDICTED BY IDOCK:   -6.68 KCAL/MOL
REMARK 924 INTRA-LIGAND FREE ENERGY PREDICTED BY IDOCK:   -0.88 KCAL/MOL
REMARK 927      BINDING AFFINITY PREDICTED BY RF-SCORE:    0.00 PKD
ROOT
HETATM    1  C   UNL     1      -8.292  16.098  66.222  1.00  0.00    -0.322 C  
HETATM    2  C   UNL     1      -9.304  15.037  66.660  1.00  0.00    -0.266 C  
HETATM    3  C   UNL     1     -10.562  15.719  67.202  1.00  0.00    -0.313 C  
ENDROOT
BRANCH   2   4
HETATM    4  N   UNL     1      -9.601  14.191  65.504  1.00  0.00    -0.544 NA 
HETATM    5  H   UNL     1      -9.472  13.206  65.736  1.00  0.00     0.000 HD 
BRANCH   4   6
HETATM    6  C   UNL     1     -10.933  14.420  64.935  1.00  0.00    -0.406 C  
BRANCH   6   7
HETATM    7  C   UNL     1     -11.569  13.073  64.558  1.00  0.00    -0.360 C  
HETATM    8  H   UNL     1     -11.390  11.746  63.108  1.00  0.00     0.000 HD 
HETATM    9  O   UNL     1     -10.997  12.579  63.341  1.00  0.00    -0.452 OA 
BRANCH   7  10
HETATM   10  C   UNL     1     -11.398  12.049  65.680  1.00  0.00    -0.329 C  
BRANCH  10  11
HETATM   11  O   UNL     1     -11.821  12.590  66.946  1.00  0.00    -0.437 OA 
BRANCH  11  12
HETATM   12  C   UNL     1     -11.631  11.736  68.009  1.00  0.00    -0.316 A  
HETATM   13  C   UNL     1     -12.090  11.982  69.297  1.00  0.00    -0.249 A  
HETATM   14  C   UNL     1     -11.802  11.108  70.341  1.00  0.00    -0.462 A  
HETATM   15  C   UNL     1     -11.061   9.946  70.120  1.00  0.00    -0.296 A  
HETATM   16  C   UNL     1     -10.918  10.560  67.764  1.00  0.00    -0.372 A  
HETATM   17  C   UNL     1     -10.629   9.670  68.815  1.00  0.00    -0.242 A  
BRANCH  15  18
HETATM   18  N   UNL     1     -10.705   9.077  71.174  1.00  0.00    -0.261 N  
HETATM   19  H   UNL     1      -9.757   9.153  71.541  1.00  0.00     0.000 HD 
HETATM   20  C   UNL     1     -11.534   8.127  71.754  1.00  0.00    -0.284 C  
HETATM   21  O   UNL     1     -12.629   7.758  71.346  1.00  0.00    -0.323 OA 
HETATM   22  C   UNL     1     -10.952   7.503  72.992  1.00  0.00    -0.443 C  
ENDBRANCH  15  18
ENDBRANCH  11  12
ENDBRANCH  10  11
ENDBRANCH   7  10
ENDBRANCH   6   7
ENDBRANCH   4   6
ENDBRANCH   2   4
TORSDOF 7
ENDMDL
MODEL       46
REMARK 921   NORMALIZED FREE ENERGY PREDICTED BY IDOCK:   -4.76 KCAL/MOL
REMARK 922        TOTAL FREE ENERGY PREDICTED BY IDOCK:   -7.54 KCAL/MOL
REMARK 923 INTER-LIGAND FREE ENERGY PREDICTED BY IDOCK:   -6.77 KCAL/MOL
REMARK 924 INTRA-LIGAND FREE ENERGY PREDICTED BY IDOCK:   -0.77 KCAL/MOL
REMARK 927      BINDING AFFINITY PREDICTED BY RF-SCORE:    0.00 PKD
ROOT
HETATM    1  C   UNL     1      -8.429  16.064  66.402  1.00  0.00    -0.363 C  
HETATM    2  C   UNL     1      -9.339  14.931  66.878  1.00  0.00    -0.241 C  
HETATM    3  C   UNL     1     -10.520  15.512  67.659  1.00  0.00    -0.279 C  
ENDROOT
BRANCH   2   4
HETATM    4  N   UNL     1      -9.783  14.181  65.702  1.00  0.00    -0.523 NA 
HETATM    5  H   UNL     1     -10.084  13.243  65.966  1.00  0.00     0.000 HD 
BRANCH   4   6
HETATM    6  C   UNL     1     -10.826  14.864  64.931  1.00  0.00    -0.413 C  
BRANCH   6   7
HETATM    7  C   UNL     1     -12.058  13.952  64.813  1.00  0.00    -0.419 C  
HETATM    8  H   UNL     1     -13.209  13.259  63.367  1.00  0.00     0.000 HD 
HETATM    9  O   UNL     1     -12.448  13.823  63.440  1.00  0.00    -0.817 OA 
BRANCH   7  10
HETATM   10  C   UNL     1     -11.783  12.575  65.419  1.00  0.00    -0.398 C  
BRANCH  10  11
HETATM   11  O   UNL     1     -12.096  12.556  66.825  1.00  0.00    -0.546 OA 
BRANCH  11  12
HETATM   12  C   UNL     1     -11.569  11.477  67.498  1.00  0.00    -0.246 A  
HETATM   13  C   UNL     1     -10.784  10.495  66.905  1.00  0.00    -0.281 A  
HETATM   14  C   UNL     1     -10.343   9.393  67.630  1.00  0.00    -0.303 A  
HETATM   15  C   UNL     1     -10.657   9.251  68.982  1.00  0.00    -0.205 A  
HETATM   16  C   UNL     1     -11.863  11.367  68.860  1.00  0.00    -0.413 A  
HETATM   17  C   UNL     1     -11.414  10.257  69.599  1.00  0.00    -0.297 A  
BRANCH  15  18
HETATM   18  N   UNL     1     -10.272   8.112  69.722  1.00  0.00    -0.199 N  
HETATM   19  H   UNL     1      -9.634   8.257  70.504  1.00  0.00     0.000 HD 
HETATM   20  C   UNL     1     -10.686   6.810  69.477  1.00  0.00    -0.257 C  
HETATM   21  O   UNL     1     -11.295   6.404  68.494  1.00  0.00    -0.303 OA 
HETATM   22  C   UNL     1     -10.286   5.844  70.557  1.00  0.00    -0.271 C  
ENDBRANCH  15  18
ENDBRANCH  11  12
ENDBRANCH  10  11
ENDBRANCH   7  10
ENDBRANCH   6   7
ENDBRANCH   4   6
ENDBRANCH   2   4
TORSDOF 7
ENDMDL
MODEL       47
REMARK 921   NORMALIZED FREE ENERGY PREDICTED BY IDOCK:   -4.75 KCAL/MOL
REMARK 922        TOTAL FREE ENERGY PREDICTED BY IDOCK:   -7.54 KCAL/MOL
REMARK 923 INTER-LIGAND FREE ENERGY PREDICTED BY IDOCK:   -6.84 KCAL/MOL
REMARK 924 INTRA-LIGAND FREE ENERGY PREDICTED BY IDOCK:   -0.70 KCAL/MOL
REMARK 927      BINDING AFFINITY PREDICTED BY RF-SCORE:    0.00 PKD
ROOT
HETATM    1  C   UNL     1     -12.984  10.204  71.151  1.00  0.00    -0.488 C  
HETATM    2  C   UNL     1     -11.796  10.641  70.292  1.00  0.00    -0.342 C  
HETATM    3  C   UNL     1     -10.709   9.564  70.331  1.00  0.00    -0.341 C  
ENDROOT
BRANCH   2   4
HETATM    4  N   UNL     1     -12.282  10.872  68.931  1.00  0.00    -0.764 NA 
HETATM    5  H   UNL     1     -12.879  11.698  68.898  1.00  0.00     0.000 HD 
BRANCH   4   6
HETATM    6  C   UNL     1     -11.212  10.965  67.934  1.00  0.00    -0.321 C  
BRANCH   6   7
HETATM    7  C   UNL     1     -11.336  12.291  67.168  1.00  0.00    -0.335 C  
HETATM    8  H   UNL     1     -12.121  12.910  65.466  1.00  0.00     0.000 HD 
HETATM    9  O   UNL     1     -12.045  12.090  65.939  1.00  0.00    -0.546 OA 
BRANCH   7  10
HETATM   10  C   UNL     1     -12.036  13.354  68.017  1.00  0.00    -0.322 C  
BRANCH  10  11
HETATM   11  O   UNL     1     -11.187  13.803  69.090  1.00  0.00    -0.252 OA 
BRANCH  11  12
HETATM   12  C   UNL     1     -10.524  14.979  68.822  1.00  0.00    -0.238 A  
HETATM   13  C   UNL     1      -9.149  15.143  68.936  1.00  0.00    -0.206 A  
HETATM   14  C   UNL     1      -8.553  16.380  68.718  1.00  0.00    -0.250 A  
HETATM   15  C   UNL     1      -9.316  17.491  68.356  1.00  0.00    -0.287 A  
HETATM   16  C   UNL     1     -11.299  16.073  68.427  1.00  0.00    -0.355 A  
HETATM   17  C   UNL     1     -10.699  17.325  68.199  1.00  0.00    -0.363 A  
BRANCH  15  18
HETATM   18  N   UNL     1      -8.741  18.769  68.189  1.00  0.00    -0.297 N  
HETATM   19  H   UNL     1      -8.720  19.381  69.004  1.00  0.00     0.000 HD 
HETATM   20  C   UNL     1      -8.202  19.266  67.010  1.00  0.00    -0.266 C  
HETATM   21  O   UNL     1      -8.291  18.770  65.893  1.00  0.00    -0.490 OA 
HETATM   22  C   UNL     1      -7.471  20.568  67.191  1.00  0.00    -0.375 C  
ENDBRANCH  15  18
ENDBRANCH  11  12
ENDBRANCH  10  11
ENDBRANCH   7  10
ENDBRANCH   6   7
ENDBRANCH   4   6
ENDBRANCH   2   4
TORSDOF 7
ENDMDL
MODEL       48
REMARK 921   NORMALIZED FREE ENERGY PREDICTED BY IDOCK:   -4.75 KCAL/MOL
REMARK 922        TOTAL FREE ENERGY PREDICTED BY IDOCK:   -7.53 KCAL/MOL
REMARK 923 INTER-LIGAND FREE ENERGY PREDICTED BY IDOCK:   -6.49 KCAL/MOL
REMARK 924 INTRA-LIGAND FREE ENERGY PREDICTED BY IDOCK:   -1.04 KCAL/MOL
REMARK 927      BINDING AFFINITY PREDICTED BY RF-SCORE:    0.00 PKD
ROOT
HETATM    1  C   UNL     1     -12.384  13.822  64.901  1.00  0.00    -0.435 C  
HETATM    2  C   UNL     1     -10.938  14.078  64.473  1.00  0.00    -0.350 C  
HETATM    3  C   UNL     1     -10.402  15.323  65.185  1.00  0.00    -0.413 C  
ENDROOT
BRANCH   2   4
HETATM    4  N   UNL     1     -10.152  12.887  64.798  1.00  0.00    -0.510 NA 
HETATM    5  H   UNL     1      -9.785  12.946  65.747  1.00  0.00     0.000 HD 
BRANCH   4   6
HETATM    6  C   UNL     1     -10.882  11.631  64.601  1.00  0.00    -0.314 C  
BRANCH   6   7
HETATM    7  C   UNL     1     -10.093  10.473  65.233  1.00  0.00    -0.300 C  
HETATM    8  H   UNL     1      -8.200   9.957  65.438  1.00  0.00     0.000 HD 
HETATM    9  O   UNL     1      -8.687  10.673  65.047  1.00  0.00    -0.184 OA 
BRANCH   7  10
HETATM   10  C   UNL     1     -10.419  10.333  66.721  1.00  0.00    -0.214 C  
BRANCH  10  11
HETATM   11  O   UNL     1      -9.701  11.306  67.503  1.00  0.00    -0.175 OA 
BRANCH  11  12
HETATM   12  C   UNL     1     -10.494  12.013  68.379  1.00  0.00    -0.219 A  
HETATM   13  C   UNL     1     -11.215  11.436  69.417  1.00  0.00    -0.333 A  
HETATM   14  C   UNL     1     -12.053  12.200  70.221  1.00  0.00    -0.385 A  
HETATM   15  C   UNL     1     -12.179  13.576  70.023  1.00  0.00    -0.312 A  
HETATM   16  C   UNL     1     -10.582  13.394  68.189  1.00  0.00    -0.255 A  
HETATM   17  C   UNL     1     -11.424  14.173  69.004  1.00  0.00    -0.322 A  
BRANCH  15  18
HETATM   18  N   UNL     1     -13.070  14.361  70.787  1.00  0.00    -0.395 N  
HETATM   19  H   UNL     1     -14.017  14.474  70.428  1.00  0.00     0.000 HD 
HETATM   20  C   UNL     1     -12.767  14.995  71.984  1.00  0.00    -0.333 C  
HETATM   21  O   UNL     1     -11.656  15.133  72.483  1.00  0.00    -0.421 OA 
HETATM   22  C   UNL     1     -13.970  15.576  72.673  1.00  0.00    -0.617 C  
ENDBRANCH  15  18
ENDBRANCH  11  12
ENDBRANCH  10  11
ENDBRANCH   7  10
ENDBRANCH   6   7
ENDBRANCH   4   6
ENDBRANCH   2   4
TORSDOF 7
ENDMDL
MODEL       49
REMARK 921   NORMALIZED FREE ENERGY PREDICTED BY IDOCK:   -4.73 KCAL/MOL
REMARK 922        TOTAL FREE ENERGY PREDICTED BY IDOCK:   -7.51 KCAL/MOL
REMARK 923 INTER-LIGAND FREE ENERGY PREDICTED BY IDOCK:   -6.81 KCAL/MOL
REMARK 924 INTRA-LIGAND FREE ENERGY PREDICTED BY IDOCK:   -0.70 KCAL/MOL
REMARK 927      BINDING AFFINITY PREDICTED BY RF-SCORE:    0.00 PKD
ROOT
HETATM    1  C   UNL     1     -10.923   5.681  71.844  1.00  0.00    -0.297 C  
HETATM    2  C   UNL     1     -10.820   6.605  70.629  1.00  0.00    -0.253 C  
HETATM    3  C   UNL     1     -10.638   5.769  69.360  1.00  0.00    -0.383 C  
ENDROOT
BRANCH   2   4
HETATM    4  N   UNL     1     -12.037   7.416  70.573  1.00  0.00    -0.537 NA 
HETATM    5  H   UNL     1     -12.839   6.844  70.309  1.00  0.00     0.000 HD 
BRANCH   4   6
HETATM    6  C   UNL     1     -12.310   8.150  71.813  1.00  0.00    -0.321 C  
BRANCH   6   7
HETATM    7  C   UNL     1     -13.586   8.991  71.642  1.00  0.00    -0.390 C  
HETATM    8  H   UNL     1     -15.177   9.437  72.721  1.00  0.00     0.000 HD 
HETATM    9  O   UNL     1     -14.389   8.917  72.826  1.00  0.00    -0.600 OA 
BRANCH   7  10
HETATM   10  C   UNL     1     -13.247  10.447  71.319  1.00  0.00    -0.339 C  
BRANCH  10  11
HETATM   11  O   UNL     1     -11.926  10.560  70.756  1.00  0.00    -0.311 OA 
BRANCH  11  12
HETATM   12  C   UNL     1     -11.806  11.555  69.813  1.00  0.00    -0.357 A  
HETATM   13  C   UNL     1     -11.997  12.906  70.076  1.00  0.00    -0.380 A  
HETATM   14  C   UNL     1     -11.929  13.852  69.059  1.00  0.00    -0.402 A  
HETATM   15  C   UNL     1     -11.645  13.476  67.746  1.00  0.00    -0.339 A  
HETATM   16  C   UNL     1     -11.486  11.165  68.510  1.00  0.00    -0.371 A  
HETATM   17  C   UNL     1     -11.410  12.119  67.478  1.00  0.00    -0.392 A  
BRANCH  15  18
HETATM   18  N   UNL     1     -11.631  14.410  66.687  1.00  0.00    -0.371 N  
HETATM   19  H   UNL     1     -12.472  14.480  66.116  1.00  0.00     0.000 HD 
HETATM   20  C   UNL     1     -10.570  15.242  66.357  1.00  0.00    -0.308 C  
HETATM   21  O   UNL     1      -9.427  15.187  66.795  1.00  0.00    -0.218 OA 
HETATM   22  C   UNL     1     -10.924  16.277  65.325  1.00  0.00    -0.245 C  
ENDBRANCH  15  18
ENDBRANCH  11  12
ENDBRANCH  10  11
ENDBRANCH   7  10
ENDBRANCH   6   7
ENDBRANCH   4   6
ENDBRANCH   2   4
TORSDOF 7
ENDMDL
MODEL       50
REMARK 921   NORMALIZED FREE ENERGY PREDICTED BY IDOCK:   -4.73 KCAL/MOL
REMARK 922        TOTAL FREE ENERGY PREDICTED BY IDOCK:   -7.50 KCAL/MOL
REMARK 923 INTER-LIGAND FREE ENERGY PREDICTED BY IDOCK:   -7.07 KCAL/MOL
REMARK 924 INTRA-LIGAND FREE ENERGY PREDICTED BY IDOCK:   -0.44 KCAL/MOL
REMARK 927      BINDING AFFINITY PREDICTED BY RF-SCORE:    0.00 PKD
ROOT
HETATM    1  C   UNL     1     -13.648  14.105  72.491  1.00  0.00    -0.644 C  
HETATM    2  C   UNL     1     -13.029  15.480  72.749  1.00  0.00    -0.457 C  
HETATM    3  C   UNL     1     -12.480  15.538  74.177  1.00  0.00    -0.805 C  
ENDROOT
BRANCH   2   4
HETATM    4  N   UNL     1     -11.977  15.697  71.754  1.00  0.00    -0.392 NA 
HETATM    5  H   UNL     1     -11.095  15.295  72.070  1.00  0.00     0.000 HD 
BRANCH   4   6
HETATM    6  C   UNL     1     -12.324  15.203  70.418  1.00  0.00    -0.363 C  
BRANCH   6   7
HETATM    7  C   UNL     1     -11.391  15.842  69.377  1.00  0.00    -0.348 C  
HETATM    8  H   UNL     1      -9.446  16.009  69.089  1.00  0.00     0.000 HD 
HETATM    9  O   UNL     1     -10.022  15.614  69.733  1.00  0.00    -0.277 OA 
BRANCH   7  10
HETATM   10  C   UNL     1     -11.673  15.296  67.976  1.00  0.00    -0.251 C  
BRANCH  10  11
HETATM   11  O   UNL     1     -12.131  13.932  68.033  1.00  0.00    -0.367 OA 
BRANCH  11  12
HETATM   12  C   UNL     1     -11.572  13.116  67.076  1.00  0.00    -0.359 A  
HETATM   13  C   UNL     1     -12.122  12.898  65.819  1.00  0.00    -0.513 A  
HETATM   14  C   UNL     1     -11.541  12.005  64.925  1.00  0.00    -0.332 A  
HETATM   15  C   UNL     1     -10.374  11.315  65.256  1.00  0.00    -0.280 A  
HETATM   16  C   UNL     1     -10.384  12.460  67.410  1.00  0.00    -0.217 A  
HETATM   17  C   UNL     1      -9.789  11.559  66.507  1.00  0.00    -0.228 A  
BRANCH  15  18
HETATM   18  N   UNL     1      -9.800  10.359  64.390  1.00  0.00    -0.328 N  
HETATM   19  H   UNL     1      -9.740   9.399  64.730  1.00  0.00     0.000 HD 
HETATM   20  C   UNL     1      -9.310  10.612  63.117  1.00  0.00    -0.314 C  
HETATM   21  O   UNL     1      -9.126  11.709  62.603  1.00  0.00    -0.330 OA 
HETATM   22  C   UNL     1      -8.961   9.364  62.353  1.00  0.00    -0.258 C  
ENDBRANCH  15  18
ENDBRANCH  11  12
ENDBRANCH  10  11
ENDBRANCH   7  10
ENDBRANCH   6   7
ENDBRANCH   4   6
ENDBRANCH   2   4
TORSDOF 7
ENDMDL
MODEL       51
REMARK 921   NORMALIZED FREE ENERGY PREDICTED BY IDOCK:   -4.72 KCAL/MOL
REMARK 922        TOTAL FREE ENERGY PREDICTED BY IDOCK:   -7.49 KCAL/MOL
REMARK 923 INTER-LIGAND FREE ENERGY PREDICTED BY IDOCK:   -7.10 KCAL/MOL
REMARK 924 INTRA-LIGAND FREE ENERGY PREDICTED BY IDOCK:   -0.40 KCAL/MOL
REMARK 927      BINDING AFFINITY PREDICTED BY RF-SCORE:    0.00 PKD
ROOT
HETATM    1  C   UNL     1     -12.967  10.411  71.702  1.00  0.00    -0.581 C  
HETATM    2  C   UNL     1     -11.694  10.406  70.854  1.00  0.00    -0.360 C  
HETATM    3  C   UNL     1     -10.747   9.312  71.352  1.00  0.00    -0.432 C  
ENDROOT
BRANCH   2   4
HETATM    4  N   UNL     1     -12.081  10.195  69.459  1.00  0.00    -0.498 NA 
HETATM    5  H   UNL     1     -12.716  10.929  69.146  1.00  0.00     0.000 HD 
BRANCH   4   6
HETATM    6  C   UNL     1     -10.941  10.072  68.546  1.00  0.00    -0.209 C  
BRANCH   6   7
HETATM    7  C   UNL     1     -11.157  10.984  67.327  1.00  0.00    -0.294 C  
HETATM    8  H   UNL     1     -12.217  12.591  66.896  1.00  0.00     0.000 HD 
HETATM    9  O   UNL     1     -12.084  12.028  67.649  1.00  0.00    -0.547 OA 
BRANCH   7  10
HETATM   10  C   UNL     1      -9.834  11.578  66.842  1.00  0.00    -0.197 C  
BRANCH  10  11
HETATM   11  O   UNL     1     -10.015  12.322  65.623  1.00  0.00    -0.250 OA 
BRANCH  11  12
HETATM   12  C   UNL     1     -10.048  13.686  65.802  1.00  0.00    -0.298 A  
HETATM   13  C   UNL     1      -9.414  14.351  66.844  1.00  0.00    -0.268 A  
HETATM   14  C   UNL     1      -9.547  15.726  67.005  1.00  0.00    -0.236 A  
HETATM   15  C   UNL     1     -10.305  16.483  66.111  1.00  0.00    -0.334 A  
HETATM   16  C   UNL     1     -10.782  14.434  64.877  1.00  0.00    -0.444 A  
HETATM   17  C   UNL     1     -10.915  15.826  65.033  1.00  0.00    -0.431 A  
BRANCH  15  18
HETATM   18  N   UNL     1     -10.505  17.870  66.289  1.00  0.00    -0.354 N  
HETATM   19  H   UNL     1     -11.458  18.184  66.468  1.00  0.00     0.000 HD 
HETATM   20  C   UNL     1      -9.516  18.842  66.242  1.00  0.00    -0.274 C  
HETATM   21  O   UNL     1      -8.358  18.697  65.867  1.00  0.00    -0.494 OA 
HETATM   22  C   UNL     1      -9.992  20.199  66.682  1.00  0.00    -0.595 C  
ENDBRANCH  15  18
ENDBRANCH  11  12
ENDBRANCH  10  11
ENDBRANCH   7  10
ENDBRANCH   6   7
ENDBRANCH   4   6
ENDBRANCH   2   4
TORSDOF 7
ENDMDL
MODEL       52
REMARK 921   NORMALIZED FREE ENERGY PREDICTED BY IDOCK:   -4.71 KCAL/MOL
REMARK 922        TOTAL FREE ENERGY PREDICTED BY IDOCK:   -7.48 KCAL/MOL
REMARK 923 INTER-LIGAND FREE ENERGY PREDICTED BY IDOCK:   -6.72 KCAL/MOL
REMARK 924 INTRA-LIGAND FREE ENERGY PREDICTED BY IDOCK:   -0.77 KCAL/MOL
REMARK 927      BINDING AFFINITY PREDICTED BY RF-SCORE:    0.00 PKD
ROOT
HETATM    1  C   UNL     1      -9.101  17.421  68.677  1.00  0.00    -0.261 C  
HETATM    2  C   UNL     1     -10.411  17.492  67.891  1.00  0.00    -0.384 C  
HETATM    3  C   UNL     1     -10.395  18.718  66.974  1.00  0.00    -0.454 C  
ENDROOT
BRANCH   2   4
HETATM    4  N   UNL     1     -10.553  16.249  67.133  1.00  0.00    -0.310 NA 
HETATM    5  H   UNL     1     -11.456  15.814  67.320  1.00  0.00     0.000 HD 
BRANCH   4   6
HETATM    6  C   UNL     1     -10.347  16.415  65.691  1.00  0.00    -0.350 C  
BRANCH   6   7
HETATM    7  C   UNL     1     -11.496  15.739  64.926  1.00  0.00    -0.193 C  
HETATM    8  H   UNL     1     -12.477  16.029  63.238  1.00  0.00     0.000 HD 
HETATM    9  O   UNL     1     -11.766  16.447  63.710  1.00  0.00    -1.049 OA 
BRANCH   7  10
HETATM   10  C   UNL     1     -11.173  14.274  64.628  1.00  0.00    -0.366 C  
BRANCH  10  11
HETATM   11  O   UNL     1     -10.128  13.787  65.490  1.00  0.00    -0.302 OA 
BRANCH  11  12
HETATM   12  C   UNL     1     -10.485  12.683  66.230  1.00  0.00    -0.251 A  
HETATM   13  C   UNL     1     -11.478  12.683  67.202  1.00  0.00    -0.406 A  
HETATM   14  C   UNL     1     -11.739  11.548  67.962  1.00  0.00    -0.343 A  
HETATM   15  C   UNL     1     -11.027  10.366  67.755  1.00  0.00    -0.309 A  
HETATM   16  C   UNL     1      -9.786  11.497  65.986  1.00  0.00    -0.253 A  
HETATM   17  C   UNL     1     -10.051  10.344  66.748  1.00  0.00    -0.267 A  
BRANCH  15  18
HETATM   18  N   UNL     1     -11.232   9.220  68.555  1.00  0.00    -0.450 N  
HETATM   19  H   UNL     1     -11.712   8.431  68.123  1.00  0.00     0.000 HD 
HETATM   20  C   UNL     1     -10.838   9.076  69.877  1.00  0.00    -0.218 C  
HETATM   21  O   UNL     1     -10.418   9.955  70.621  1.00  0.00    -0.292 OA 
HETATM   22  C   UNL     1     -10.998   7.674  70.398  1.00  0.00    -0.256 C  
ENDBRANCH  15  18
ENDBRANCH  11  12
ENDBRANCH  10  11
ENDBRANCH   7  10
ENDBRANCH   6   7
ENDBRANCH   4   6
ENDBRANCH   2   4
TORSDOF 7
ENDMDL
MODEL       53
REMARK 921   NORMALIZED FREE ENERGY PREDICTED BY IDOCK:   -4.71 KCAL/MOL
REMARK 922        TOTAL FREE ENERGY PREDICTED BY IDOCK:   -7.48 KCAL/MOL
REMARK 923 INTER-LIGAND FREE ENERGY PREDICTED BY IDOCK:   -6.56 KCAL/MOL
REMARK 924 INTRA-LIGAND FREE ENERGY PREDICTED BY IDOCK:   -0.92 KCAL/MOL
REMARK 927      BINDING AFFINITY PREDICTED BY RF-SCORE:    0.00 PKD
ROOT
HETATM    1  C   UNL     1     -11.322   6.300  70.028  1.00  0.00    -0.486 C  
HETATM    2  C   UNL     1     -12.047   7.222  71.011  1.00  0.00    -0.324 C  
HETATM    3  C   UNL     1     -11.305   7.233  72.349  1.00  0.00    -0.324 C  
ENDROOT
BRANCH   2   4
HETATM    4  N   UNL     1     -12.111   8.557  70.415  1.00  0.00    -0.449 NA 
HETATM    5  H   UNL     1     -13.044   8.953  70.520  1.00  0.00     0.000 HD 
BRANCH   4   6
HETATM    6  C   UNL     1     -11.094   9.479  70.932  1.00  0.00    -0.336 C  
BRANCH   6   7
HETATM    7  C   UNL     1     -10.231   9.996  69.769  1.00  0.00    -0.250 C  
HETATM    8  H   UNL     1      -8.653   9.380  68.757  1.00  0.00     0.000 HD 
HETATM    9  O   UNL     1      -9.186   9.061  69.475  1.00  0.00    -0.146 OA 
BRANCH   7  10
HETATM   10  C   UNL     1     -11.081  10.252  68.524  1.00  0.00    -0.242 C  
BRANCH  10  11
HETATM   11  O   UNL     1     -12.199  11.109  68.826  1.00  0.00    -0.555 OA 
BRANCH  11  12
HETATM   12  C   UNL     1     -11.909  12.452  68.744  1.00  0.00    -0.311 A  
HETATM   13  C   UNL     1     -11.886  13.313  69.835  1.00  0.00    -0.380 A  
HETATM   14  C   UNL     1     -11.655  14.674  69.671  1.00  0.00    -0.349 A  
HETATM   15  C   UNL     1     -11.417  15.215  68.407  1.00  0.00    -0.332 A  
HETATM   16  C   UNL     1     -11.638  12.972  67.475  1.00  0.00    -0.405 A  
HETATM   17  C   UNL     1     -11.397  14.348  67.305  1.00  0.00    -0.357 A  
BRANCH  15  18
HETATM   18  N   UNL     1     -11.240  16.602  68.209  1.00  0.00    -0.302 N  
HETATM   19  H   UNL     1     -12.032  17.124  67.835  1.00  0.00     0.000 HD 
HETATM   20  C   UNL     1     -10.082  17.316  68.479  1.00  0.00    -0.341 C  
HETATM   21  O   UNL     1      -8.980  16.856  68.755  1.00  0.00    -0.260 OA 
HETATM   22  C   UNL     1     -10.261  18.806  68.373  1.00  0.00    -0.413 C  
ENDBRANCH  15  18
ENDBRANCH  11  12
ENDBRANCH  10  11
ENDBRANCH   7  10
ENDBRANCH   6   7
ENDBRANCH   4   6
ENDBRANCH   2   4
TORSDOF 7
ENDMDL
MODEL       54
REMARK 921   NORMALIZED FREE ENERGY PREDICTED BY IDOCK:   -4.70 KCAL/MOL
REMARK 922        TOTAL FREE ENERGY PREDICTED BY IDOCK:   -7.47 KCAL/MOL
REMARK 923 INTER-LIGAND FREE ENERGY PREDICTED BY IDOCK:   -6.69 KCAL/MOL
REMARK 924 INTRA-LIGAND FREE ENERGY PREDICTED BY IDOCK:   -0.78 KCAL/MOL
REMARK 927      BINDING AFFINITY PREDICTED BY RF-SCORE:    0.00 PKD
ROOT
HETATM    1  C   UNL     1      -9.097  11.142  62.548  1.00  0.00    -0.347 C  
HETATM    2  C   UNL     1     -10.036  11.459  63.712  1.00  0.00    -0.362 C  
HETATM    3  C   UNL     1      -9.416  10.970  65.023  1.00  0.00    -0.269 C  
ENDROOT
BRANCH   2   4
HETATM    4  N   UNL     1     -10.267  12.904  63.728  1.00  0.00    -0.684 NA 
HETATM    5  H   UNL     1      -9.767  13.357  62.963  1.00  0.00     0.000 HD 
BRANCH   4   6
HETATM    6  C   UNL     1     -11.686  13.272  63.709  1.00  0.00    -0.421 C  
BRANCH   6   7
HETATM    7  C   UNL     1     -12.132  13.669  65.125  1.00  0.00    -0.403 C  
HETATM    8  H   UNL     1     -12.808  12.753  66.737  1.00  0.00     0.000 HD 
HETATM    9  O   UNL     1     -12.532  12.507  65.862  1.00  0.00    -0.596 OA 
BRANCH   7  10
HETATM   10  C   UNL     1     -11.019  14.411  65.866  1.00  0.00    -0.312 C  
BRANCH  10  11
HETATM   11  O   UNL     1     -10.718  15.666  65.229  1.00  0.00    -0.376 OA 
BRANCH  11  12
HETATM   12  C   UNL     1      -9.969  16.521  66.006  1.00  0.00    -0.337 A  
HETATM   13  C   UNL     1     -10.487  17.626  66.670  1.00  0.00    -0.286 A  
HETATM   14  C   UNL     1      -9.660  18.489  67.381  1.00  0.00    -0.307 A  
HETATM   15  C   UNL     1      -8.287  18.258  67.468  1.00  0.00    -0.245 A  
HETATM   16  C   UNL     1      -8.601  16.256  66.110  1.00  0.00    -0.342 A  
HETATM   17  C   UNL     1      -7.761  17.123  66.834  1.00  0.00    -0.256 A  
BRANCH  15  18
HETATM   18  N   UNL     1      -7.420  19.153  68.132  1.00  0.00    -0.272 N  
HETATM   19  H   UNL     1      -7.288  19.017  69.134  1.00  0.00     0.000 HD 
HETATM   20  C   UNL     1      -6.731  20.202  67.540  1.00  0.00    -0.233 C  
HETATM   21  O   UNL     1      -6.889  20.640  66.407  1.00  0.00    -0.255 OA 
HETATM   22  C   UNL     1      -5.721  20.843  68.452  1.00  0.00    -0.387 C  
ENDBRANCH  15  18
ENDBRANCH  11  12
ENDBRANCH  10  11
ENDBRANCH   7  10
ENDBRANCH   6   7
ENDBRANCH   4   6
ENDBRANCH   2   4
TORSDOF 7
ENDMDL
MODEL       55
REMARK 921   NORMALIZED FREE ENERGY PREDICTED BY IDOCK:   -4.69 KCAL/MOL
REMARK 922        TOTAL FREE ENERGY PREDICTED BY IDOCK:   -7.46 KCAL/MOL
REMARK 923 INTER-LIGAND FREE ENERGY PREDICTED BY IDOCK:   -7.09 KCAL/MOL
REMARK 924 INTRA-LIGAND FREE ENERGY PREDICTED BY IDOCK:   -0.36 KCAL/MOL
REMARK 927      BINDING AFFINITY PREDICTED BY RF-SCORE:    0.00 PKD
ROOT
HETATM    1  C   UNL     1     -13.020  11.197  71.635  1.00  0.00    -0.548 C  
HETATM    2  C   UNL     1     -12.136   9.972  71.400  1.00  0.00    -0.407 C  
HETATM    3  C   UNL     1     -12.701   8.774  72.167  1.00  0.00    -0.461 C  
ENDROOT
BRANCH   2   4
HETATM    4  N   UNL     1     -12.085   9.719  69.960  1.00  0.00    -0.466 NA 
HETATM    5  H   UNL     1     -12.398  10.539  69.439  1.00  0.00     0.000 HD 
BRANCH   4   6
HETATM    6  C   UNL     1     -10.769   9.277  69.488  1.00  0.00    -0.222 C  
BRANCH   6   7
HETATM    7  C   UNL     1     -10.103  10.408  68.689  1.00  0.00    -0.176 C  
HETATM    8  H   UNL     1      -8.316  10.794  67.945  1.00  0.00     0.000 HD 
HETATM    9  O   UNL     1      -8.727  10.094  68.439  1.00  0.00    -0.118 OA 
BRANCH   7  10
HETATM   10  C   UNL     1     -10.838  10.660  67.372  1.00  0.00    -0.296 C  
BRANCH  10  11
HETATM   11  O   UNL     1     -12.005  11.478  67.577  1.00  0.00    -0.629 OA 
BRANCH  11  12
HETATM   12  C   UNL     1     -11.751  12.830  67.541  1.00  0.00    -0.364 A  
HETATM   13  C   UNL     1     -11.318  13.513  66.411  1.00  0.00    -0.335 A  
HETATM   14  C   UNL     1     -11.012  14.868  66.464  1.00  0.00    -0.327 A  
HETATM   15  C   UNL     1     -11.153  15.590  67.649  1.00  0.00    -0.311 A  
HETATM   16  C   UNL     1     -11.931  13.546  68.728  1.00  0.00    -0.374 A  
HETATM   17  C   UNL     1     -11.629  14.919  68.785  1.00  0.00    -0.348 A  
BRANCH  15  18
HETATM   18  N   UNL     1     -10.791  16.952  67.742  1.00  0.00    -0.323 N  
HETATM   19  H   UNL     1     -10.834  17.384  68.664  1.00  0.00     0.000 HD 
HETATM   20  C   UNL     1     -10.381  17.754  66.686  1.00  0.00    -0.345 C  
HETATM   21  O   UNL     1     -10.434  17.482  65.492  1.00  0.00    -0.628 OA 
HETATM   22  C   UNL     1      -9.856  19.093  67.123  1.00  0.00    -0.411 C  
ENDBRANCH  15  18
ENDBRANCH  11  12
ENDBRANCH  10  11
ENDBRANCH   7  10
ENDBRANCH   6   7
ENDBRANCH   4   6
ENDBRANCH   2   4
TORSDOF 7
ENDMDL
MODEL       56
REMARK 921   NORMALIZED FREE ENERGY PREDICTED BY IDOCK:   -4.68 KCAL/MOL
REMARK 922        TOTAL FREE ENERGY PREDICTED BY IDOCK:   -7.43 KCAL/MOL
REMARK 923 INTER-LIGAND FREE ENERGY PREDICTED BY IDOCK:   -6.83 KCAL/MOL
REMARK 924 INTRA-LIGAND FREE ENERGY PREDICTED BY IDOCK:   -0.61 KCAL/MOL
REMARK 927      BINDING AFFINITY PREDICTED BY RF-SCORE:    0.00 PKD
ROOT
HETATM    1  C   UNL     1      -9.590   9.606  64.870  1.00  0.00    -0.244 C  
HETATM    2  C   UNL     1      -9.497  10.590  63.703  1.00  0.00    -0.304 C  
HETATM    3  C   UNL     1      -9.104   9.841  62.427  1.00  0.00    -0.300 C  
ENDROOT
BRANCH   2   4
HETATM    4  N   UNL     1     -10.795  11.253  63.565  1.00  0.00    -0.627 NA 
HETATM    5  H   UNL     1     -11.512  10.751  64.088  1.00  0.00     0.000 HD 
BRANCH   4   6
HETATM    6  C   UNL     1     -10.774  12.669  63.943  1.00  0.00    -0.431 C  
BRANCH   6   7
HETATM    7  C   UNL     1     -12.212  13.206  64.005  1.00  0.00    -0.414 C  
HETATM    8  H   UNL     1     -14.023  12.538  63.595  1.00  0.00     0.000 HD 
HETATM    9  O   UNL     1     -13.134  12.206  63.557  1.00  0.00    -0.785 OA 
BRANCH   7  10
HETATM   10  C   UNL     1     -12.569  13.662  65.421  1.00  0.00    -0.491 C  
BRANCH  10  11
HETATM   11  O   UNL     1     -11.399  13.717  66.259  1.00  0.00    -0.310 OA 
BRANCH  11  12
HETATM   12  C   UNL     1     -11.470  12.907  67.369  1.00  0.00    -0.336 A  
HETATM   13  C   UNL     1     -11.210  11.542  67.356  1.00  0.00    -0.367 A  
HETATM   14  C   UNL     1     -11.369  10.769  68.501  1.00  0.00    -0.360 A  
HETATM   15  C   UNL     1     -11.773  11.346  69.705  1.00  0.00    -0.344 A  
HETATM   16  C   UNL     1     -11.842  13.507  68.575  1.00  0.00    -0.398 A  
HETATM   17  C   UNL     1     -11.998  12.730  69.738  1.00  0.00    -0.362 A  
BRANCH  15  18
HETATM   18  N   UNL     1     -12.000  10.573  70.865  1.00  0.00    -0.357 N  
HETATM   19  H   UNL     1     -11.235  10.501  71.534  1.00  0.00     0.000 HD 
HETATM   20  C   UNL     1     -13.175   9.901  71.172  1.00  0.00    -0.347 C  
HETATM   21  O   UNL     1     -14.132   9.714  70.430  1.00  0.00     0.352 OA 
HETATM   22  C   UNL     1     -13.196   9.345  72.569  1.00  0.00    -0.403 C  
ENDBRANCH  15  18
ENDBRANCH  11  12
ENDBRANCH  10  11
ENDBRANCH   7  10
ENDBRANCH   6   7
ENDBRANCH   4   6
ENDBRANCH   2   4
TORSDOF 7
ENDMDL
MODEL       57
REMARK 921   NORMALIZED FREE ENERGY PREDICTED BY IDOCK:   -4.66 KCAL/MOL
REMARK 922        TOTAL FREE ENERGY PREDICTED BY IDOCK:   -7.41 KCAL/MOL
REMARK 923 INTER-LIGAND FREE ENERGY PREDICTED BY IDOCK:   -6.75 KCAL/MOL
REMARK 924 INTRA-LIGAND FREE ENERGY PREDICTED BY IDOCK:   -0.67 KCAL/MOL
REMARK 927      BINDING AFFINITY PREDICTED BY RF-SCORE:    0.00 PKD
ROOT
HETATM    1  C   UNL     1      -8.613  18.777  68.512  1.00  0.00    -0.378 C  
HETATM    2  C   UNL     1     -10.011  19.203  68.060  1.00  0.00    -0.376 C  
HETATM    3  C   UNL     1      -9.901  20.384  67.093  1.00  0.00    -0.601 C  
ENDROOT
BRANCH   2   4
HETATM    4  N   UNL     1     -10.656  18.048  67.435  1.00  0.00    -0.386 NA 
HETATM    5  H   UNL     1     -11.665  18.076  67.583  1.00  0.00     0.000 HD 
BRANCH   4   6
HETATM    6  C   UNL     1     -10.345  17.903  66.010  1.00  0.00    -0.318 C  
BRANCH   6   7
HETATM    7  C   UNL     1     -11.119  16.706  65.434  1.00  0.00     0.015 C  
HETATM    8  H   UNL     1     -11.732  16.101  63.659  1.00  0.00     0.000 HD 
HETATM    9  O   UNL     1     -11.253  16.840  64.014  1.00  0.00    -1.089 OA 
BRANCH   7  10
HETATM   10  C   UNL     1     -10.430  15.386  65.781  1.00  0.00    -0.355 C  
BRANCH  10  11
HETATM   11  O   UNL     1     -10.682  15.012  67.148  1.00  0.00    -0.290 OA 
BRANCH  11  12
HETATM   12  C   UNL     1     -10.847  13.659  67.335  1.00  0.00    -0.273 A  
HETATM   13  C   UNL     1     -10.822  13.034  68.576  1.00  0.00    -0.282 A  
HETATM   14  C   UNL     1     -10.926  11.651  68.686  1.00  0.00    -0.266 A  
HETATM   15  C   UNL     1     -11.080  10.851  67.554  1.00  0.00    -0.310 A  
HETATM   16  C   UNL     1     -11.037  12.875  66.194  1.00  0.00    -0.314 A  
HETATM   17  C   UNL     1     -11.148  11.476  66.301  1.00  0.00    -0.321 A  
BRANCH  15  18
HETATM   18  N   UNL     1     -11.127   9.442  67.637  1.00  0.00    -0.459 N  
HETATM   19  H   UNL     1     -11.977   9.025  68.015  1.00  0.00     0.000 HD 
HETATM   20  C   UNL     1     -10.115   8.575  67.248  1.00  0.00    -0.251 C  
HETATM   21  O   UNL     1      -8.966   8.874  66.944  1.00  0.00    -0.124 OA 
HETATM   22  C   UNL     1     -10.533   7.131  67.251  1.00  0.00    -0.372 C  
ENDBRANCH  15  18
ENDBRANCH  11  12
ENDBRANCH  10  11
ENDBRANCH   7  10
ENDBRANCH   6   7
ENDBRANCH   4   6
ENDBRANCH   2   4
TORSDOF 7
ENDMDL
MODEL       58
REMARK 921   NORMALIZED FREE ENERGY PREDICTED BY IDOCK:   -4.66 KCAL/MOL
REMARK 922        TOTAL FREE ENERGY PREDICTED BY IDOCK:   -7.41 KCAL/MOL
REMARK 923 INTER-LIGAND FREE ENERGY PREDICTED BY IDOCK:   -6.60 KCAL/MOL
REMARK 924 INTRA-LIGAND FREE ENERGY PREDICTED BY IDOCK:   -0.81 KCAL/MOL
REMARK 927      BINDING AFFINITY PREDICTED BY RF-SCORE:    0.00 PKD
ROOT
HETATM    1  C   UNL     1      -9.998  19.601  68.737  1.00  0.00    -0.542 C  
HETATM    2  C   UNL     1      -9.549  19.093  67.366  1.00  0.00    -0.311 C  
HETATM    3  C   UNL     1     -10.448  19.684  66.278  1.00  0.00    -0.621 C  
ENDROOT
BRANCH   2   4
HETATM    4  N   UNL     1      -8.148  19.476  67.179  1.00  0.00    -0.264 NA 
HETATM    5  H   UNL     1      -7.949  20.356  67.653  1.00  0.00     0.000 HD 
BRANCH   4   6
HETATM    6  C   UNL     1      -7.197  18.438  67.590  1.00  0.00    -0.214 C  
BRANCH   6   7
HETATM    7  C   UNL     1      -7.058  17.395  66.469  1.00  0.00    -0.265 C  
HETATM    8  H   UNL     1      -5.612  16.680  65.334  1.00  0.00     0.000 HD 
HETATM    9  O   UNL     1      -5.697  17.324  66.026  1.00  0.00    -0.269 OA 
BRANCH   7  10
HETATM   10  C   UNL     1      -7.539  16.020  66.934  1.00  0.00    -0.233 C  
BRANCH  10  11
HETATM   11  O   UNL     1      -8.893  15.774  66.513  1.00  0.00    -0.254 OA 
BRANCH  11  12
HETATM   12  C   UNL     1      -9.734  15.393  67.534  1.00  0.00    -0.208 A  
HETATM   13  C   UNL     1      -9.596  15.807  68.853  1.00  0.00    -0.229 A  
HETATM   14  C   UNL     1     -10.441  15.327  69.848  1.00  0.00    -0.277 A  
HETATM   15  C   UNL     1     -11.467  14.431  69.548  1.00  0.00    -0.288 A  
HETATM   16  C   UNL     1     -10.779  14.523  67.210  1.00  0.00    -0.287 A  
HETATM   17  C   UNL     1     -11.639  14.039  68.213  1.00  0.00    -0.364 A  
BRANCH  15  18
HETATM   18  N   UNL     1     -12.297  13.883  70.551  1.00  0.00    -0.351 N  
HETATM   19  H   UNL     1     -12.170  12.897  70.774  1.00  0.00     0.000 HD 
HETATM   20  C   UNL     1     -13.272  14.572  71.259  1.00  0.00    -0.357 C  
HETATM   21  O   UNL     1     -13.699  15.696  71.021  1.00  0.00    -0.582 OA 
HETATM   22  C   UNL     1     -13.842  13.786  72.407  1.00  0.00    -0.681 C  
ENDBRANCH  15  18
ENDBRANCH  11  12
ENDBRANCH  10  11
ENDBRANCH   7  10
ENDBRANCH   6   7
ENDBRANCH   4   6
ENDBRANCH   2   4
TORSDOF 7
ENDMDL
MODEL       59
REMARK 921   NORMALIZED FREE ENERGY PREDICTED BY IDOCK:   -4.65 KCAL/MOL
REMARK 922        TOTAL FREE ENERGY PREDICTED BY IDOCK:   -7.40 KCAL/MOL
REMARK 923 INTER-LIGAND FREE ENERGY PREDICTED BY IDOCK:   -6.41 KCAL/MOL
REMARK 924 INTRA-LIGAND FREE ENERGY PREDICTED BY IDOCK:   -0.99 KCAL/MOL
REMARK 927      BINDING AFFINITY PREDICTED BY RF-SCORE:    0.00 PKD
ROOT
HETATM    1  C   UNL     1     -12.627  11.861  63.385  1.00  0.00    -0.555 C  
HETATM    2  C   UNL     1     -11.570  12.963  63.464  1.00  0.00    -0.468 C  
HETATM    3  C   UNL     1     -12.075  14.099  64.357  1.00  0.00    -0.486 C  
ENDROOT
BRANCH   2   4
HETATM    4  N   UNL     1     -10.337  12.371  63.986  1.00  0.00    -0.390 NA 
HETATM    5  H   UNL     1     -10.031  12.860  64.827  1.00  0.00     0.000 HD 
BRANCH   4   6
HETATM    6  C   UNL     1     -10.438  10.929  64.232  1.00  0.00    -0.335 C  
BRANCH   6   7
HETATM    7  C   UNL     1     -10.009  10.622  65.676  1.00  0.00    -0.268 C  
HETATM    8  H   UNL     1      -8.353  10.725  66.744  1.00  0.00     0.000 HD 
HETATM    9  O   UNL     1      -8.617  10.915  65.852  1.00  0.00    -0.172 OA 
BRANCH   7  10
HETATM   10  C   UNL     1     -10.849  11.413  66.679  1.00  0.00    -0.289 C  
BRANCH  10  11
HETATM   11  O   UNL     1     -10.013  12.149  67.591  1.00  0.00    -0.191 OA 
BRANCH  11  12
HETATM   12  C   UNL     1     -10.140  13.515  67.486  1.00  0.00    -0.234 A  
HETATM   13  C   UNL     1      -9.265  14.328  66.776  1.00  0.00    -0.282 A  
HETATM   14  C   UNL     1      -9.413  15.710  66.770  1.00  0.00    -0.261 A  
HETATM   15  C   UNL     1     -10.460  16.323  67.459  1.00  0.00    -0.302 A  
HETATM   16  C   UNL     1     -11.215  14.110  68.153  1.00  0.00    -0.299 A  
HETATM   17  C   UNL     1     -11.372  15.509  68.145  1.00  0.00    -0.348 A  
BRANCH  15  18
HETATM   18  N   UNL     1     -10.595  17.728  67.517  1.00  0.00    -0.378 N  
HETATM   19  H   UNL     1     -11.354  18.146  66.980  1.00  0.00     0.000 HD 
HETATM   20  C   UNL     1      -9.783  18.589  68.242  1.00  0.00    -0.356 C  
HETATM   21  O   UNL     1      -8.726  18.312  68.797  1.00  0.00    -0.300 OA 
HETATM   22  C   UNL     1     -10.300  20.001  68.285  1.00  0.00    -0.494 C  
ENDBRANCH  15  18
ENDBRANCH  11  12
ENDBRANCH  10  11
ENDBRANCH   7  10
ENDBRANCH   6   7
ENDBRANCH   4   6
ENDBRANCH   2   4
TORSDOF 7
ENDMDL
MODEL       60
REMARK 921   NORMALIZED FREE ENERGY PREDICTED BY IDOCK:   -4.64 KCAL/MOL
REMARK 922        TOTAL FREE ENERGY PREDICTED BY IDOCK:   -7.39 KCAL/MOL
REMARK 923 INTER-LIGAND FREE ENERGY PREDICTED BY IDOCK:   -6.89 KCAL/MOL
REMARK 924 INTRA-LIGAND FREE ENERGY PREDICTED BY IDOCK:   -0.50 KCAL/MOL
REMARK 927      BINDING AFFINITY PREDICTED BY RF-SCORE:    0.00 PKD
ROOT
HETATM    1  C   UNL     1     -13.743   9.019  71.980  1.00  0.00    -0.516 C  
HETATM    2  C   UNL     1     -12.365   9.619  71.695  1.00  0.00    -0.404 C  
HETATM    3  C   UNL     1     -11.276   8.629  72.115  1.00  0.00    -0.438 C  
ENDROOT
BRANCH   2   4
HETATM    4  N   UNL     1     -12.293   9.930  70.267  1.00  0.00    -0.497 NA 
HETATM    5  H   UNL     1     -12.813  10.782  70.058  1.00  0.00     0.000 HD 
BRANCH   4   6
HETATM    6  C   UNL     1     -10.922  10.021  69.755  1.00  0.00    -0.276 C  
BRANCH   6   7
HETATM    7  C   UNL     1     -10.938  10.649  68.353  1.00  0.00    -0.251 C  
HETATM    8  H   UNL     1     -12.223  11.637  67.226  1.00  0.00     0.000 HD 
HETATM    9  O   UNL     1     -12.213  11.249  68.093  1.00  0.00    -0.622 OA 
BRANCH   7  10
HETATM   10  C   UNL     1      -9.823  11.686  68.201  1.00  0.00    -0.191 C  
BRANCH  10  11
HETATM   11  O   UNL     1      -9.724  12.146  66.840  1.00  0.00    -0.199 OA 
BRANCH  11  12
HETATM   12  C   UNL     1     -10.000  13.485  66.683  1.00  0.00    -0.282 A  
HETATM   13  C   UNL     1     -10.169  14.108  65.452  1.00  0.00    -0.380 A  
HETATM   14  C   UNL     1     -10.376  15.480  65.364  1.00  0.00    -0.422 A  
HETATM   15  C   UNL     1     -10.443  16.271  66.511  1.00  0.00    -0.290 A  
HETATM   16  C   UNL     1     -10.099  14.257  67.844  1.00  0.00    -0.233 A  
HETATM   17  C   UNL     1     -10.315  15.645  67.759  1.00  0.00    -0.266 A  
BRANCH  15  18
HETATM   18  N   UNL     1     -10.592  17.674  66.443  1.00  0.00    -0.267 N  
HETATM   19  H   UNL     1     -11.539  18.046  66.516  1.00  0.00     0.000 HD 
HETATM   20  C   UNL     1      -9.562  18.590  66.285  1.00  0.00    -0.273 C  
HETATM   21  O   UNL     1      -8.395  18.344  66.001  1.00  0.00    -0.480 OA 
HETATM   22  C   UNL     1     -10.000  20.017  66.466  1.00  0.00    -0.603 C  
ENDBRANCH  15  18
ENDBRANCH  11  12
ENDBRANCH  10  11
ENDBRANCH   7  10
ENDBRANCH   6   7
ENDBRANCH   4   6
ENDBRANCH   2   4
TORSDOF 7
ENDMDL
MODEL       61
REMARK 921   NORMALIZED FREE ENERGY PREDICTED BY IDOCK:   -4.63 KCAL/MOL
REMARK 922        TOTAL FREE ENERGY PREDICTED BY IDOCK:   -7.37 KCAL/MOL
REMARK 923 INTER-LIGAND FREE ENERGY PREDICTED BY IDOCK:   -6.86 KCAL/MOL
REMARK 924 INTRA-LIGAND FREE ENERGY PREDICTED BY IDOCK:   -0.51 KCAL/MOL
REMARK 927      BINDING AFFINITY PREDICTED BY RF-SCORE:    0.00 PKD
ROOT
HETATM    1  C   UNL     1      -9.485   8.148  72.693  1.00  0.00    -0.346 C  
HETATM    2  C   UNL     1     -10.198   6.837  73.029  1.00  0.00    -0.214 C  
HETATM    3  C   UNL     1      -9.777   6.364  74.423  1.00  0.00    -0.310 C  
ENDROOT
BRANCH   2   4
HETATM    4  N   UNL     1     -11.640   7.071  72.949  1.00  0.00    -0.528 NA 
HETATM    5  H   UNL     1     -12.090   6.859  73.839  1.00  0.00     0.000 HD 
BRANCH   4   6
HETATM    6  C   UNL     1     -11.990   8.423  72.500  1.00  0.00    -0.350 C  
BRANCH   6   7
HETATM    7  C   UNL     1     -13.122   8.343  71.464  1.00  0.00    -0.296 C  
HETATM    8  H   UNL     1     -14.751   7.264  71.183  1.00  0.00     0.000 HD 
HETATM    9  O   UNL     1     -14.051   7.313  71.824  1.00  0.00    -0.394 OA 
BRANCH   7  10
HETATM   10  C   UNL     1     -13.843   9.685  71.332  1.00  0.00    -0.117 C  
BRANCH  10  11
HETATM   11  O   UNL     1     -13.248  10.681  72.185  1.00  0.00    -0.464 OA 
BRANCH  11  12
HETATM   12  C   UNL     1     -12.894  11.838  71.529  1.00  0.00    -0.345 A  
HETATM   13  C   UNL     1     -13.216  13.115  71.972  1.00  0.00    -0.543 A  
HETATM   14  C   UNL     1     -12.888  14.239  71.222  1.00  0.00    -0.422 A  
HETATM   15  C   UNL     1     -12.204  14.120  70.012  1.00  0.00    -0.357 A  
HETATM   16  C   UNL     1     -12.178  11.703  70.336  1.00  0.00    -0.434 A  
HETATM   17  C   UNL     1     -11.838  12.838  69.577  1.00  0.00    -0.379 A  
BRANCH  15  18
HETATM   18  N   UNL     1     -11.914  15.242  69.205  1.00  0.00    -0.479 N  
HETATM   19  H   UNL     1     -12.662  15.593  68.608  1.00  0.00     0.000 HD 
HETATM   20  C   UNL     1     -10.698  15.908  69.153  1.00  0.00    -0.259 C  
HETATM   21  O   UNL     1      -9.637  15.543  69.646  1.00  0.00    -0.274 OA 
HETATM   22  C   UNL     1     -10.753  17.191  68.370  1.00  0.00    -0.347 C  
ENDBRANCH  15  18
ENDBRANCH  11  12
ENDBRANCH  10  11
ENDBRANCH   7  10
ENDBRANCH   6   7
ENDBRANCH   4   6
ENDBRANCH   2   4
TORSDOF 7
ENDMDL
MODEL       62
REMARK 921   NORMALIZED FREE ENERGY PREDICTED BY IDOCK:   -4.61 KCAL/MOL
REMARK 922        TOTAL FREE ENERGY PREDICTED BY IDOCK:   -7.34 KCAL/MOL
REMARK 923 INTER-LIGAND FREE ENERGY PREDICTED BY IDOCK:   -6.69 KCAL/MOL
REMARK 924 INTRA-LIGAND FREE ENERGY PREDICTED BY IDOCK:   -0.65 KCAL/MOL
REMARK 927      BINDING AFFINITY PREDICTED BY RF-SCORE:    0.00 PKD
ROOT
HETATM    1  C   UNL     1      -8.326  10.125  66.520  1.00  0.00    -0.124 C  
HETATM    2  C   UNL     1      -9.470   9.441  65.770  1.00  0.00    -0.259 C  
HETATM    3  C   UNL     1     -10.242   8.531  66.728  1.00  0.00    -0.370 C  
ENDROOT
BRANCH   2   4
HETATM    4  N   UNL     1     -10.326  10.483  65.203  1.00  0.00    -0.284 NA 
HETATM    5  H   UNL     1     -10.412  11.269  65.847  1.00  0.00     0.000 HD 
BRANCH   4   6
HETATM    6  C   UNL     1      -9.894  10.942  63.879  1.00  0.00    -0.331 C  
BRANCH   6   7
HETATM    7  C   UNL     1     -10.384  12.380  63.648  1.00  0.00    -0.403 C  
HETATM    8  H   UNL     1     -12.092  13.274  63.224  1.00  0.00     0.000 HD 
HETATM    9  O   UNL     1     -11.789  12.385  63.367  1.00  0.00    -0.475 OA 
BRANCH   7  10
HETATM   10  C   UNL     1     -10.081  13.266  64.857  1.00  0.00    -0.226 C  
BRANCH  10  11
HETATM   11  O   UNL     1     -11.240  14.026  65.248  1.00  0.00    -0.302 OA 
BRANCH  11  12
HETATM   12  C   UNL     1     -11.346  14.223  66.606  1.00  0.00    -0.349 A  
HETATM   13  C   UNL     1     -11.185  15.454  67.230  1.00  0.00    -0.270 A  
HETATM   14  C   UNL     1     -11.235  15.568  68.615  1.00  0.00    -0.326 A  
HETATM   15  C   UNL     1     -11.472  14.453  69.420  1.00  0.00    -0.288 A  
HETATM   16  C   UNL     1     -11.618  13.102  67.394  1.00  0.00    -0.403 A  
HETATM   17  C   UNL     1     -11.676  13.214  68.796  1.00  0.00    -0.363 A  
BRANCH  15  18
HETATM   18  N   UNL     1     -11.467  14.534  70.829  1.00  0.00    -0.491 N  
HETATM   19  H   UNL     1     -10.764  13.988  71.325  1.00  0.00     0.000 HD 
HETATM   20  C   UNL     1     -12.338  15.293  71.599  1.00  0.00    -0.363 C  
HETATM   21  O   UNL     1     -13.351  15.866  71.215  1.00  0.00    -0.507 OA 
HETATM   22  C   UNL     1     -11.954  15.350  73.052  1.00  0.00    -0.557 C  
ENDBRANCH  15  18
ENDBRANCH  11  12
ENDBRANCH  10  11
ENDBRANCH   7  10
ENDBRANCH   6   7
ENDBRANCH   4   6
ENDBRANCH   2   4
TORSDOF 7
ENDMDL
MODEL       63
REMARK 921   NORMALIZED FREE ENERGY PREDICTED BY IDOCK:   -4.59 KCAL/MOL
REMARK 922        TOTAL FREE ENERGY PREDICTED BY IDOCK:   -7.31 KCAL/MOL
REMARK 923 INTER-LIGAND FREE ENERGY PREDICTED BY IDOCK:   -6.39 KCAL/MOL
REMARK 924 INTRA-LIGAND FREE ENERGY PREDICTED BY IDOCK:   -0.93 KCAL/MOL
REMARK 927      BINDING AFFINITY PREDICTED BY RF-SCORE:    0.00 PKD
ROOT
HETATM    1  C   UNL     1     -11.265  15.988  68.132  1.00  0.00    -0.325 C  
HETATM    2  C   UNL     1     -11.507  14.478  68.150  1.00  0.00    -0.312 C  
HETATM    3  C   UNL     1     -12.101  14.067  69.499  1.00  0.00    -0.397 C  
ENDROOT
BRANCH   2   4
HETATM    4  N   UNL     1     -12.403  14.150  67.040  1.00  0.00    -0.571 NA 
HETATM    5  H   UNL     1     -13.269  14.685  67.106  1.00  0.00     0.000 HD 
BRANCH   4   6
HETATM    6  C   UNL     1     -11.788  14.319  65.720  1.00  0.00    -0.374 C  
BRANCH   6   7
HETATM    7  C   UNL     1     -12.176  13.137  64.817  1.00  0.00    -0.425 C  
HETATM    8  H   UNL     1     -12.857  12.882  62.983  1.00  0.00     0.000 HD 
HETATM    9  O   UNL     1     -12.617  13.613  63.540  1.00  0.00    -0.754 OA 
BRANCH   7  10
HETATM   10  C   UNL     1     -11.006  12.167  64.648  1.00  0.00    -0.312 C  
BRANCH  10  11
HETATM   11  O   UNL     1     -10.184  12.133  65.830  1.00  0.00    -0.240 OA 
BRANCH  11  12
HETATM   12  C   UNL     1     -10.275  10.957  66.539  1.00  0.00    -0.232 A  
HETATM   13  C   UNL     1      -9.963   9.707  66.019  1.00  0.00    -0.344 A  
HETATM   14  C   UNL     1     -10.145   8.550  66.769  1.00  0.00    -0.369 A  
HETATM   15  C   UNL     1     -10.627   8.612  68.077  1.00  0.00    -0.145 A  
HETATM   16  C   UNL     1     -10.725  11.040  67.859  1.00  0.00    -0.263 A  
HETATM   17  C   UNL     1     -10.906   9.873  68.625  1.00  0.00    -0.244 A  
BRANCH  15  18
HETATM   18  N   UNL     1     -10.877   7.449  68.837  1.00  0.00    -0.396 N  
HETATM   19  H   UNL     1     -11.815   7.051  68.785  1.00  0.00     0.000 HD 
HETATM   20  C   UNL     1      -9.958   6.799  69.648  1.00  0.00    -0.173 C  
HETATM   21  O   UNL     1      -8.853   7.209  69.984  1.00  0.00    -0.141 OA 
HETATM   22  C   UNL     1     -10.446   5.471  70.158  1.00  0.00    -0.370 C  
ENDBRANCH  15  18
ENDBRANCH  11  12
ENDBRANCH  10  11
ENDBRANCH   7  10
ENDBRANCH   6   7
ENDBRANCH   4   6
ENDBRANCH   2   4
TORSDOF 7
ENDMDL
MODEL       64
REMARK 921   NORMALIZED FREE ENERGY PREDICTED BY IDOCK:   -4.56 KCAL/MOL
REMARK 922        TOTAL FREE ENERGY PREDICTED BY IDOCK:   -7.26 KCAL/MOL
REMARK 923 INTER-LIGAND FREE ENERGY PREDICTED BY IDOCK:   -6.66 KCAL/MOL
REMARK 924 INTRA-LIGAND FREE ENERGY PREDICTED BY IDOCK:   -0.61 KCAL/MOL
REMARK 927      BINDING AFFINITY PREDICTED BY RF-SCORE:    0.00 PKD
ROOT
HETATM    1  C   UNL     1     -10.553  15.117  69.636  1.00  0.00    -0.274 C  
HETATM    2  C   UNL     1     -11.916  14.916  68.971  1.00  0.00    -0.272 C  
HETATM    3  C   UNL     1     -11.847  13.733  68.002  1.00  0.00    -0.408 C  
ENDROOT
BRANCH   2   4
HETATM    4  N   UNL     1     -12.906  14.696  70.025  1.00  0.00    -0.568 NA 
HETATM    5  H   UNL     1     -13.460  13.861  69.831  1.00  0.00     0.000 HD 
BRANCH   4   6
HETATM    6  C   UNL     1     -12.326  14.632  71.371  1.00  0.00    -0.348 C  
BRANCH   6   7
HETATM    7  C   UNL     1     -12.899  13.418  72.120  1.00  0.00    -0.211 C  
HETATM    8  H   UNL     1     -14.647  12.861  72.846  1.00  0.00     0.000 HD 
HETATM    9  O   UNL     1     -14.294  13.611  72.383  1.00  0.00    -0.661 OA 
BRANCH   7  10
HETATM   10  C   UNL     1     -12.681  12.129  71.327  1.00  0.00    -0.261 C  
BRANCH  10  11
HETATM   11  O   UNL     1     -13.112  10.978  72.078  1.00  0.00    -0.496 OA 
BRANCH  11  12
HETATM   12  C   UNL     1     -12.549   9.795  71.657  1.00  0.00    -0.416 A  
HETATM   13  C   UNL     1     -13.139   8.548  71.823  1.00  0.00    -0.383 A  
HETATM   14  C   UNL     1     -12.481   7.385  71.437  1.00  0.00    -0.402 A  
HETATM   15  C   UNL     1     -11.217   7.436  70.850  1.00  0.00    -0.270 A  
HETATM   16  C   UNL     1     -11.298   9.867  71.039  1.00  0.00    -0.460 A  
HETATM   17  C   UNL     1     -10.631   8.693  70.641  1.00  0.00    -0.249 A  
BRANCH  15  18
HETATM   18  N   UNL     1     -10.505   6.266  70.506  1.00  0.00    -0.209 N  
HETATM   19  H   UNL     1      -9.923   5.846  71.229  1.00  0.00     0.000 HD 
HETATM   20  C   UNL     1     -10.529   5.640  69.268  1.00  0.00    -0.286 C  
HETATM   21  O   UNL     1     -11.012   6.078  68.230  1.00  0.00    -0.303 OA 
HETATM   22  C   UNL     1      -9.846   4.300  69.264  1.00  0.00    -0.180 C  
ENDBRANCH  15  18
ENDBRANCH  11  12
ENDBRANCH  10  11
ENDBRANCH   7  10
ENDBRANCH   6   7
ENDBRANCH   4   6
ENDBRANCH   2   4
TORSDOF 7
ENDMDL
MODEL       65
REMARK 921   NORMALIZED FREE ENERGY PREDICTED BY IDOCK:   -4.53 KCAL/MOL
REMARK 922        TOTAL FREE ENERGY PREDICTED BY IDOCK:   -7.23 KCAL/MOL
REMARK 923 INTER-LIGAND FREE ENERGY PREDICTED BY IDOCK:   -6.83 KCAL/MOL
REMARK 924 INTRA-LIGAND FREE ENERGY PREDICTED BY IDOCK:   -0.40 KCAL/MOL
REMARK 927      BINDING AFFINITY PREDICTED BY RF-SCORE:    0.00 PKD
ROOT
HETATM    1  C   UNL     1     -10.308   6.829  71.281  1.00  0.00    -0.225 C  
HETATM    2  C   UNL     1     -10.463   7.200  72.757  1.00  0.00    -0.244 C  
HETATM    3  C   UNL     1      -9.256   8.025  73.210  1.00  0.00    -0.347 C  
ENDROOT
BRANCH   2   4
HETATM    4  N   UNL     1     -11.715   7.943  72.908  1.00  0.00    -0.606 NA 
HETATM    5  H   UNL     1     -11.533   8.895  73.224  1.00  0.00     0.000 HD 
BRANCH   4   6
HETATM    6  C   UNL     1     -12.544   7.948  71.698  1.00  0.00    -0.321 C  
BRANCH   6   7
HETATM    7  C   UNL     1     -13.534   9.122  71.758  1.00  0.00    -0.416 C  
HETATM    8  H   UNL     1     -14.974   9.737  72.958  1.00  0.00     0.000 HD 
HETATM    9  O   UNL     1     -14.363   9.012  72.922  1.00  0.00    -0.550 OA 
BRANCH   7  10
HETATM   10  C   UNL     1     -12.798  10.463  71.755  1.00  0.00    -0.456 C  
BRANCH  10  11
HETATM   11  O   UNL     1     -11.482  10.332  71.186  1.00  0.00    -0.341 OA 
BRANCH  11  12
HETATM   12  C   UNL     1     -11.428  10.601  69.837  1.00  0.00    -0.317 A  
HETATM   13  C   UNL     1     -10.848   9.758  68.897  1.00  0.00    -0.220 A  
HETATM   14  C   UNL     1     -10.765  10.125  67.558  1.00  0.00    -0.347 A  
HETATM   15  C   UNL     1     -11.283  11.342  67.114  1.00  0.00    -0.296 A  
HETATM   16  C   UNL     1     -11.983  11.808  69.404  1.00  0.00    -0.361 A  
HETATM   17  C   UNL     1     -11.907  12.181  68.049  1.00  0.00    -0.351 A  
BRANCH  15  18
HETATM   18  N   UNL     1     -11.157  11.762  65.772  1.00  0.00    -0.313 N  
HETATM   19  H   UNL     1     -11.608  12.639  65.514  1.00  0.00     0.000 HD 
HETATM   20  C   UNL     1     -10.472  11.085  64.773  1.00  0.00    -0.316 C  
HETATM   21  O   UNL     1     -10.023   9.946  64.831  1.00  0.00    -0.306 OA 
HETATM   22  C   UNL     1     -10.327  11.880  63.505  1.00  0.00    -0.495 C  
ENDBRANCH  15  18
ENDBRANCH  11  12
ENDBRANCH  10  11
ENDBRANCH   7  10
ENDBRANCH   6   7
ENDBRANCH   4   6
ENDBRANCH   2   4
TORSDOF 7
ENDMDL
MODEL       66
REMARK 921   NORMALIZED FREE ENERGY PREDICTED BY IDOCK:   -4.53 KCAL/MOL
REMARK 922        TOTAL FREE ENERGY PREDICTED BY IDOCK:   -7.22 KCAL/MOL
REMARK 923 INTER-LIGAND FREE ENERGY PREDICTED BY IDOCK:   -6.67 KCAL/MOL
REMARK 924 INTRA-LIGAND FREE ENERGY PREDICTED BY IDOCK:   -0.55 KCAL/MOL
REMARK 927      BINDING AFFINITY PREDICTED BY RF-SCORE:    0.00 PKD
ROOT
HETATM    1  C   UNL     1     -11.176   6.381  70.995  1.00  0.00    -0.370 C  
HETATM    2  C   UNL     1     -11.556   7.839  71.259  1.00  0.00    -0.277 C  
HETATM    3  C   UNL     1     -10.668   8.410  72.367  1.00  0.00    -0.405 C  
ENDROOT
BRANCH   2   4
HETATM    4  N   UNL     1     -11.404   8.581  70.006  1.00  0.00    -0.450 NA 
HETATM    5  H   UNL     1     -12.259   8.530  69.453  1.00  0.00     0.000 HD 
BRANCH   4   6
HETATM    6  C   UNL     1     -10.990   9.974  70.197  1.00  0.00    -0.310 C  
BRANCH   6   7
HETATM    7  C   UNL     1     -12.124  10.912  69.753  1.00  0.00    -0.338 C  
HETATM    8  H   UNL     1     -13.229  12.329  70.569  1.00  0.00     0.000 HD 
HETATM    9  O   UNL     1     -12.528  11.750  70.843  1.00  0.00    -0.372 OA 
BRANCH   7  10
HETATM   10  C   UNL     1     -11.698  11.765  68.557  1.00  0.00    -0.330 C  
BRANCH  10  11
HETATM   11  O   UNL     1     -10.459  12.448  68.822  1.00  0.00    -0.218 OA 
BRANCH  11  12
HETATM   12  C   UNL     1     -10.514  13.807  68.607  1.00  0.00    -0.239 A  
HETATM   13  C   UNL     1     -11.679  14.561  68.681  1.00  0.00    -0.364 A  
HETATM   14  C   UNL     1     -11.675  15.919  68.381  1.00  0.00    -0.246 A  
HETATM   15  C   UNL     1     -10.496  16.571  68.019  1.00  0.00    -0.313 A  
HETATM   16  C   UNL     1      -9.318  14.451  68.279  1.00  0.00    -0.206 A  
HETATM   17  C   UNL     1      -9.308  15.826  67.981  1.00  0.00    -0.197 A  
BRANCH  15  18
HETATM   18  N   UNL     1     -10.479  17.934  67.651  1.00  0.00    -0.386 N  
HETATM   19  H   UNL     1     -10.498  18.620  68.405  1.00  0.00     0.000 HD 
HETATM   20  C   UNL     1     -10.438  18.422  66.353  1.00  0.00    -0.383 C  
HETATM   21  O   UNL     1     -10.590  17.780  65.320  1.00  0.00    -0.651 OA 
HETATM   22  C   UNL     1     -10.210  19.906  66.280  1.00  0.00    -0.614 C  
ENDBRANCH  15  18
ENDBRANCH  11  12
ENDBRANCH  10  11
ENDBRANCH   7  10
ENDBRANCH   6   7
ENDBRANCH   4   6
ENDBRANCH   2   4
TORSDOF 7
ENDMDL
MODEL       67
REMARK 921   NORMALIZED FREE ENERGY PREDICTED BY IDOCK:   -4.52 KCAL/MOL
REMARK 922        TOTAL FREE ENERGY PREDICTED BY IDOCK:   -7.20 KCAL/MOL
REMARK 923 INTER-LIGAND FREE ENERGY PREDICTED BY IDOCK:   -6.51 KCAL/MOL
REMARK 924 INTRA-LIGAND FREE ENERGY PREDICTED BY IDOCK:   -0.69 KCAL/MOL
REMARK 927      BINDING AFFINITY PREDICTED BY RF-SCORE:    0.00 PKD
ROOT
HETATM    1  C   UNL     1      -5.929  18.085  65.503  1.00  0.00    -0.195 C  
HETATM    2  C   UNL     1      -6.725  19.376  65.694  1.00  0.00    -0.275 C  
HETATM    3  C   UNL     1      -6.409  20.349  64.555  1.00  0.00    -0.332 C  
ENDROOT
BRANCH   2   4
HETATM    4  N   UNL     1      -8.147  19.030  65.732  1.00  0.00    -0.425 NA 
HETATM    5  H   UNL     1      -8.284  18.122  66.175  1.00  0.00     0.000 HD 
BRANCH   4   6
HETATM    6  C   UNL     1      -8.982  20.052  66.373  1.00  0.00    -0.326 C  
BRANCH   6   7
HETATM    7  C   UNL     1     -10.440  19.568  66.419  1.00  0.00    -0.498 C  
HETATM    8  H   UNL     1     -11.856  19.119  65.120  1.00  0.00     0.000 HD 
HETATM    9  O   UNL     1     -10.955  19.417  65.091  1.00  0.00    -0.430 OA 
BRANCH   7  10
HETATM   10  C   UNL     1     -10.559  18.251  67.188  1.00  0.00    -0.367 C  
BRANCH  10  11
HETATM   11  O   UNL     1     -10.441  17.121  66.303  1.00  0.00    -0.319 OA 
BRANCH  11  12
HETATM   12  C   UNL     1     -10.458  15.905  66.947  1.00  0.00    -0.309 A  
HETATM   13  C   UNL     1     -11.205  15.637  68.088  1.00  0.00    -0.345 A  
HETATM   14  C   UNL     1     -11.121  14.406  68.729  1.00  0.00    -0.275 A  
HETATM   15  C   UNL     1     -10.299  13.393  68.233  1.00  0.00    -0.249 A  
HETATM   16  C   UNL     1      -9.657  14.890  66.418  1.00  0.00    -0.317 A  
HETATM   17  C   UNL     1      -9.573  13.640  67.060  1.00  0.00    -0.251 A  
BRANCH  15  18
HETATM   18  N   UNL     1     -10.151  12.158  68.901  1.00  0.00    -0.418 N  
HETATM   19  H   UNL     1      -9.254  11.975  69.350  1.00  0.00     0.000 HD 
HETATM   20  C   UNL     1     -11.120  11.170  68.998  1.00  0.00    -0.242 C  
HETATM   21  O   UNL     1     -12.181  11.116  68.386  1.00  0.00    -0.610 OA 
HETATM   22  C   UNL     1     -10.752  10.064  69.949  1.00  0.00    -0.328 C  
ENDBRANCH  15  18
ENDBRANCH  11  12
ENDBRANCH  10  11
ENDBRANCH   7  10
ENDBRANCH   6   7
ENDBRANCH   4   6
ENDBRANCH   2   4
TORSDOF 7
ENDMDL
MODEL       68
REMARK 921   NORMALIZED FREE ENERGY PREDICTED BY IDOCK:   -4.51 KCAL/MOL
REMARK 922        TOTAL FREE ENERGY PREDICTED BY IDOCK:   -7.20 KCAL/MOL
REMARK 923 INTER-LIGAND FREE ENERGY PREDICTED BY IDOCK:   -6.45 KCAL/MOL
REMARK 924 INTRA-LIGAND FREE ENERGY PREDICTED BY IDOCK:   -0.75 KCAL/MOL
REMARK 927      BINDING AFFINITY PREDICTED BY RF-SCORE:    0.00 PKD
ROOT
HETATM    1  C   UNL     1     -10.499   5.626  68.950  1.00  0.00    -0.310 C  
HETATM    2  C   UNL     1     -10.297   6.991  69.608  1.00  0.00    -0.209 C  
HETATM    3  C   UNL     1      -9.511   7.906  68.666  1.00  0.00    -0.149 C  
ENDROOT
BRANCH   2   4
HETATM    4  N   UNL     1     -11.615   7.542  69.924  1.00  0.00    -0.478 NA 
HETATM    5  H   UNL     1     -12.253   7.422  69.137  1.00  0.00     0.000 HD 
BRANCH   4   6
HETATM    6  C   UNL     1     -12.200   6.996  71.153  1.00  0.00    -0.382 C  
BRANCH   6   7
HETATM    7  C   UNL     1     -11.986   7.988  72.308  1.00  0.00    -0.358 C  
HETATM    8  H   UNL     1     -10.846   8.110  73.915  1.00  0.00     0.000 HD 
HETATM    9  O   UNL     1     -10.978   7.498  73.201  1.00  0.00    -0.376 OA 
BRANCH   7  10
HETATM   10  C   UNL     1     -11.601   9.371  71.782  1.00  0.00    -0.363 C  
BRANCH  10  11
HETATM   11  O   UNL     1     -12.770  10.141  71.443  1.00  0.00    -0.353 OA 
BRANCH  11  12
HETATM   12  C   UNL     1     -12.490  11.337  70.823  1.00  0.00    -0.376 A  
HETATM   13  C   UNL     1     -12.788  12.583  71.360  1.00  0.00    -0.359 A  
HETATM   14  C   UNL     1     -12.541  13.751  70.647  1.00  0.00    -0.386 A  
HETATM   15  C   UNL     1     -11.964  13.708  69.378  1.00  0.00    -0.342 A  
HETATM   16  C   UNL     1     -11.880  11.278  69.566  1.00  0.00    -0.427 A  
HETATM   17  C   UNL     1     -11.622  12.458  68.844  1.00  0.00    -0.364 A  
BRANCH  15  18
HETATM   18  N   UNL     1     -11.759  14.876  68.611  1.00  0.00    -0.371 N  
HETATM   19  H   UNL     1     -12.435  15.074  67.873  1.00  0.00     0.000 HD 
HETATM   20  C   UNL     1     -10.718  15.779  68.774  1.00  0.00    -0.253 C  
HETATM   21  O   UNL     1      -9.719  15.633  69.469  1.00  0.00    -0.262 OA 
HETATM   22  C   UNL     1     -10.883  17.033  67.960  1.00  0.00    -0.330 C  
ENDBRANCH  15  18
ENDBRANCH  11  12
ENDBRANCH  10  11
ENDBRANCH   7  10
ENDBRANCH   6   7
ENDBRANCH   4   6
ENDBRANCH   2   4
TORSDOF 7
ENDMDL
MODEL       69
REMARK 921   NORMALIZED FREE ENERGY PREDICTED BY IDOCK:   -4.51 KCAL/MOL
REMARK 922        TOTAL FREE ENERGY PREDICTED BY IDOCK:   -7.19 KCAL/MOL
REMARK 923 INTER-LIGAND FREE ENERGY PREDICTED BY IDOCK:   -6.75 KCAL/MOL
REMARK 924 INTRA-LIGAND FREE ENERGY PREDICTED BY IDOCK:   -0.44 KCAL/MOL
REMARK 927      BINDING AFFINITY PREDICTED BY RF-SCORE:    0.00 PKD
ROOT
HETATM    1  C   UNL     1      -9.983  20.256  66.470  1.00  0.00    -0.528 C  
HETATM    2  C   UNL     1      -8.913  19.166  66.387  1.00  0.00    -0.342 C  
HETATM    3  C   UNL     1      -7.531  19.810  66.250  1.00  0.00    -0.308 C  
ENDROOT
BRANCH   2   4
HETATM    4  N   UNL     1      -9.011  18.343  67.593  1.00  0.00    -0.271 NA 
HETATM    5  H   UNL     1      -8.625  18.837  68.398  1.00  0.00     0.000 HD 
BRANCH   4   6
HETATM    6  C   UNL     1     -10.371  17.875  67.876  1.00  0.00    -0.389 C  
BRANCH   6   7
HETATM    7  C   UNL     1     -10.493  16.391  67.497  1.00  0.00    -0.304 C  
HETATM    8  H   UNL     1      -9.287  14.837  67.335  1.00  0.00     0.000 HD 
HETATM    9  O   UNL     1      -9.211  15.754  67.570  1.00  0.00    -0.201 OA 
BRANCH   7  10
HETATM   10  C   UNL     1     -11.495  15.672  68.402  1.00  0.00    -0.369 C  
BRANCH  10  11
HETATM   11  O   UNL     1     -11.980  14.465  67.784  1.00  0.00    -0.370 OA 
BRANCH  11  12
HETATM   12  C   UNL     1     -11.941  13.363  68.607  1.00  0.00    -0.327 A  
HETATM   13  C   UNL     1     -11.687  12.070  68.168  1.00  0.00    -0.398 A  
HETATM   14  C   UNL     1     -11.733  10.991  69.045  1.00  0.00    -0.402 A  
HETATM   15  C   UNL     1     -12.014  11.178  70.398  1.00  0.00    -0.378 A  
HETATM   16  C   UNL     1     -12.189  13.572  69.967  1.00  0.00    -0.381 A  
HETATM   17  C   UNL     1     -12.231  12.485  70.859  1.00  0.00    -0.277 A  
BRANCH  15  18
HETATM   18  N   UNL     1     -12.125  10.093  71.295  1.00  0.00    -0.377 N  
HETATM   19  H   UNL     1     -13.034   9.941  71.732  1.00  0.00     0.000 HD 
HETATM   20  C   UNL     1     -11.106   9.215  71.633  1.00  0.00    -0.375 C  
HETATM   21  O   UNL     1      -9.916   9.330  71.364  1.00  0.00    -0.306 OA 
HETATM   22  C   UNL     1     -11.576   8.035  72.439  1.00  0.00    -0.450 C  
ENDBRANCH  15  18
ENDBRANCH  11  12
ENDBRANCH  10  11
ENDBRANCH   7  10
ENDBRANCH   6   7
ENDBRANCH   4   6
ENDBRANCH   2   4
TORSDOF 7
ENDMDL
MODEL       70
REMARK 921   NORMALIZED FREE ENERGY PREDICTED BY IDOCK:   -4.50 KCAL/MOL
REMARK 922        TOTAL FREE ENERGY PREDICTED BY IDOCK:   -7.18 KCAL/MOL
REMARK 923 INTER-LIGAND FREE ENERGY PREDICTED BY IDOCK:   -6.49 KCAL/MOL
REMARK 924 INTRA-LIGAND FREE ENERGY PREDICTED BY IDOCK:   -0.69 KCAL/MOL
REMARK 927      BINDING AFFINITY PREDICTED BY RF-SCORE:    0.00 PKD
ROOT
HETATM    1  C   UNL     1     -10.315   5.003  66.611  1.00  0.00    -0.312 C  
HETATM    2  C   UNL     1     -11.089   6.225  67.107  1.00  0.00    -0.303 C  
HETATM    3  C   UNL     1     -10.882   6.389  68.615  1.00  0.00    -0.379 C  
ENDROOT
BRANCH   2   4
HETATM    4  N   UNL     1     -10.614   7.394  66.365  1.00  0.00    -0.357 NA 
HETATM    5  H   UNL     1     -11.389   8.016  66.139  1.00  0.00     0.000 HD 
BRANCH   4   6
HETATM    6  C   UNL     1      -9.542   8.126  67.047  1.00  0.00    -0.196 C  
BRANCH   6   7
HETATM    7  C   UNL     1      -9.494   9.570  66.525  1.00  0.00    -0.182 C  
HETATM    8  H   UNL     1      -9.544  10.476  64.772  1.00  0.00     0.000 HD 
HETATM    9  O   UNL     1      -9.573   9.583  65.094  1.00  0.00    -0.280 OA 
BRANCH   7  10
HETATM   10  C   UNL     1     -10.620  10.411  67.128  1.00  0.00    -0.261 C  
BRANCH  10  11
HETATM   11  O   UNL     1     -11.021   9.898  68.412  1.00  0.00    -0.231 OA 
BRANCH  11  12
HETATM   12  C   UNL     1     -11.513  10.858  69.267  1.00  0.00    -0.302 A  
HETATM   13  C   UNL     1     -12.108  10.581  70.491  1.00  0.00    -0.437 A  
HETATM   14  C   UNL     1     -12.649  11.595  71.274  1.00  0.00    -0.425 A  
HETATM   15  C   UNL     1     -12.590  12.927  70.862  1.00  0.00    -0.270 A  
HETATM   16  C   UNL     1     -11.416  12.190  68.856  1.00  0.00    -0.350 A  
HETATM   17  C   UNL     1     -11.956  13.221  69.647  1.00  0.00    -0.376 A  
BRANCH  15  18
HETATM   18  N   UNL     1     -13.186  13.967  71.610  1.00  0.00    -0.354 N  
HETATM   19  H   UNL     1     -14.204  13.981  71.660  1.00  0.00     0.000 HD 
HETATM   20  C   UNL     1     -12.505  14.971  72.284  1.00  0.00    -0.349 C  
HETATM   21  O   UNL     1     -11.310  15.233  72.202  1.00  0.00    -0.442 OA 
HETATM   22  C   UNL     1     -13.392  15.804  73.167  1.00  0.00    -0.685 C  
ENDBRANCH  15  18
ENDBRANCH  11  12
ENDBRANCH  10  11
ENDBRANCH   7  10
ENDBRANCH   6   7
ENDBRANCH   4   6
ENDBRANCH   2   4
TORSDOF 7
ENDMDL
MODEL       71
REMARK 921   NORMALIZED FREE ENERGY PREDICTED BY IDOCK:   -4.49 KCAL/MOL
REMARK 922        TOTAL FREE ENERGY PREDICTED BY IDOCK:   -7.16 KCAL/MOL
REMARK 923 INTER-LIGAND FREE ENERGY PREDICTED BY IDOCK:   -6.63 KCAL/MOL
REMARK 924 INTRA-LIGAND FREE ENERGY PREDICTED BY IDOCK:   -0.53 KCAL/MOL
REMARK 927      BINDING AFFINITY PREDICTED BY RF-SCORE:    0.00 PKD
ROOT
HETATM    1  C   UNL     1      -5.969  18.363  69.334  1.00  0.00    -0.252 C  
HETATM    2  C   UNL     1      -6.474  19.806  69.279  1.00  0.00    -0.339 C  
HETATM    3  C   UNL     1      -5.366  20.757  69.738  1.00  0.00    -0.413 C  
ENDROOT
BRANCH   2   4
HETATM    4  N   UNL     1      -6.895  20.087  67.906  1.00  0.00    -0.262 NA 
HETATM    5  H   UNL     1      -6.102  20.034  67.268  1.00  0.00     0.000 HD 
BRANCH   4   6
HETATM    6  C   UNL     1      -7.992  19.231  67.443  1.00  0.00    -0.264 C  
BRANCH   6   7
HETATM    7  C   UNL     1      -9.198  19.387  68.384  1.00  0.00    -0.359 C  
HETATM    8  H   UNL     1     -10.976  20.242  68.325  1.00  0.00     0.000 HD 
HETATM    9  O   UNL     1     -10.231  20.146  67.744  1.00  0.00    -0.407 OA 
BRANCH   7  10
HETATM   10  C   UNL     1      -9.734  18.023  68.822  1.00  0.00    -0.328 C  
BRANCH  10  11
HETATM   11  O   UNL     1     -10.880  17.640  68.039  1.00  0.00    -0.369 OA 
BRANCH  11  12
HETATM   12  C   UNL     1     -10.630  16.625  67.144  1.00  0.00    -0.264 A  
HETATM   13  C   UNL     1     -10.644  16.781  65.763  1.00  0.00    -0.259 A  
HETATM   14  C   UNL     1     -10.452  15.695  64.916  1.00  0.00    -0.261 A  
HETATM   15  C   UNL     1     -10.217  14.419  65.426  1.00  0.00    -0.382 A  
HETATM   16  C   UNL     1     -10.362  15.359  67.672  1.00  0.00    -0.262 A  
HETATM   17  C   UNL     1     -10.161  14.259  66.818  1.00  0.00    -0.264 A  
BRANCH  15  18
HETATM   18  N   UNL     1     -10.080  13.292  64.587  1.00  0.00    -0.603 N  
HETATM   19  H   UNL     1      -9.153  12.874  64.515  1.00  0.00     0.000 HD 
HETATM   20  C   UNL     1     -11.098  12.703  63.850  1.00  0.00    -0.427 C  
HETATM   21  O   UNL     1     -12.222  13.152  63.659  1.00  0.00    -0.582 OA 
HETATM   22  C   UNL     1     -10.702  11.395  63.224  1.00  0.00    -0.332 C  
ENDBRANCH  15  18
ENDBRANCH  11  12
ENDBRANCH  10  11
ENDBRANCH   7  10
ENDBRANCH   6   7
ENDBRANCH   4   6
ENDBRANCH   2   4
TORSDOF 7
ENDMDL
MODEL       72
REMARK 921   NORMALIZED FREE ENERGY PREDICTED BY IDOCK:   -4.48 KCAL/MOL
REMARK 922        TOTAL FREE ENERGY PREDICTED BY IDOCK:   -7.16 KCAL/MOL
REMARK 923 INTER-LIGAND FREE ENERGY PREDICTED BY IDOCK:   -6.67 KCAL/MOL
REMARK 924 INTRA-LIGAND FREE ENERGY PREDICTED BY IDOCK:   -0.49 KCAL/MOL
REMARK 927      BINDING AFFINITY PREDICTED BY RF-SCORE:    0.00 PKD
ROOT
HETATM    1  C   UNL     1     -11.275  10.226  69.786  1.00  0.00    -0.339 C  
HETATM    2  C   UNL     1     -12.241  11.368  70.106  1.00  0.00    -0.321 C  
HETATM    3  C   UNL     1     -13.007  11.049  71.392  1.00  0.00    -0.517 C  
ENDROOT
BRANCH   2   4
HETATM    4  N   UNL     1     -11.461  12.600  70.230  1.00  0.00    -0.487 NA 
HETATM    5  H   UNL     1     -10.475  12.423  70.037  1.00  0.00     0.000 HD 
BRANCH   4   6
HETATM    6  C   UNL     1     -11.963  13.698  69.399  1.00  0.00    -0.342 C  
BRANCH   6   7
HETATM    7  C   UNL     1     -12.285  14.910  70.288  1.00  0.00    -0.335 C  
HETATM    8  H   UNL     1     -12.391  15.296  72.221  1.00  0.00     0.000 HD 
HETATM    9  O   UNL     1     -12.192  14.547  71.671  1.00  0.00    -0.335 OA 
BRANCH   7  10
HETATM   10  C   UNL     1     -11.351  16.081  69.982  1.00  0.00    -0.352 C  
BRANCH  10  11
HETATM   11  O   UNL     1     -11.329  16.374  68.572  1.00  0.00    -0.371 OA 
BRANCH  11  12
HETATM   12  C   UNL     1     -10.423  17.348  68.219  1.00  0.00    -0.385 A  
HETATM   13  C   UNL     1     -10.772  18.574  67.667  1.00  0.00    -0.405 A  
HETATM   14  C   UNL     1      -9.800  19.484  67.267  1.00  0.00    -0.468 A  
HETATM   15  C   UNL     1      -8.443  19.203  67.428  1.00  0.00    -0.282 A  
HETATM   16  C   UNL     1      -9.069  17.064  68.420  1.00  0.00    -0.256 A  
HETATM   17  C   UNL     1      -8.082  17.985  68.022  1.00  0.00    -0.259 A  
BRANCH  15  18
HETATM   18  N   UNL     1      -7.439  20.085  66.975  1.00  0.00    -0.255 N  
HETATM   19  H   UNL     1      -7.276  20.929  67.524  1.00  0.00     0.000 HD 
HETATM   20  C   UNL     1      -6.653  19.904  65.845  1.00  0.00    -0.231 C  
HETATM   21  O   UNL     1      -6.810  19.065  64.966  1.00  0.00    -0.478 OA 
HETATM   22  C   UNL     1      -5.526  20.894  65.737  1.00  0.00    -0.251 C  
ENDBRANCH  15  18
ENDBRANCH  11  12
ENDBRANCH  10  11
ENDBRANCH   7  10
ENDBRANCH   6   7
ENDBRANCH   4   6
ENDBRANCH   2   4
TORSDOF 7
ENDMDL
MODEL       73
REMARK 921   NORMALIZED FREE ENERGY PREDICTED BY IDOCK:   -4.44 KCAL/MOL
REMARK 922        TOTAL FREE ENERGY PREDICTED BY IDOCK:   -7.09 KCAL/MOL
REMARK 923 INTER-LIGAND FREE ENERGY PREDICTED BY IDOCK:   -6.48 KCAL/MOL
REMARK 924 INTRA-LIGAND FREE ENERGY PREDICTED BY IDOCK:   -0.61 KCAL/MOL
REMARK 927      BINDING AFFINITY PREDICTED BY RF-SCORE:    0.00 PKD
ROOT
HETATM    1  C   UNL     1      -8.277  14.722  67.496  1.00  0.00    -0.201 C  
HETATM    2  C   UNL     1      -9.397  15.136  68.451  1.00  0.00    -0.197 C  
HETATM    3  C   UNL     1     -10.341  16.114  67.745  1.00  0.00    -0.283 C  
ENDROOT
BRANCH   2   4
HETATM    4  N   UNL     1     -10.095  13.924  68.881  1.00  0.00    -0.399 NA 
HETATM    5  H   UNL     1     -11.015  14.153  69.258  1.00  0.00     0.000 HD 
BRANCH   4   6
HETATM    6  C   UNL     1     -10.203  12.905  67.833  1.00  0.00    -0.233 C  
BRANCH   6   7
HETATM    7  C   UNL     1     -11.660  12.429  67.726  1.00  0.00    -0.352 C  
HETATM    8  H   UNL     1     -12.888  11.842  66.296  1.00  0.00     0.000 HD 
HETATM    9  O   UNL     1     -11.987  12.136  66.362  1.00  0.00    -0.611 OA 
BRANCH   7  10
HETATM   10  C   UNL     1     -11.905  11.203  68.606  1.00  0.00    -0.287 C  
BRANCH  10  11
HETATM   11  O   UNL     1     -11.659  11.501  69.993  1.00  0.00    -0.301 OA 
BRANCH  11  12
HETATM   12  C   UNL     1     -11.473  10.387  70.779  1.00  0.00    -0.332 A  
HETATM   13  C   UNL     1     -10.266   9.707  70.894  1.00  0.00    -0.303 A  
HETATM   14  C   UNL     1     -10.167   8.545  71.651  1.00  0.00    -0.336 A  
HETATM   15  C   UNL     1     -11.271   8.038  72.337  1.00  0.00    -0.369 A  
HETATM   16  C   UNL     1     -12.580   9.912  71.487  1.00  0.00    -0.513 A  
HETATM   17  C   UNL     1     -12.482   8.740  72.260  1.00  0.00    -0.455 A  
BRANCH  15  18
HETATM   18  N   UNL     1     -11.209   6.828  73.062  1.00  0.00    -0.464 N  
HETATM   19  H   UNL     1     -11.312   6.885  74.075  1.00  0.00     0.000 HD 
HETATM   20  C   UNL     1     -11.019   5.566  72.516  1.00  0.00    -0.263 C  
HETATM   21  O   UNL     1     -10.698   5.304  71.362  1.00  0.00    -0.211 OA 
HETATM   22  C   UNL     1     -11.214   4.452  73.506  1.00  0.00    -0.375 C  
ENDBRANCH  15  18
ENDBRANCH  11  12
ENDBRANCH  10  11
ENDBRANCH   7  10
ENDBRANCH   6   7
ENDBRANCH   4   6
ENDBRANCH   2   4
TORSDOF 7
ENDMDL
MODEL       74
REMARK 921   NORMALIZED FREE ENERGY PREDICTED BY IDOCK:   -4.43 KCAL/MOL
REMARK 922        TOTAL FREE ENERGY PREDICTED BY IDOCK:   -7.08 KCAL/MOL
REMARK 923 INTER-LIGAND FREE ENERGY PREDICTED BY IDOCK:   -6.33 KCAL/MOL
REMARK 924 INTRA-LIGAND FREE ENERGY PREDICTED BY IDOCK:   -0.75 KCAL/MOL
REMARK 927      BINDING AFFINITY PREDICTED BY RF-SCORE:    0.00 PKD
ROOT
HETATM    1  C   UNL     1     -11.457   6.687  70.023  1.00  0.00    -0.434 C  
HETATM    2  C   UNL     1     -12.274   6.878  71.302  1.00  0.00    -0.380 C  
HETATM    3  C   UNL     1     -11.337   7.202  72.468  1.00  0.00    -0.318 C  
ENDROOT
BRANCH   2   4
HETATM    4  N   UNL     1     -13.239   7.953  71.066  1.00  0.00    -0.541 NA 
HETATM    5  H   UNL     1     -14.194   7.598  71.121  1.00  0.00     0.000 HD 
BRANCH   4   6
HETATM    6  C   UNL     1     -13.063   9.105  71.956  1.00  0.00    -0.429 C  
BRANCH   6   7
HETATM    7  C   UNL     1     -13.034  10.397  71.124  1.00  0.00    -0.412 C  
HETATM    8  H   UNL     1     -13.235  12.332  71.454  1.00  0.00     0.000 HD 
HETATM    9  O   UNL     1     -13.253  11.534  71.968  1.00  0.00    -0.509 OA 
BRANCH   7  10
HETATM   10  C   UNL     1     -11.709  10.539  70.374  1.00  0.00    -0.344 C  
BRANCH  10  11
HETATM   11  O   UNL     1     -11.818  11.497  69.305  1.00  0.00    -0.301 OA 
BRANCH  11  12
HETATM   12  C   UNL     1     -11.254  11.079  68.121  1.00  0.00    -0.302 A  
HETATM   13  C   UNL     1     -11.278  11.815  66.943  1.00  0.00    -0.387 A  
HETATM   14  C   UNL     1     -10.750  11.300  65.764  1.00  0.00    -0.284 A  
HETATM   15  C   UNL     1     -10.159  10.036  65.734  1.00  0.00    -0.250 A  
HETATM   16  C   UNL     1     -10.635   9.826  68.116  1.00  0.00    -0.276 A  
HETATM   17  C   UNL     1     -10.093   9.304  66.927  1.00  0.00    -0.324 A  
BRANCH  15  18
HETATM   18  N   UNL     1      -9.671   9.469  64.536  1.00  0.00    -0.350 N  
HETATM   19  H   UNL     1     -10.325   8.920  63.980  1.00  0.00     0.000 HD 
HETATM   20  C   UNL     1      -8.376   9.592  64.052  1.00  0.00    -0.170 C  
HETATM   21  O   UNL     1      -7.407  10.047  64.648  1.00  0.00    -0.136 OA 
HETATM   22  C   UNL     1      -8.210   9.064  62.653  1.00  0.00    -0.179 C  
ENDBRANCH  15  18
ENDBRANCH  11  12
ENDBRANCH  10  11
ENDBRANCH   7  10
ENDBRANCH   6   7
ENDBRANCH   4   6
ENDBRANCH   2   4
TORSDOF 7
ENDMDL
MODEL       75
REMARK 921   NORMALIZED FREE ENERGY PREDICTED BY IDOCK:   -4.32 KCAL/MOL
REMARK 922        TOTAL FREE ENERGY PREDICTED BY IDOCK:   -6.93 KCAL/MOL
REMARK 923 INTER-LIGAND FREE ENERGY PREDICTED BY IDOCK:   -6.45 KCAL/MOL
REMARK 924 INTRA-LIGAND FREE ENERGY PREDICTED BY IDOCK:   -0.48 KCAL/MOL
REMARK 927      BINDING AFFINITY PREDICTED BY RF-SCORE:    0.00 PKD
ROOT
HETATM    1  C   UNL     1      -7.156  10.282  63.276  1.00  0.00    -0.099 C  
HETATM    2  C   UNL     1      -8.039   9.399  62.392  1.00  0.00    -0.130 C  
HETATM    3  C   UNL     1      -7.719   7.925  62.653  1.00  0.00    -0.132 C  
ENDROOT
BRANCH   2   4
HETATM    4  N   UNL     1      -9.437   9.712  62.693  1.00  0.00    -0.568 NA 
HETATM    5  H   UNL     1      -9.859   8.972  63.253  1.00  0.00     0.000 HD 
BRANCH   4   6
HETATM    6  C   UNL     1      -9.621  11.017  63.334  1.00  0.00    -0.333 C  
BRANCH   6   7
HETATM    7  C   UNL     1     -10.430  10.844  64.630  1.00  0.00    -0.314 C  
HETATM    8  H   UNL     1     -10.483   9.577  66.142  1.00  0.00     0.000 HD 
HETATM    9  O   UNL     1      -9.983   9.684  65.342  1.00  0.00    -0.316 OA 
BRANCH   7  10
HETATM   10  C   UNL     1     -10.323  12.085  65.516  1.00  0.00    -0.263 C  
BRANCH  10  11
HETATM   11  O   UNL     1     -11.625  12.627  65.810  1.00  0.00    -0.345 OA 
BRANCH  11  12
HETATM   12  C   UNL     1     -11.697  13.281  67.019  1.00  0.00    -0.389 A  
HETATM   13  C   UNL     1     -11.753  14.662  67.157  1.00  0.00    -0.392 A  
HETATM   14  C   UNL     1     -11.752  15.259  68.413  1.00  0.00    -0.340 A  
HETATM   15  C   UNL     1     -11.718  14.487  69.574  1.00  0.00    -0.314 A  
HETATM   16  C   UNL     1     -11.697  12.492  68.173  1.00  0.00    -0.400 A  
HETATM   17  C   UNL     1     -11.703  13.091  69.446  1.00  0.00    -0.386 A  
BRANCH  15  18
HETATM   18  N   UNL     1     -11.656  15.072  70.858  1.00  0.00    -0.305 N  
HETATM   19  H   UNL     1     -10.730  15.288  71.228  1.00  0.00     0.000 HD 
HETATM   20  C   UNL     1     -12.745  15.379  71.661  1.00  0.00    -0.410 C  
HETATM   21  O   UNL     1     -13.909  15.039  71.484  1.00  0.00    -0.408 OA 
HETATM   22  C   UNL     1     -12.382  16.189  72.875  1.00  0.00    -0.607 C  
ENDBRANCH  15  18
ENDBRANCH  11  12
ENDBRANCH  10  11
ENDBRANCH   7  10
ENDBRANCH   6   7
ENDBRANCH   4   6
ENDBRANCH   2   4
TORSDOF 7
ENDMDL
MODEL       76
REMARK 921   NORMALIZED FREE ENERGY PREDICTED BY IDOCK:   -4.32 KCAL/MOL
REMARK 922        TOTAL FREE ENERGY PREDICTED BY IDOCK:   -6.93 KCAL/MOL
REMARK 923 INTER-LIGAND FREE ENERGY PREDICTED BY IDOCK:   -6.45 KCAL/MOL
REMARK 924 INTRA-LIGAND FREE ENERGY PREDICTED BY IDOCK:   -0.48 KCAL/MOL
REMARK 927      BINDING AFFINITY PREDICTED BY RF-SCORE:    0.00 PKD
ROOT
HETATM    1  C   UNL     1      -9.046   9.981  63.270  1.00  0.00    -0.300 C  
HETATM    2  C   UNL     1      -9.543  10.988  64.309  1.00  0.00    -0.262 C  
HETATM    3  C   UNL     1     -10.288  12.126  63.608  1.00  0.00    -0.482 C  
ENDROOT
BRANCH   2   4
HETATM    4  N   UNL     1     -10.405  10.276  65.254  1.00  0.00    -0.232 NA 
HETATM    5  H   UNL     1     -11.000   9.608  64.764  1.00  0.00     0.000 HD 
BRANCH   4   6
HETATM    6  C   UNL     1      -9.669   9.617  66.337  1.00  0.00    -0.224 C  
BRANCH   6   7
HETATM    7  C   UNL     1     -10.624   9.327  67.505  1.00  0.00    -0.262 C  
HETATM    8  H   UNL     1     -10.672   8.125  69.069  1.00  0.00     0.000 HD 
HETATM    9  O   UNL     1     -10.081   8.304  68.348  1.00  0.00    -0.189 OA 
BRANCH   7  10
HETATM   10  C   UNL     1     -10.900  10.593  68.318  1.00  0.00    -0.241 C  
BRANCH  10  11
HETATM   11  O   UNL     1     -11.970  11.362  67.736  1.00  0.00    -0.637 OA 
BRANCH  11  12
HETATM   12  C   UNL     1     -11.744  12.719  67.733  1.00  0.00    -0.359 A  
HETATM   13  C   UNL     1     -11.912  13.535  66.621  1.00  0.00    -0.452 A  
HETATM   14  C   UNL     1     -11.596  14.889  66.669  1.00  0.00    -0.265 A  
HETATM   15  C   UNL     1     -11.122  15.474  67.844  1.00  0.00    -0.321 A  
HETATM   16  C   UNL     1     -11.302  13.296  68.927  1.00  0.00    -0.333 A  
HETATM   17  C   UNL     1     -10.988  14.667  68.982  1.00  0.00    -0.269 A  
BRANCH  15  18
HETATM   18  N   UNL     1     -10.738  16.832  67.900  1.00  0.00    -0.354 N  
HETATM   19  H   UNL     1     -10.779  17.290  68.809  1.00  0.00     0.000 HD 
HETATM   20  C   UNL     1     -10.311  17.596  66.823  1.00  0.00    -0.331 C  
HETATM   21  O   UNL     1     -10.362  17.292  65.637  1.00  0.00    -0.580 OA 
HETATM   22  C   UNL     1      -9.765  18.939  67.225  1.00  0.00    -0.355 C  
ENDBRANCH  15  18
ENDBRANCH  11  12
ENDBRANCH  10  11
ENDBRANCH   7  10
ENDBRANCH   6   7
ENDBRANCH   4   6
ENDBRANCH   2   4
TORSDOF 7
ENDMDL
MODEL       77
REMARK 921   NORMALIZED FREE ENERGY PREDICTED BY IDOCK:   -4.30 KCAL/MOL
REMARK 922        TOTAL FREE ENERGY PREDICTED BY IDOCK:   -6.90 KCAL/MOL
REMARK 923 INTER-LIGAND FREE ENERGY PREDICTED BY IDOCK:   -6.28 KCAL/MOL
REMARK 924 INTRA-LIGAND FREE ENERGY PREDICTED BY IDOCK:   -0.62 KCAL/MOL
REMARK 927      BINDING AFFINITY PREDICTED BY RF-SCORE:    0.00 PKD
ROOT
HETATM    1  C   UNL     1      -8.989   7.631  66.587  1.00  0.00    -0.181 C  
HETATM    2  C   UNL     1     -10.454   7.236  66.785  1.00  0.00    -0.241 C  
HETATM    3  C   UNL     1     -10.542   5.752  67.149  1.00  0.00    -0.365 C  
ENDROOT
BRANCH   2   4
HETATM    4  N   UNL     1     -11.014   8.087  67.835  1.00  0.00    -0.477 NA 
HETATM    5  H   UNL     1     -10.738   7.749  68.757  1.00  0.00     0.000 HD 
BRANCH   4   6
HETATM    6  C   UNL     1     -10.680   9.506  67.681  1.00  0.00    -0.250 C  
BRANCH   6   7
HETATM    7  C   UNL     1     -10.492  10.143  69.067  1.00  0.00    -0.219 C  
HETATM    8  H   UNL     1      -9.124  11.231  69.983  1.00  0.00     0.000 HD 
HETATM    9  O   UNL     1      -9.240  10.838  69.127  1.00  0.00    -0.184 OA 
BRANCH   7  10
HETATM   10  C   UNL     1     -11.643  11.094  69.397  1.00  0.00    -0.318 C  
BRANCH  10  11
HETATM   11  O   UNL     1     -12.166  11.710  68.205  1.00  0.00    -0.525 OA 
BRANCH  11  12
HETATM   12  C   UNL     1     -11.904  13.058  68.114  1.00  0.00    -0.340 A  
HETATM   13  C   UNL     1     -11.502  13.698  66.948  1.00  0.00    -0.369 A  
HETATM   14  C   UNL     1     -11.185  15.052  66.944  1.00  0.00    -0.323 A  
HETATM   15  C   UNL     1     -11.283  15.815  68.107  1.00  0.00    -0.344 A  
HETATM   16  C   UNL     1     -12.040  13.816  69.281  1.00  0.00    -0.374 A  
HETATM   17  C   UNL     1     -11.726  15.188  69.280  1.00  0.00    -0.352 A  
BRANCH  15  18
HETATM   18  N   UNL     1     -10.909  17.177  68.141  1.00  0.00    -0.363 N  
HETATM   19  H   UNL     1     -11.612  17.860  67.865  1.00  0.00     0.000 HD 
HETATM   20  C   UNL     1      -9.665  17.665  68.517  1.00  0.00    -0.328 C  
HETATM   21  O   UNL     1      -8.645  17.013  68.705  1.00  0.00    -0.257 OA 
HETATM   22  C   UNL     1      -9.630  19.161  68.661  1.00  0.00    -0.471 C  
ENDBRANCH  15  18
ENDBRANCH  11  12
ENDBRANCH  10  11
ENDBRANCH   7  10
ENDBRANCH   6   7
ENDBRANCH   4   6
ENDBRANCH   2   4
TORSDOF 7
ENDMDL
MODEL       78
REMARK 921   NORMALIZED FREE ENERGY PREDICTED BY IDOCK:   -4.28 KCAL/MOL
REMARK 922        TOTAL FREE ENERGY PREDICTED BY IDOCK:   -6.87 KCAL/MOL
REMARK 923 INTER-LIGAND FREE ENERGY PREDICTED BY IDOCK:   -6.34 KCAL/MOL
REMARK 924 INTRA-LIGAND FREE ENERGY PREDICTED BY IDOCK:   -0.53 KCAL/MOL
REMARK 927      BINDING AFFINITY PREDICTED BY RF-SCORE:    0.00 PKD
ROOT
HETATM    1  C   UNL     1      -6.157  18.430  69.528  1.00  0.00    -0.260 C  
HETATM    2  C   UNL     1      -6.627  19.878  69.377  1.00  0.00    -0.340 C  
HETATM    3  C   UNL     1      -5.463  20.830  69.664  1.00  0.00    -0.408 C  
ENDROOT
BRANCH   2   4
HETATM    4  N   UNL     1      -7.143  20.047  68.018  1.00  0.00    -0.281 NA 
HETATM    5  H   UNL     1      -6.377  20.111  67.347  1.00  0.00     0.000 HD 
BRANCH   4   6
HETATM    6  C   UNL     1      -8.096  19.006  67.619  1.00  0.00    -0.269 C  
BRANCH   6   7
HETATM    7  C   UNL     1      -9.502  19.615  67.503  1.00  0.00    -0.331 C  
HETATM    8  H   UNL     1     -10.612  20.431  66.090  1.00  0.00     0.000 HD 
HETATM    9  O   UNL     1      -9.743  20.055  66.161  1.00  0.00    -0.417 OA 
BRANCH   7  10
HETATM   10  C   UNL     1     -10.573  18.611  67.934  1.00  0.00    -0.349 C  
BRANCH  10  11
HETATM   11  O   UNL     1     -10.727  17.565  66.957  1.00  0.00    -0.276 OA 
BRANCH  11  12
HETATM   12  C   UNL     1     -10.742  16.298  67.494  1.00  0.00    -0.300 A  
HETATM   13  C   UNL     1     -11.502  15.927  68.597  1.00  0.00    -0.391 A  
HETATM   14  C   UNL     1     -11.415  14.647  69.132  1.00  0.00    -0.320 A  
HETATM   15  C   UNL     1     -10.577  13.687  68.563  1.00  0.00    -0.250 A  
HETATM   16  C   UNL     1      -9.924  15.339  66.891  1.00  0.00    -0.243 A  
HETATM   17  C   UNL     1      -9.837  14.039  67.425  1.00  0.00    -0.240 A  
BRANCH  15  18
HETATM   18  N   UNL     1     -10.426  12.400  69.125  1.00  0.00    -0.432 N  
HETATM   19  H   UNL     1      -9.593  12.232  69.687  1.00  0.00     0.000 HD 
HETATM   20  C   UNL     1     -11.315  11.344  68.977  1.00  0.00    -0.280 C  
HETATM   21  O   UNL     1     -12.266  11.285  68.207  1.00  0.00    -0.611 OA 
HETATM   22  C   UNL     1     -10.999  10.171  69.864  1.00  0.00    -0.344 C  
ENDBRANCH  15  18
ENDBRANCH  11  12
ENDBRANCH  10  11
ENDBRANCH   7  10
ENDBRANCH   6   7
ENDBRANCH   4   6
ENDBRANCH   2   4
TORSDOF 7
ENDMDL
MODEL       79
REMARK 921   NORMALIZED FREE ENERGY PREDICTED BY IDOCK:   -4.28 KCAL/MOL
REMARK 922        TOTAL FREE ENERGY PREDICTED BY IDOCK:   -6.87 KCAL/MOL
REMARK 923 INTER-LIGAND FREE ENERGY PREDICTED BY IDOCK:   -6.73 KCAL/MOL
REMARK 924 INTRA-LIGAND FREE ENERGY PREDICTED BY IDOCK:   -0.14 KCAL/MOL
REMARK 927      BINDING AFFINITY PREDICTED BY RF-SCORE:    0.00 PKD
ROOT
HETATM    1  C   UNL     1     -10.024   6.675  69.288  1.00  0.00    -0.171 C  
HETATM    2  C   UNL     1     -11.231   6.274  70.138  1.00  0.00    -0.403 C  
HETATM    3  C   UNL     1     -10.756   5.520  71.382  1.00  0.00    -0.290 C  
ENDROOT
BRANCH   2   4
HETATM    4  N   UNL     1     -11.964   7.491  70.487  1.00  0.00    -0.511 NA 
HETATM    5  H   UNL     1     -12.587   7.767  69.728  1.00  0.00     0.000 HD 
BRANCH   4   6
HETATM    6  C   UNL     1     -12.699   7.391  71.752  1.00  0.00    -0.334 C  
BRANCH   6   7
HETATM    7  C   UNL     1     -13.535   8.663  71.963  1.00  0.00    -0.403 C  
HETATM    8  H   UNL     1     -14.622   9.455  73.407  1.00  0.00     0.000 HD 
HETATM    9  O   UNL     1     -14.105   8.669  73.277  1.00  0.00    -0.150 OA 
BRANCH   7  10
HETATM   10  C   UNL     1     -12.690   9.919  71.746  1.00  0.00    -0.428 C  
BRANCH  10  11
HETATM   11  O   UNL     1     -13.410  11.104  72.135  1.00  0.00    -0.452 OA 
BRANCH  11  12
HETATM   12  C   UNL     1     -12.959  12.255  71.530  1.00  0.00    -0.289 A  
HETATM   13  C   UNL     1     -12.201  12.278  70.365  1.00  0.00    -0.371 A  
HETATM   14  C   UNL     1     -11.718  13.475  69.847  1.00  0.00    -0.341 A  
HETATM   15  C   UNL     1     -11.999  14.692  70.469  1.00  0.00    -0.310 A  
HETATM   16  C   UNL     1     -13.278  13.468  72.146  1.00  0.00    -0.551 A  
HETATM   17  C   UNL     1     -12.797  14.682  71.621  1.00  0.00    -0.403 A  
BRANCH  15  18
HETATM   18  N   UNL     1     -11.469  15.912  69.995  1.00  0.00    -0.337 N  
HETATM   19  H   UNL     1     -11.251  16.626  70.689  1.00  0.00     0.000 HD 
HETATM   20  C   UNL     1     -11.220  16.224  68.666  1.00  0.00    -0.354 C  
HETATM   21  O   UNL     1     -11.575  15.587  67.681  1.00  0.00    -0.274 OA 
HETATM   22  C   UNL     1     -10.457  17.507  68.487  1.00  0.00    -0.361 C  
ENDBRANCH  15  18
ENDBRANCH  11  12
ENDBRANCH  10  11
ENDBRANCH   7  10
ENDBRANCH   6   7
ENDBRANCH   4   6
ENDBRANCH   2   4
TORSDOF 7
ENDMDL
MODEL       80
REMARK 921   NORMALIZED FREE ENERGY PREDICTED BY IDOCK:   -4.26 KCAL/MOL
REMARK 922        TOTAL FREE ENERGY PREDICTED BY IDOCK:   -6.85 KCAL/MOL
REMARK 923 INTER-LIGAND FREE ENERGY PREDICTED BY IDOCK:   -6.45 KCAL/MOL
REMARK 924 INTRA-LIGAND FREE ENERGY PREDICTED BY IDOCK:   -0.40 KCAL/MOL
REMARK 927      BINDING AFFINITY PREDICTED BY RF-SCORE:    0.00 PKD
ROOT
HETATM    1  C   UNL     1     -13.584   6.925  71.417  1.00  0.00    -0.234 C  
HETATM    2  C   UNL     1     -12.223   6.823  72.107  1.00  0.00    -0.222 C  
HETATM    3  C   UNL     1     -11.188   6.265  71.126  1.00  0.00    -0.365 C  
ENDROOT
BRANCH   2   4
HETATM    4  N   UNL     1     -11.855   8.158  72.581  1.00  0.00    -0.526 NA 
HETATM    5  H   UNL     1     -10.861   8.332  72.433  1.00  0.00     0.000 HD 
BRANCH   4   6
HETATM    6  C   UNL     1     -12.662   9.232  71.993  1.00  0.00    -0.401 C  
BRANCH   6   7
HETATM    7  C   UNL     1     -11.752  10.182  71.198  1.00  0.00    -0.366 C  
HETATM    8  H   UNL     1     -10.706  10.120  69.526  1.00  0.00     0.000 HD 
HETATM    9  O   UNL     1     -11.268   9.533  70.017  1.00  0.00    -0.239 OA 
BRANCH   7  10
HETATM   10  C   UNL     1     -12.488  11.472  70.833  1.00  0.00    -0.366 C  
BRANCH  10  11
HETATM   11  O   UNL     1     -12.019  11.999  69.577  1.00  0.00    -0.303 OA 
BRANCH  11  12
HETATM   12  C   UNL     1     -11.683  13.333  69.623  1.00  0.00    -0.303 A  
HETATM   13  C   UNL     1     -12.407  14.296  70.315  1.00  0.00    -0.418 A  
HETATM   14  C   UNL     1     -12.051  15.639  70.261  1.00  0.00    -0.413 A  
HETATM   15  C   UNL     1     -10.941  16.058  69.528  1.00  0.00    -0.326 A  
HETATM   16  C   UNL     1     -10.548  13.731  68.912  1.00  0.00    -0.224 A  
HETATM   17  C   UNL     1     -10.180  15.088  68.859  1.00  0.00    -0.235 A  
BRANCH  15  18
HETATM   18  N   UNL     1     -10.595  17.422  69.409  1.00  0.00    -0.361 N  
HETATM   19  H   UNL     1     -10.468  17.948  70.273  1.00  0.00     0.000 HD 
HETATM   20  C   UNL     1     -10.415  18.110  68.217  1.00  0.00    -0.317 C  
HETATM   21  O   UNL     1     -10.693  17.717  67.090  1.00  0.00    -0.306 OA 
HETATM   22  C   UNL     1      -9.842  19.488  68.404  1.00  0.00    -0.521 C  
ENDBRANCH  15  18
ENDBRANCH  11  12
ENDBRANCH  10  11
ENDBRANCH   7  10
ENDBRANCH   6   7
ENDBRANCH   4   6
ENDBRANCH   2   4
TORSDOF 7
ENDMDL
MODEL       81
REMARK 921   NORMALIZED FREE ENERGY PREDICTED BY IDOCK:   -4.26 KCAL/MOL
REMARK 922        TOTAL FREE ENERGY PREDICTED BY IDOCK:   -6.84 KCAL/MOL
REMARK 923 INTER-LIGAND FREE ENERGY PREDICTED BY IDOCK:   -6.08 KCAL/MOL
REMARK 924 INTRA-LIGAND FREE ENERGY PREDICTED BY IDOCK:   -0.76 KCAL/MOL
REMARK 927      BINDING AFFINITY PREDICTED BY RF-SCORE:    0.00 PKD
ROOT
HETATM    1  C   UNL     1      -8.482   7.741  67.689  1.00  0.00    -0.121 C  
HETATM    2  C   UNL     1      -9.610   7.363  66.729  1.00  0.00    -0.192 C  
HETATM    3  C   UNL     1     -10.833   6.904  67.526  1.00  0.00    -0.363 C  
ENDROOT
BRANCH   2   4
HETATM    4  N   UNL     1      -9.910   8.531  65.900  1.00  0.00    -0.463 NA 
HETATM    5  H   UNL     1     -10.168   9.328  66.481  1.00  0.00     0.000 HD 
BRANCH   4   6
HETATM    6  C   UNL     1      -8.828   8.890  64.978  1.00  0.00    -0.140 C  
BRANCH   6   7
HETATM    7  C   UNL     1      -8.975  10.362  64.561  1.00  0.00    -0.216 C  
HETATM    8  H   UNL     1     -10.023  11.393  63.245  1.00  0.00     0.000 HD 
HETATM    9  O   UNL     1      -9.932  10.484  63.502  1.00  0.00    -0.317 OA 
BRANCH   7  10
HETATM   10  C   UNL     1      -9.383  11.233  65.750  1.00  0.00    -0.223 C  
BRANCH  10  11
HETATM   11  O   UNL     1     -10.816  11.309  65.870  1.00  0.00    -0.264 OA 
BRANCH  11  12
HETATM   12  C   UNL     1     -11.247  12.102  66.909  1.00  0.00    -0.320 A  
HETATM   13  C   UNL     1     -11.668  13.418  66.762  1.00  0.00    -0.429 A  
HETATM   14  C   UNL     1     -12.024  14.186  67.866  1.00  0.00    -0.378 A  
HETATM   15  C   UNL     1     -11.990  13.650  69.154  1.00  0.00    -0.351 A  
HETATM   16  C   UNL     1     -11.241  11.539  68.188  1.00  0.00    -0.335 A  
HETATM   17  C   UNL     1     -11.606  12.310  69.307  1.00  0.00    -0.383 A  
BRANCH  15  18
HETATM   18  N   UNL     1     -12.289  14.427  70.294  1.00  0.00    -0.332 N  
HETATM   19  H   UNL     1     -13.171  14.238  70.770  1.00  0.00     0.000 HD 
HETATM   20  C   UNL     1     -11.485  15.426  70.825  1.00  0.00    -0.355 C  
HETATM   21  O   UNL     1     -10.491  15.923  70.309  1.00  0.00    -0.291 OA 
HETATM   22  C   UNL     1     -11.960  15.927  72.161  1.00  0.00    -0.612 C  
ENDBRANCH  15  18
ENDBRANCH  11  12
ENDBRANCH  10  11
ENDBRANCH   7  10
ENDBRANCH   6   7
ENDBRANCH   4   6
ENDBRANCH   2   4
TORSDOF 7
ENDMDL
MODEL       82
REMARK 921   NORMALIZED FREE ENERGY PREDICTED BY IDOCK:   -4.26 KCAL/MOL
REMARK 922        TOTAL FREE ENERGY PREDICTED BY IDOCK:   -6.84 KCAL/MOL
REMARK 923 INTER-LIGAND FREE ENERGY PREDICTED BY IDOCK:   -6.71 KCAL/MOL
REMARK 924 INTRA-LIGAND FREE ENERGY PREDICTED BY IDOCK:   -0.13 KCAL/MOL
REMARK 927      BINDING AFFINITY PREDICTED BY RF-SCORE:    0.00 PKD
ROOT
HETATM    1  C   UNL     1      -9.343   6.946  66.669  1.00  0.00    -0.198 C  
HETATM    2  C   UNL     1     -10.293   8.143  66.739  1.00  0.00    -0.291 C  
HETATM    3  C   UNL     1     -10.220   8.778  68.130  1.00  0.00    -0.250 C  
ENDROOT
BRANCH   2   4
HETATM    4  N   UNL     1      -9.908   9.088  65.690  1.00  0.00    -0.465 NA 
HETATM    5  H   UNL     1     -10.294   8.804  64.790  1.00  0.00     0.000 HD 
BRANCH   4   6
HETATM    6  C   UNL     1     -10.266  10.477  65.993  1.00  0.00    -0.245 C  
BRANCH   6   7
HETATM    7  C   UNL     1     -10.244  11.307  64.699  1.00  0.00    -0.301 C  
HETATM    8  H   UNL     1      -9.935  10.980  62.778  1.00  0.00     0.000 HD 
HETATM    9  O   UNL     1      -9.948  10.467  63.577  1.00  0.00    -0.317 OA 
BRANCH   7  10
HETATM   10  C   UNL     1     -11.576  12.029  64.486  1.00  0.00    -0.317 C  
BRANCH  10  11
HETATM   11  O   UNL     1     -12.094  12.540  65.728  1.00  0.00    -0.511 OA 
BRANCH  11  12
HETATM   12  C   UNL     1     -11.627  13.793  66.053  1.00  0.00    -0.346 A  
HETATM   13  C   UNL     1     -11.098  14.691  65.134  1.00  0.00    -0.382 A  
HETATM   14  C   UNL     1     -10.579  15.915  65.542  1.00  0.00    -0.419 A  
HETATM   15  C   UNL     1     -10.593  16.288  66.887  1.00  0.00    -0.270 A  
HETATM   16  C   UNL     1     -11.680  14.166  67.399  1.00  0.00    -0.422 A  
HETATM   17  C   UNL     1     -11.162  15.406  67.816  1.00  0.00    -0.321 A  
BRANCH  15  18
HETATM   18  N   UNL     1     -10.017  17.498  67.332  1.00  0.00    -0.304 N  
HETATM   19  H   UNL     1      -9.586  17.497  68.256  1.00  0.00     0.000 HD 
HETATM   20  C   UNL     1      -9.986  18.689  66.621  1.00  0.00    -0.365 C  
HETATM   21  O   UNL     1     -10.595  18.947  65.589  1.00  0.00    -0.575 OA 
HETATM   22  C   UNL     1      -9.119  19.741  67.256  1.00  0.00    -0.413 C  
ENDBRANCH  15  18
ENDBRANCH  11  12
ENDBRANCH  10  11
ENDBRANCH   7  10
ENDBRANCH   6   7
ENDBRANCH   4   6
ENDBRANCH   2   4
TORSDOF 7
ENDMDL
MODEL       83
REMARK 921   NORMALIZED FREE ENERGY PREDICTED BY IDOCK:   -4.26 KCAL/MOL
REMARK 922        TOTAL FREE ENERGY PREDICTED BY IDOCK:   -6.84 KCAL/MOL
REMARK 923 INTER-LIGAND FREE ENERGY PREDICTED BY IDOCK:   -6.22 KCAL/MOL
REMARK 924 INTRA-LIGAND FREE ENERGY PREDICTED BY IDOCK:   -0.62 KCAL/MOL
REMARK 927      BINDING AFFINITY PREDICTED BY RF-SCORE:    0.00 PKD
ROOT
HETATM    1  C   UNL     1      -9.859  19.773  66.765  1.00  0.00    -0.528 C  
HETATM    2  C   UNL     1      -8.554  19.021  66.501  1.00  0.00    -0.311 C  
HETATM    3  C   UNL     1      -7.587  19.242  67.667  1.00  0.00    -0.275 C  
ENDROOT
BRANCH   2   4
HETATM    4  N   UNL     1      -8.876  17.604  66.324  1.00  0.00    -0.441 NA 
HETATM    5  H   UNL     1      -8.273  17.023  66.907  1.00  0.00     0.000 HD 
BRANCH   4   6
HETATM    6  C   UNL     1     -10.288  17.289  66.563  1.00  0.00    -0.308 C  
BRANCH   6   7
HETATM    7  C   UNL     1     -10.756  16.230  65.552  1.00  0.00    -0.313 C  
HETATM    8  H   UNL     1     -11.330  16.188  63.664  1.00  0.00     0.000 HD 
HETATM    9  O   UNL     1     -11.040  16.842  64.288  1.00  0.00    -1.135 OA 
BRANCH   7  10
HETATM   10  C   UNL     1      -9.708  15.128  65.384  1.00  0.00    -0.204 C  
BRANCH  10  11
HETATM   11  O   UNL     1      -9.604  14.325  66.575  1.00  0.00    -0.274 OA 
BRANCH  11  12
HETATM   12  C   UNL     1      -9.714  12.973  66.346  1.00  0.00    -0.268 A  
HETATM   13  C   UNL     1     -10.762  12.382  65.652  1.00  0.00    -0.299 A  
HETATM   14  C   UNL     1     -10.848  11.000  65.519  1.00  0.00    -0.159 A  
HETATM   15  C   UNL     1      -9.869  10.165  66.060  1.00  0.00    -0.246 A  
HETATM   16  C   UNL     1      -8.708  12.153  66.865  1.00  0.00    -0.194 A  
HETATM   17  C   UNL     1      -8.786  10.755  66.727  1.00  0.00    -0.147 A  
BRANCH  15  18
HETATM   18  N   UNL     1      -9.966   8.758  65.990  1.00  0.00    -0.456 N  
HETATM   19  H   UNL     1      -9.745   8.320  65.097  1.00  0.00     0.000 HD 
HETATM   20  C   UNL     1     -10.336   7.920  67.032  1.00  0.00    -0.341 C  
HETATM   21  O   UNL     1     -10.808   8.253  68.113  1.00  0.00    -0.080 OA 
HETATM   22  C   UNL     1     -10.140   6.462  66.723  1.00  0.00    -0.239 C  
ENDBRANCH  15  18
ENDBRANCH  11  12
ENDBRANCH  10  11
ENDBRANCH   7  10
ENDBRANCH   6   7
ENDBRANCH   4   6
ENDBRANCH   2   4
TORSDOF 7
ENDMDL
MODEL       84
REMARK 921   NORMALIZED FREE ENERGY PREDICTED BY IDOCK:   -4.25 KCAL/MOL
REMARK 922        TOTAL FREE ENERGY PREDICTED BY IDOCK:   -6.83 KCAL/MOL
REMARK 923 INTER-LIGAND FREE ENERGY PREDICTED BY IDOCK:   -5.82 KCAL/MOL
REMARK 924 INTRA-LIGAND FREE ENERGY PREDICTED BY IDOCK:   -1.00 KCAL/MOL
REMARK 927      BINDING AFFINITY PREDICTED BY RF-SCORE:    0.00 PKD
ROOT
HETATM    1  C   UNL     1     -12.320   9.231  71.478  1.00  0.00    -0.439 C  
HETATM    2  C   UNL     1     -10.949   8.903  72.070  1.00  0.00    -0.342 C  
HETATM    3  C   UNL     1     -11.020   7.574  72.827  1.00  0.00    -0.410 C  
ENDROOT
BRANCH   2   4
HETATM    4  N   UNL     1      -9.983   8.850  70.972  1.00  0.00    -0.232 NA 
HETATM    5  H   UNL     1      -9.351   9.650  71.010  1.00  0.00     0.000 HD 
BRANCH   4   6
HETATM    6  C   UNL     1      -9.228   7.595  70.914  1.00  0.00    -0.149 C  
BRANCH   6   7
HETATM    7  C   UNL     1      -9.372   6.973  69.516  1.00  0.00    -0.148 C  
HETATM    8  H   UNL     1     -10.699   5.876  68.551  1.00  0.00     0.000 HD 
HETATM    9  O   UNL     1     -10.610   6.260  69.415  1.00  0.00    -0.214 OA 
BRANCH   7  10
HETATM   10  C   UNL     1      -9.284   8.042  68.426  1.00  0.00    -0.135 C  
BRANCH  10  11
HETATM   11  O   UNL     1     -10.592   8.400  67.942  1.00  0.00    -0.220 OA 
BRANCH  11  12
HETATM   12  C   UNL     1     -10.691   9.703  67.511  1.00  0.00    -0.256 A  
HETATM   13  C   UNL     1     -11.375  10.701  68.194  1.00  0.00    -0.354 A  
HETATM   14  C   UNL     1     -11.494  11.981  67.665  1.00  0.00    -0.392 A  
HETATM   15  C   UNL     1     -10.911  12.309  66.441  1.00  0.00    -0.264 A  
HETATM   16  C   UNL     1     -10.071  10.024  66.300  1.00  0.00    -0.310 A  
HETATM   17  C   UNL     1     -10.184  11.320  65.764  1.00  0.00    -0.301 A  
BRANCH  15  18
HETATM   18  N   UNL     1     -11.070  13.584  65.855  1.00  0.00    -0.284 N  
HETATM   19  H   UNL     1     -10.328  14.266  66.013  1.00  0.00     0.000 HD 
HETATM   20  C   UNL     1     -12.149  13.991  65.083  1.00  0.00    -0.410 C  
HETATM   21  O   UNL     1     -13.209  13.396  64.928  1.00  0.00    -0.679 OA 
HETATM   22  C   UNL     1     -11.939  15.324  64.419  1.00  0.00    -0.285 C  
ENDBRANCH  15  18
ENDBRANCH  11  12
ENDBRANCH  10  11
ENDBRANCH   7  10
ENDBRANCH   6   7
ENDBRANCH   4   6
ENDBRANCH   2   4
TORSDOF 7
ENDMDL
MODEL       85
REMARK 921   NORMALIZED FREE ENERGY PREDICTED BY IDOCK:   -4.21 KCAL/MOL
REMARK 922        TOTAL FREE ENERGY PREDICTED BY IDOCK:   -6.78 KCAL/MOL
REMARK 923 INTER-LIGAND FREE ENERGY PREDICTED BY IDOCK:   -6.23 KCAL/MOL
REMARK 924 INTRA-LIGAND FREE ENERGY PREDICTED BY IDOCK:   -0.55 KCAL/MOL
REMARK 927      BINDING AFFINITY PREDICTED BY RF-SCORE:    0.00 PKD
ROOT
HETATM    1  C   UNL     1     -10.121   5.346  67.281  1.00  0.00    -0.229 C  
HETATM    2  C   UNL     1     -11.080   6.151  68.159  1.00  0.00    -0.227 C  
HETATM    3  C   UNL     1     -10.615   6.095  69.616  1.00  0.00    -0.347 C  
ENDROOT
BRANCH   2   4
HETATM    4  N   UNL     1     -11.112   7.524  67.652  1.00  0.00    -0.512 NA 
HETATM    5  H   UNL     1     -11.050   8.193  68.420  1.00  0.00     0.000 HD 
BRANCH   4   6
HETATM    6  C   UNL     1     -10.088   7.800  66.639  1.00  0.00    -0.224 C  
BRANCH   6   7
HETATM    7  C   UNL     1      -9.646   9.268  66.743  1.00  0.00    -0.183 C  
HETATM    8  H   UNL     1      -9.623  10.856  65.571  1.00  0.00     0.000 HD 
HETATM    9  O   UNL     1      -9.897   9.949  65.507  1.00  0.00    -0.283 OA 
BRANCH   7  10
HETATM   10  C   UNL     1     -10.357   9.978  67.895  1.00  0.00    -0.207 C  
BRANCH  10  11
HETATM   11  O   UNL     1     -11.459  10.771  67.415  1.00  0.00    -0.467 OA 
BRANCH  11  12
HETATM   12  C   UNL     1     -11.221  12.126  67.435  1.00  0.00    -0.302 A  
HETATM   13  C   UNL     1     -10.301  12.744  68.273  1.00  0.00    -0.248 A  
HETATM   14  C   UNL     1     -10.161  14.128  68.290  1.00  0.00    -0.241 A  
HETATM   15  C   UNL     1     -10.925  14.937  67.449  1.00  0.00    -0.314 A  
HETATM   16  C   UNL     1     -11.970  12.919  66.561  1.00  0.00    -0.447 A  
HETATM   17  C   UNL     1     -11.827  14.319  66.570  1.00  0.00    -0.433 A  
BRANCH  15  18
HETATM   18  N   UNL     1     -10.844  16.346  67.492  1.00  0.00    -0.290 N  
HETATM   19  H   UNL     1     -11.227  16.810  68.314  1.00  0.00     0.000 HD 
HETATM   20  C   UNL     1     -10.288  17.154  66.510  1.00  0.00    -0.306 C  
HETATM   21  O   UNL     1      -9.944  16.815  65.384  1.00  0.00    -0.572 OA 
HETATM   22  C   UNL     1     -10.149  18.592  66.929  1.00  0.00    -0.396 C  
ENDBRANCH  15  18
ENDBRANCH  11  12
ENDBRANCH  10  11
ENDBRANCH   7  10
ENDBRANCH   6   7
ENDBRANCH   4   6
ENDBRANCH   2   4
TORSDOF 7
ENDMDL
MODEL       86
REMARK 921   NORMALIZED FREE ENERGY PREDICTED BY IDOCK:   -4.21 KCAL/MOL
REMARK 922        TOTAL FREE ENERGY PREDICTED BY IDOCK:   -6.77 KCAL/MOL
REMARK 923 INTER-LIGAND FREE ENERGY PREDICTED BY IDOCK:   -6.00 KCAL/MOL
REMARK 924 INTRA-LIGAND FREE ENERGY PREDICTED BY IDOCK:   -0.77 KCAL/MOL
REMARK 927      BINDING AFFINITY PREDICTED BY RF-SCORE:    0.00 PKD
ROOT
HETATM    1  C   UNL     1     -12.366  10.834  71.248  1.00  0.00    -0.470 C  
HETATM    2  C   UNL     1     -12.907  12.238  70.975  1.00  0.00    -0.160 C  
HETATM    3  C   UNL     1     -13.440  12.846  72.275  1.00  0.00    -0.631 C  
ENDROOT
BRANCH   2   4
HETATM    4  N   UNL     1     -11.822  13.039  70.407  1.00  0.00    -0.543 NA 
HETATM    5  H   UNL     1     -11.071  12.439  70.068  1.00  0.00     0.000 HD 
BRANCH   4   6
HETATM    6  C   UNL     1     -12.263  13.961  69.355  1.00  0.00    -0.292 C  
BRANCH   6   7
HETATM    7  C   UNL     1     -11.635  13.549  68.014  1.00  0.00    -0.337 C  
HETATM    8  H   UNL     1     -11.883  13.989  66.106  1.00  0.00     0.000 HD 
HETATM    9  O   UNL     1     -12.272  14.244  66.935  1.00  0.00    -0.438 OA 
BRANCH   7  10
HETATM   10  C   UNL     1     -10.130  13.818  68.005  1.00  0.00    -0.245 C  
BRANCH  10  11
HETATM   11  O   UNL     1      -9.744  14.647  69.117  1.00  0.00    -0.190 OA 
BRANCH  11  12
HETATM   12  C   UNL     1      -9.086  15.799  68.752  1.00  0.00    -0.213 A  
HETATM   13  C   UNL     1      -7.707  15.897  68.606  1.00  0.00    -0.161 A  
HETATM   14  C   UNL     1      -7.102  17.112  68.303  1.00  0.00    -0.197 A  
HETATM   15  C   UNL     1      -7.863  18.266  68.114  1.00  0.00    -0.288 A  
HETATM   16  C   UNL     1      -9.865  16.938  68.531  1.00  0.00    -0.267 A  
HETATM   17  C   UNL     1      -9.257  18.168  68.218  1.00  0.00    -0.307 A  
BRANCH  15  18
HETATM   18  N   UNL     1      -7.266  19.521  67.865  1.00  0.00    -0.263 N  
HETATM   19  H   UNL     1      -6.978  20.069  68.676  1.00  0.00     0.000 HD 
HETATM   20  C   UNL     1      -7.037  20.075  66.614  1.00  0.00    -0.240 C  
HETATM   21  O   UNL     1      -7.465  19.668  65.539  1.00  0.00    -0.390 OA 
HETATM   22  C   UNL     1      -6.194  21.319  66.656  1.00  0.00    -0.370 C  
ENDBRANCH  15  18
ENDBRANCH  11  12
ENDBRANCH  10  11
ENDBRANCH   7  10
ENDBRANCH   6   7
ENDBRANCH   4   6
ENDBRANCH   2   4
TORSDOF 7
ENDMDL
MODEL       87
REMARK 921   NORMALIZED FREE ENERGY PREDICTED BY IDOCK:   -4.19 KCAL/MOL
REMARK 922        TOTAL FREE ENERGY PREDICTED BY IDOCK:   -6.75 KCAL/MOL
REMARK 923 INTER-LIGAND FREE ENERGY PREDICTED BY IDOCK:   -6.20 KCAL/MOL
REMARK 924 INTRA-LIGAND FREE ENERGY PREDICTED BY IDOCK:   -0.55 KCAL/MOL
REMARK 927      BINDING AFFINITY PREDICTED BY RF-SCORE:    0.00 PKD
ROOT
HETATM    1  C   UNL     1      -9.274  17.913  67.721  1.00  0.00    -0.258 C  
HETATM    2  C   UNL     1     -10.260  17.779  66.559  1.00  0.00    -0.358 C  
HETATM    3  C   UNL     1     -10.388  19.122  65.836  1.00  0.00    -0.463 C  
ENDROOT
BRANCH   2   4
HETATM    4  N   UNL     1      -9.769  16.727  65.668  1.00  0.00    -0.553 NA 
HETATM    5  H   UNL     1      -8.947  16.272  66.066  1.00  0.00     0.000 HD 
BRANCH   4   6
HETATM    6  C   UNL     1     -10.789  15.737  65.312  1.00  0.00    -0.395 C  
BRANCH   6   7
HETATM    7  C   UNL     1     -10.441  14.386  65.958  1.00  0.00    -0.301 C  
HETATM    8  H   UNL     1      -8.909  13.595  66.917  1.00  0.00     0.000 HD 
HETATM    9  O   UNL     1      -9.124  14.430  66.519  1.00  0.00    -0.257 OA 
BRANCH   7  10
HETATM   10  C   UNL     1     -11.463  14.009  67.031  1.00  0.00    -0.351 C  
BRANCH  10  11
HETATM   11  O   UNL     1     -11.980  12.682  66.812  1.00  0.00    -0.466 OA 
BRANCH  11  12
HETATM   12  C   UNL     1     -11.639  11.782  67.796  1.00  0.00    -0.304 A  
HETATM   13  C   UNL     1     -12.003  11.912  69.131  1.00  0.00    -0.336 A  
HETATM   14  C   UNL     1     -11.564  11.001  70.087  1.00  0.00    -0.421 A  
HETATM   15  C   UNL     1     -10.762   9.917  69.730  1.00  0.00    -0.267 A  
HETATM   16  C   UNL     1     -10.865  10.682  67.416  1.00  0.00    -0.353 A  
HETATM   17  C   UNL     1     -10.424   9.755  68.379  1.00  0.00    -0.250 A  
BRANCH  15  18
HETATM   18  N   UNL     1     -10.255   9.015  70.691  1.00  0.00    -0.211 N  
HETATM   19  H   UNL     1     -10.925   8.401  71.153  1.00  0.00     0.000 HD 
HETATM   20  C   UNL     1      -8.923   8.892  71.061  1.00  0.00    -0.241 C  
HETATM   21  O   UNL     1      -8.004   9.645  70.763  1.00  0.00    -0.288 OA 
HETATM   22  C   UNL     1      -8.657   7.704  71.944  1.00  0.00    -0.131 C  
ENDBRANCH  15  18
ENDBRANCH  11  12
ENDBRANCH  10  11
ENDBRANCH   7  10
ENDBRANCH   6   7
ENDBRANCH   4   6
ENDBRANCH   2   4
TORSDOF 7
ENDMDL
MODEL       88
REMARK 921   NORMALIZED FREE ENERGY PREDICTED BY IDOCK:   -4.19 KCAL/MOL
REMARK 922        TOTAL FREE ENERGY PREDICTED BY IDOCK:   -6.75 KCAL/MOL
REMARK 923 INTER-LIGAND FREE ENERGY PREDICTED BY IDOCK:   -6.43 KCAL/MOL
REMARK 924 INTRA-LIGAND FREE ENERGY PREDICTED BY IDOCK:   -0.31 KCAL/MOL
REMARK 927      BINDING AFFINITY PREDICTED BY RF-SCORE:    0.00 PKD
ROOT
HETATM    1  C   UNL     1     -12.198  14.318  64.784  1.00  0.00    -0.456 C  
HETATM    2  C   UNL     1     -12.649  12.859  64.880  1.00  0.00    -0.458 C  
HETATM    3  C   UNL     1     -12.217  12.103  63.621  1.00  0.00    -0.663 C  
ENDROOT
BRANCH   2   4
HETATM    4  N   UNL     1     -12.059  12.282  66.088  1.00  0.00    -0.627 NA 
HETATM    5  H   UNL     1     -12.436  11.351  66.264  1.00  0.00     0.000 HD 
BRANCH   4   6
HETATM    6  C   UNL     1     -10.593  12.252  66.068  1.00  0.00    -0.254 C  
BRANCH   6   7
HETATM    7  C   UNL     1     -10.092  11.078  66.925  1.00  0.00    -0.210 C  
HETATM    8  H   UNL     1      -8.576   9.815  66.900  1.00  0.00     0.000 HD 
HETATM    9  O   UNL     1      -8.885  10.540  66.370  1.00  0.00    -0.147 OA 
BRANCH   7  10
HETATM   10  C   UNL     1      -9.863  11.512  68.374  1.00  0.00    -0.204 C  
BRANCH  10  11
HETATM   11  O   UNL     1     -11.096  11.507  69.117  1.00  0.00    -0.233 OA 
BRANCH  11  12
HETATM   12  C   UNL     1     -11.339  10.329  69.787  1.00  0.00    -0.273 A  
HETATM   13  C   UNL     1     -12.233  10.202  70.843  1.00  0.00    -0.455 A  
HETATM   14  C   UNL     1     -12.377   8.997  71.522  1.00  0.00    -0.397 A  
HETATM   15  C   UNL     1     -11.644   7.871  71.147  1.00  0.00    -0.280 A  
HETATM   16  C   UNL     1     -10.622   9.202  69.377  1.00  0.00    -0.232 A  
HETATM   17  C   UNL     1     -10.769   7.978  70.056  1.00  0.00    -0.244 A  
BRANCH  15  18
HETATM   18  N   UNL     1     -11.728   6.654  71.859  1.00  0.00    -0.299 N  
HETATM   19  H   UNL     1     -12.354   5.940  71.488  1.00  0.00     0.000 HD 
HETATM   20  C   UNL     1     -11.034   6.346  73.020  1.00  0.00    -0.238 C  
HETATM   21  O   UNL     1     -10.382   7.117  73.715  1.00  0.00    -0.351 OA 
HETATM   22  C   UNL     1     -11.161   4.904  73.426  1.00  0.00    -0.415 C  
ENDBRANCH  15  18
ENDBRANCH  11  12
ENDBRANCH  10  11
ENDBRANCH   7  10
ENDBRANCH   6   7
ENDBRANCH   4   6
ENDBRANCH   2   4
TORSDOF 7
ENDMDL
MODEL       89
REMARK 921   NORMALIZED FREE ENERGY PREDICTED BY IDOCK:   -4.19 KCAL/MOL
REMARK 922        TOTAL FREE ENERGY PREDICTED BY IDOCK:   -6.74 KCAL/MOL
REMARK 923 INTER-LIGAND FREE ENERGY PREDICTED BY IDOCK:   -6.28 KCAL/MOL
REMARK 924 INTRA-LIGAND FREE ENERGY PREDICTED BY IDOCK:   -0.47 KCAL/MOL
REMARK 927      BINDING AFFINITY PREDICTED BY RF-SCORE:    0.00 PKD
ROOT
HETATM    1  C   UNL     1      -9.819  19.933  68.446  1.00  0.00    -0.489 C  
HETATM    2  C   UNL     1     -10.447  19.041  67.373  1.00  0.00    -0.457 C  
HETATM    3  C   UNL     1     -10.620  19.838  66.078  1.00  0.00    -0.573 C  
ENDROOT
BRANCH   2   4
HETATM    4  N   UNL     1      -9.577  17.880  67.183  1.00  0.00    -0.273 NA 
HETATM    5  H   UNL     1      -8.803  18.108  66.559  1.00  0.00     0.000 HD 
BRANCH   4   6
HETATM    6  C   UNL     1      -9.079  17.309  68.439  1.00  0.00    -0.265 C  
BRANCH   6   7
HETATM    7  C   UNL     1      -9.740  15.942  68.679  1.00  0.00    -0.207 C  
HETATM    8  H   UNL     1     -10.845  15.097  70.079  1.00  0.00     0.000 HD 
HETATM    9  O   UNL     1     -10.437  15.942  69.931  1.00  0.00    -0.290 OA 
BRANCH   7  10
HETATM   10  C   UNL     1     -10.696  15.585  67.539  1.00  0.00    -0.300 C  
BRANCH  10  11
HETATM   11  O   UNL     1     -11.812  14.813  68.020  1.00  0.00    -0.336 OA 
BRANCH  11  12
HETATM   12  C   UNL     1     -11.599  13.454  68.003  1.00  0.00    -0.334 A  
HETATM   13  C   UNL     1     -11.257  12.733  66.865  1.00  0.00    -0.339 A  
HETATM   14  C   UNL     1     -11.127  11.349  66.905  1.00  0.00    -0.356 A  
HETATM   15  C   UNL     1     -11.313  10.644  68.094  1.00  0.00    -0.284 A  
HETATM   16  C   UNL     1     -11.756  12.767  69.210  1.00  0.00    -0.376 A  
HETATM   17  C   UNL     1     -11.619  11.367  69.256  1.00  0.00    -0.384 A  
BRANCH  15  18
HETATM   18  N   UNL     1     -11.246   9.234  68.145  1.00  0.00    -0.458 N  
HETATM   19  H   UNL     1     -12.110   8.720  67.980  1.00  0.00     0.000 HD 
HETATM   20  C   UNL     1     -10.104   8.488  68.401  1.00  0.00    -0.194 C  
HETATM   21  O   UNL     1      -9.023   8.908  68.797  1.00  0.00    -0.133 OA 
HETATM   22  C   UNL     1     -10.292   7.013  68.177  1.00  0.00    -0.226 C  
ENDBRANCH  15  18
ENDBRANCH  11  12
ENDBRANCH  10  11
ENDBRANCH   7  10
ENDBRANCH   6   7
ENDBRANCH   4   6
ENDBRANCH   2   4
TORSDOF 7
ENDMDL
MODEL       90
REMARK 921   NORMALIZED FREE ENERGY PREDICTED BY IDOCK:   -4.18 KCAL/MOL
REMARK 922        TOTAL FREE ENERGY PREDICTED BY IDOCK:   -6.73 KCAL/MOL
REMARK 923 INTER-LIGAND FREE ENERGY PREDICTED BY IDOCK:   -6.20 KCAL/MOL
REMARK 924 INTRA-LIGAND FREE ENERGY PREDICTED BY IDOCK:   -0.53 KCAL/MOL
REMARK 927      BINDING AFFINITY PREDICTED BY RF-SCORE:    0.00 PKD
ROOT
HETATM    1  C   UNL     1      -9.912  10.105  65.443  1.00  0.00    -0.377 C  
HETATM    2  C   UNL     1     -10.096  11.548  64.972  1.00  0.00    -0.270 C  
HETATM    3  C   UNL     1     -10.887  11.566  63.662  1.00  0.00    -0.488 C  
ENDROOT
BRANCH   2   4
HETATM    4  N   UNL     1     -10.786  12.286  66.032  1.00  0.00    -0.254 NA 
HETATM    5  H   UNL     1     -10.889  11.706  66.864  1.00  0.00     0.000 HD 
BRANCH   4   6
HETATM    6  C   UNL     1     -10.151  13.565  66.365  1.00  0.00    -0.294 C  
BRANCH   6   7
HETATM    7  C   UNL     1     -11.227  14.579  66.783  1.00  0.00    -0.334 C  
HETATM    8  H   UNL     1     -13.197  14.637  66.881  1.00  0.00     0.000 HD 
HETATM    9  O   UNL     1     -12.532  14.010  66.623  1.00  0.00    -0.420 OA 
BRANCH   7  10
HETATM   10  C   UNL     1     -11.020  15.037  68.227  1.00  0.00    -0.271 C  
BRANCH  10  11
HETATM   11  O   UNL     1     -11.351  16.430  68.383  1.00  0.00    -0.366 OA 
BRANCH  11  12
HETATM   12  C   UNL     1     -10.316  17.286  68.082  1.00  0.00    -0.357 A  
HETATM   13  C   UNL     1      -8.995  17.075  68.460  1.00  0.00    -0.263 A  
HETATM   14  C   UNL     1      -8.011  18.018  68.184  1.00  0.00    -0.270 A  
HETATM   15  C   UNL     1      -8.315  19.194  67.498  1.00  0.00    -0.287 A  
HETATM   16  C   UNL     1     -10.631  18.442  67.364  1.00  0.00    -0.445 A  
HETATM   17  C   UNL     1      -9.637  19.396  67.077  1.00  0.00    -0.412 A  
BRANCH  15  18
HETATM   18  N   UNL     1      -7.344  20.192  67.260  1.00  0.00    -0.262 N  
HETATM   19  H   UNL     1      -7.138  20.833  68.025  1.00  0.00     0.000 HD 
HETATM   20  C   UNL     1      -6.647  20.375  66.074  1.00  0.00    -0.223 C  
HETATM   21  O   UNL     1      -6.873  19.837  64.997  1.00  0.00    -0.346 OA 
HETATM   22  C   UNL     1      -5.529  21.374  66.188  1.00  0.00    -0.265 C  
ENDBRANCH  15  18
ENDBRANCH  11  12
ENDBRANCH  10  11
ENDBRANCH   7  10
ENDBRANCH   6   7
ENDBRANCH   4   6
ENDBRANCH   2   4
TORSDOF 7
ENDMDL
MODEL       91
REMARK 921   NORMALIZED FREE ENERGY PREDICTED BY IDOCK:   -4.18 KCAL/MOL
REMARK 922        TOTAL FREE ENERGY PREDICTED BY IDOCK:   -6.73 KCAL/MOL
REMARK 923 INTER-LIGAND FREE ENERGY PREDICTED BY IDOCK:   -5.88 KCAL/MOL
REMARK 924 INTRA-LIGAND FREE ENERGY PREDICTED BY IDOCK:   -0.84 KCAL/MOL
REMARK 927      BINDING AFFINITY PREDICTED BY RF-SCORE:    0.00 PKD
ROOT
HETATM    1  C   UNL     1     -11.328   7.710  72.749  1.00  0.00    -0.419 C  
HETATM    2  C   UNL     1     -10.542   7.019  71.633  1.00  0.00    -0.204 C  
HETATM    3  C   UNL     1     -10.731   5.504  71.732  1.00  0.00    -0.289 C  
ENDROOT
BRANCH   2   4
HETATM    4  N   UNL     1     -11.018   7.544  70.353  1.00  0.00    -0.249 NA 
HETATM    5  H   UNL     1     -10.955   8.562  70.335  1.00  0.00     0.000 HD 
BRANCH   4   6
HETATM    6  C   UNL     1     -10.339   6.961  69.191  1.00  0.00    -0.195 C  
BRANCH   6   7
HETATM    7  C   UNL     1      -9.832   8.086  68.275  1.00  0.00    -0.170 C  
HETATM    8  H   UNL     1     -10.211   8.748  66.455  1.00  0.00     0.000 HD 
HETATM    9  O   UNL     1     -10.524   8.053  67.021  1.00  0.00    -0.316 OA 
BRANCH   7  10
HETATM   10  C   UNL     1     -10.000   9.454  68.938  1.00  0.00    -0.179 C  
BRANCH  10  11
HETATM   11  O   UNL     1     -11.248  10.065  68.561  1.00  0.00    -0.211 OA 
BRANCH  11  12
HETATM   12  C   UNL     1     -11.643  11.087  69.395  1.00  0.00    -0.312 A  
HETATM   13  C   UNL     1     -12.286  10.896  70.611  1.00  0.00    -0.470 A  
HETATM   14  C   UNL     1     -12.721  11.977  71.371  1.00  0.00    -0.380 A  
HETATM   15  C   UNL     1     -12.505  13.287  70.944  1.00  0.00    -0.342 A  
HETATM   16  C   UNL     1     -11.387  12.393  68.969  1.00  0.00    -0.336 A  
HETATM   17  C   UNL     1     -11.820  13.490  69.738  1.00  0.00    -0.395 A  
BRANCH  15  18
HETATM   18  N   UNL     1     -12.991  14.398  71.668  1.00  0.00    -0.324 N  
HETATM   19  H   UNL     1     -13.958  14.674  71.505  1.00  0.00     0.000 HD 
HETATM   20  C   UNL     1     -12.264  15.148  72.583  1.00  0.00    -0.384 C  
HETATM   21  O   UNL     1     -11.057  15.095  72.784  1.00  0.00    -0.112 OA 
HETATM   22  C   UNL     1     -13.106  16.128  73.352  1.00  0.00    -0.595 C  
ENDBRANCH  15  18
ENDBRANCH  11  12
ENDBRANCH  10  11
ENDBRANCH   7  10
ENDBRANCH   6   7
ENDBRANCH   4   6
ENDBRANCH   2   4
TORSDOF 7
ENDMDL
MODEL       92
REMARK 921   NORMALIZED FREE ENERGY PREDICTED BY IDOCK:   -4.17 KCAL/MOL
REMARK 922        TOTAL FREE ENERGY PREDICTED BY IDOCK:   -6.72 KCAL/MOL
REMARK 923 INTER-LIGAND FREE ENERGY PREDICTED BY IDOCK:   -5.55 KCAL/MOL
REMARK 924 INTRA-LIGAND FREE ENERGY PREDICTED BY IDOCK:   -1.17 KCAL/MOL
REMARK 927      BINDING AFFINITY PREDICTED BY RF-SCORE:    0.00 PKD
ROOT
HETATM    1  C   UNL     1      -7.676  14.590  67.634  1.00  0.00    -0.194 C  
HETATM    2  C   UNL     1      -8.743  14.220  68.665  1.00  0.00    -0.150 C  
HETATM    3  C   UNL     1      -9.187  15.475  69.421  1.00  0.00    -0.280 C  
ENDROOT
BRANCH   2   4
HETATM    4  N   UNL     1      -9.859  13.591  67.957  1.00  0.00    -0.231 NA 
HETATM    5  H   UNL     1     -10.751  13.931  68.316  1.00  0.00     0.000 HD 
BRANCH   4   6
HETATM    6  C   UNL     1      -9.792  13.748  66.501  1.00  0.00    -0.290 C  
BRANCH   6   7
HETATM    7  C   UNL     1     -10.933  14.664  66.030  1.00  0.00    -0.325 C  
HETATM    8  H   UNL     1     -12.529  15.510  66.826  1.00  0.00     0.000 HD 
HETATM    9  O   UNL     1     -11.824  14.944  67.117  1.00  0.00    -0.338 OA 
BRANCH   7  10
HETATM   10  C   UNL     1     -10.388  15.966  65.442  1.00  0.00    -0.372 C  
BRANCH  10  11
HETATM   11  O   UNL     1     -10.907  17.111  66.144  1.00  0.00    -0.152 OA 
BRANCH  11  12
HETATM   12  C   UNL     1      -9.947  17.840  66.808  1.00  0.00    -0.333 A  
HETATM   13  C   UNL     1     -10.210  18.677  67.885  1.00  0.00    -0.433 A  
HETATM   14  C   UNL     1      -9.202  19.440  68.465  1.00  0.00    -0.429 A  
HETATM   15  C   UNL     1      -7.890  19.371  67.996  1.00  0.00    -0.302 A  
HETATM   16  C   UNL     1      -8.631  17.733  66.348  1.00  0.00    -0.260 A  
HETATM   17  C   UNL     1      -7.607  18.498  66.936  1.00  0.00    -0.235 A  
BRANCH  15  18
HETATM   18  N   UNL     1      -6.863  20.181  68.529  1.00  0.00    -0.294 N  
HETATM   19  H   UNL     1      -6.763  21.120  68.145  1.00  0.00     0.000 HD 
HETATM   20  C   UNL     1      -5.977  19.809  69.530  1.00  0.00    -0.290 C  
HETATM   21  O   UNL     1      -5.814  18.684  69.989  1.00  0.00    -0.249 OA 
HETATM   22  C   UNL     1      -5.139  20.949  70.039  1.00  0.00    -0.397 C  
ENDBRANCH  15  18
ENDBRANCH  11  12
ENDBRANCH  10  11
ENDBRANCH   7  10
ENDBRANCH   6   7
ENDBRANCH   4   6
ENDBRANCH   2   4
TORSDOF 7
ENDMDL
MODEL       93
REMARK 921   NORMALIZED FREE ENERGY PREDICTED BY IDOCK:   -4.16 KCAL/MOL
REMARK 922        TOTAL FREE ENERGY PREDICTED BY IDOCK:   -6.70 KCAL/MOL
REMARK 923 INTER-LIGAND FREE ENERGY PREDICTED BY IDOCK:   -6.66 KCAL/MOL
REMARK 924 INTRA-LIGAND FREE ENERGY PREDICTED BY IDOCK:   -0.04 KCAL/MOL
REMARK 927      BINDING AFFINITY PREDICTED BY RF-SCORE:    0.00 PKD
ROOT
HETATM    1  C   UNL     1     -10.065  17.753  67.420  1.00  0.00    -0.338 C  
HETATM    2  C   UNL     1      -9.878  16.356  68.013  1.00  0.00    -0.238 C  
HETATM    3  C   UNL     1     -11.066  16.014  68.914  1.00  0.00    -0.331 C  
ENDROOT
BRANCH   2   4
HETATM    4  N   UNL     1      -9.748  15.408  66.905  1.00  0.00    -0.226 NA 
HETATM    5  H   UNL     1     -10.383  14.620  67.029  1.00  0.00     0.000 HD 
BRANCH   4   6
HETATM    6  C   UNL     1      -9.931  16.020  65.585  1.00  0.00    -0.313 C  
BRANCH   6   7
HETATM    7  C   UNL     1     -11.377  15.799  65.114  1.00  0.00    -0.154 C  
HETATM    8  H   UNL     1     -12.516  16.396  63.616  1.00  0.00     0.000 HD 
HETATM    9  O   UNL     1     -11.622  16.532  63.907  1.00  0.00    -1.175 OA 
BRANCH   7  10
HETATM   10  C   UNL     1     -11.666  14.313  64.900  1.00  0.00    -0.397 C  
BRANCH  10  11
HETATM   11  O   UNL     1     -10.446  13.557  64.786  1.00  0.00    -0.379 OA 
BRANCH  11  12
HETATM   12  C   UNL     1     -10.444  12.388  65.512  1.00  0.00    -0.275 A  
HETATM   13  C   UNL     1      -9.676  11.275  65.196  1.00  0.00    -0.285 A  
HETATM   14  C   UNL     1      -9.776  10.099  65.932  1.00  0.00    -0.292 A  
HETATM   15  C   UNL     1     -10.637  10.009  67.026  1.00  0.00    -0.212 A  
HETATM   16  C   UNL     1     -11.286  12.326  66.626  1.00  0.00    -0.398 A  
HETATM   17  C   UNL     1     -11.387  11.141  67.378  1.00  0.00    -0.329 A  
BRANCH  15  18
HETATM   18  N   UNL     1     -10.801   8.809  67.751  1.00  0.00    -0.491 N  
HETATM   19  H   UNL     1     -11.288   8.866  68.645  1.00  0.00     0.000 HD 
HETATM   20  C   UNL     1     -10.356   7.556  67.352  1.00  0.00    -0.276 C  
HETATM   21  O   UNL     1      -9.605   7.305  66.417  1.00  0.00    -0.172 OA 
HETATM   22  C   UNL     1     -10.864   6.438  68.221  1.00  0.00    -0.384 C  
ENDBRANCH  15  18
ENDBRANCH  11  12
ENDBRANCH  10  11
ENDBRANCH   7  10
ENDBRANCH   6   7
ENDBRANCH   4   6
ENDBRANCH   2   4
TORSDOF 7
ENDMDL
MODEL       94
REMARK 921   NORMALIZED FREE ENERGY PREDICTED BY IDOCK:   -4.16 KCAL/MOL
REMARK 922        TOTAL FREE ENERGY PREDICTED BY IDOCK:   -6.70 KCAL/MOL
REMARK 923 INTER-LIGAND FREE ENERGY PREDICTED BY IDOCK:   -6.18 KCAL/MOL
REMARK 924 INTRA-LIGAND FREE ENERGY PREDICTED BY IDOCK:   -0.53 KCAL/MOL
REMARK 927      BINDING AFFINITY PREDICTED BY RF-SCORE:    0.00 PKD
ROOT
HETATM    1  C   UNL     1     -10.252  20.187  68.372  1.00  0.00    -0.438 C  
HETATM    2  C   UNL     1     -10.585  19.367  67.125  1.00  0.00    -0.485 C  
HETATM    3  C   UNL     1      -9.991  20.047  65.888  1.00  0.00    -0.471 C  
ENDROOT
BRANCH   2   4
HETATM    4  N   UNL     1     -10.048  18.019  67.312  1.00  0.00    -0.326 NA 
HETATM    5  H   UNL     1      -9.032  18.019  67.217  1.00  0.00     0.000 HD 
BRANCH   4   6
HETATM    6  C   UNL     1     -10.449  17.399  68.579  1.00  0.00    -0.370 C  
BRANCH   6   7
HETATM    7  C   UNL     1     -10.849  15.936  68.330  1.00  0.00    -0.316 C  
HETATM    8  H   UNL     1     -12.357  14.751  68.796  1.00  0.00     0.000 HD 
HETATM    9  O   UNL     1     -12.110  15.655  68.949  1.00  0.00    -0.319 OA 
BRANCH   7  10
HETATM   10  C   UNL     1     -10.912  15.628  66.834  1.00  0.00    -0.243 C  
BRANCH  10  11
HETATM   11  O   UNL     1     -11.825  14.549  66.563  1.00  0.00    -0.383 OA 
BRANCH  11  12
HETATM   12  C   UNL     1     -11.224  13.429  66.035  1.00  0.00    -0.296 A  
HETATM   13  C   UNL     1     -10.727  13.348  64.740  1.00  0.00    -0.403 A  
HETATM   14  C   UNL     1     -10.195  12.161  64.247  1.00  0.00    -0.351 A  
HETATM   15  C   UNL     1     -10.124  11.020  65.048  1.00  0.00    -0.296 A  
HETATM   16  C   UNL     1     -11.128  12.306  66.861  1.00  0.00    -0.341 A  
HETATM   17  C   UNL     1     -10.585  11.104  66.369  1.00  0.00    -0.315 A  
BRANCH  15  18
HETATM   18  N   UNL     1      -9.644   9.789  64.551  1.00  0.00    -0.425 N  
HETATM   19  H   UNL     1     -10.335   9.126  64.201  1.00  0.00     0.000 HD 
HETATM   20  C   UNL     1      -8.312   9.401  64.498  1.00  0.00    -0.164 C  
HETATM   21  O   UNL     1      -7.360   9.965  65.025  1.00  0.00    -0.122 OA 
HETATM   22  C   UNL     1      -8.091   8.132  63.723  1.00  0.00    -0.112 C  
ENDBRANCH  15  18
ENDBRANCH  11  12
ENDBRANCH  10  11
ENDBRANCH   7  10
ENDBRANCH   6   7
ENDBRANCH   4   6
ENDBRANCH   2   4
TORSDOF 7
ENDMDL
MODEL       95
REMARK 921   NORMALIZED FREE ENERGY PREDICTED BY IDOCK:   -4.15 KCAL/MOL
REMARK 922        TOTAL FREE ENERGY PREDICTED BY IDOCK:   -6.70 KCAL/MOL
REMARK 923 INTER-LIGAND FREE ENERGY PREDICTED BY IDOCK:   -6.16 KCAL/MOL
REMARK 924 INTRA-LIGAND FREE ENERGY PREDICTED BY IDOCK:   -0.54 KCAL/MOL
REMARK 927      BINDING AFFINITY PREDICTED BY RF-SCORE:    0.00 PKD
ROOT
HETATM    1  C   UNL     1     -10.499   7.372  67.082  1.00  0.00    -0.403 C  
HETATM    2  C   UNL     1     -10.176   6.997  68.529  1.00  0.00    -0.172 C  
HETATM    3  C   UNL     1      -8.839   7.620  68.937  1.00  0.00    -0.135 C  
ENDROOT
BRANCH   2   4
HETATM    4  N   UNL     1     -11.275   7.468  69.374  1.00  0.00    -0.450 NA 
HETATM    5  H   UNL     1     -11.689   6.693  69.892  1.00  0.00     0.000 HD 
BRANCH   4   6
HETATM    6  C   UNL     1     -10.891   8.552  70.283  1.00  0.00    -0.238 C  
BRANCH   6   7
HETATM    7  C   UNL     1     -11.744   9.796  69.988  1.00  0.00    -0.074 C  
HETATM    8  H   UNL     1     -12.417  11.358  70.989  1.00  0.00     0.000 HD 
HETATM    9  O   UNL     1     -11.890  10.590  71.172  1.00  0.00    -0.346 OA 
BRANCH   7  10
HETATM   10  C   UNL     1     -11.131  10.629  68.861  1.00  0.00    -0.261 C  
BRANCH  10  11
HETATM   11  O   UNL     1     -12.128  11.444  68.216  1.00  0.00    -0.606 OA 
BRANCH  11  12
HETATM   12  C   UNL     1     -11.752  12.758  68.050  1.00  0.00    -0.356 A  
HETATM   13  C   UNL     1     -11.260  13.563  69.070  1.00  0.00    -0.314 A  
HETATM   14  C   UNL     1     -10.965  14.904  68.848  1.00  0.00    -0.257 A  
HETATM   15  C   UNL     1     -11.135  15.477  67.587  1.00  0.00    -0.311 A  
HETATM   16  C   UNL     1     -11.895  13.307  66.773  1.00  0.00    -0.448 A  
HETATM   17  C   UNL     1     -11.593  14.662  66.542  1.00  0.00    -0.350 A  
BRANCH  15  18
HETATM   18  N   UNL     1     -10.901  16.849  67.353  1.00  0.00    -0.230 N  
HETATM   19  H   UNL     1     -11.518  17.514  67.819  1.00  0.00     0.000 HD 
HETATM   20  C   UNL     1      -9.904  17.373  66.543  1.00  0.00    -0.304 C  
HETATM   21  O   UNL     1      -9.186  16.755  65.766  1.00  0.00    -0.520 OA 
HETATM   22  C   UNL     1      -9.763  18.866  66.659  1.00  0.00    -0.380 C  
ENDBRANCH  15  18
ENDBRANCH  11  12
ENDBRANCH  10  11
ENDBRANCH   7  10
ENDBRANCH   6   7
ENDBRANCH   4   6
ENDBRANCH   2   4
TORSDOF 7
ENDMDL
MODEL       96
REMARK 921   NORMALIZED FREE ENERGY PREDICTED BY IDOCK:   -4.15 KCAL/MOL
REMARK 922        TOTAL FREE ENERGY PREDICTED BY IDOCK:   -6.69 KCAL/MOL
REMARK 923 INTER-LIGAND FREE ENERGY PREDICTED BY IDOCK:   -6.25 KCAL/MOL
REMARK 924 INTRA-LIGAND FREE ENERGY PREDICTED BY IDOCK:   -0.44 KCAL/MOL
REMARK 927      BINDING AFFINITY PREDICTED BY RF-SCORE:    0.00 PKD
ROOT
HETATM    1  C   UNL     1      -9.400   3.621  68.049  1.00  0.00    -0.237 C  
HETATM    2  C   UNL     1      -9.506   5.117  68.352  1.00  0.00    -0.129 C  
HETATM    3  C   UNL     1     -10.557   5.754  67.439  1.00  0.00    -0.340 C  
ENDROOT
BRANCH   2   4
HETATM    4  N   UNL     1      -9.850   5.270  69.766  1.00  0.00    -0.191 NA 
HETATM    5  H   UNL     1      -9.117   5.775  70.262  1.00  0.00     0.000 HD 
BRANCH   4   6
HETATM    6  C   UNL     1     -11.156   5.900  69.986  1.00  0.00    -0.341 C  
BRANCH   6   7
HETATM    7  C   UNL     1     -11.333   6.204  71.482  1.00  0.00    -0.280 C  
HETATM    8  H   UNL     1     -10.173   6.657  73.013  1.00  0.00     0.000 HD 
HETATM    9  O   UNL     1     -10.062   6.469  72.088  1.00  0.00    -0.180 OA 
BRANCH   7  10
HETATM   10  C   UNL     1     -12.281   7.386  71.695  1.00  0.00    -0.330 C  
BRANCH  10  11
HETATM   11  O   UNL     1     -11.589   8.507  72.276  1.00  0.00    -0.353 OA 
BRANCH  11  12
HETATM   12  C   UNL     1     -11.685   9.665  71.538  1.00  0.00    -0.400 A  
HETATM   13  C   UNL     1     -12.676  10.623  71.714  1.00  0.00    -0.489 A  
HETATM   14  C   UNL     1     -12.755  11.736  70.884  1.00  0.00    -0.328 A  
HETATM   15  C   UNL     1     -11.827  11.936  69.862  1.00  0.00    -0.343 A  
HETATM   16  C   UNL     1     -10.727   9.868  70.541  1.00  0.00    -0.382 A  
HETATM   17  C   UNL     1     -10.799  10.996  69.702  1.00  0.00    -0.241 A  
BRANCH  15  18
HETATM   18  N   UNL     1     -11.923  13.026  68.969  1.00  0.00    -0.295 N  
HETATM   19  H   UNL     1     -12.043  13.953  69.377  1.00  0.00     0.000 HD 
HETATM   20  C   UNL     1     -11.869  12.945  67.585  1.00  0.00    -0.346 C  
HETATM   21  O   UNL     1     -11.911  11.927  66.905  1.00  0.00    -0.614 OA 
HETATM   22  C   UNL     1     -11.781  14.287  66.912  1.00  0.00    -0.430 C  
ENDBRANCH  15  18
ENDBRANCH  11  12
ENDBRANCH  10  11
ENDBRANCH   7  10
ENDBRANCH   6   7
ENDBRANCH   4   6
ENDBRANCH   2   4
TORSDOF 7
ENDMDL
MODEL       97
REMARK 921   NORMALIZED FREE ENERGY PREDICTED BY IDOCK:   -4.15 KCAL/MOL
REMARK 922        TOTAL FREE ENERGY PREDICTED BY IDOCK:   -6.68 KCAL/MOL
REMARK 923 INTER-LIGAND FREE ENERGY PREDICTED BY IDOCK:   -6.65 KCAL/MOL
REMARK 924 INTRA-LIGAND FREE ENERGY PREDICTED BY IDOCK:   -0.03 KCAL/MOL
REMARK 927      BINDING AFFINITY PREDICTED BY RF-SCORE:    0.00 PKD
ROOT
HETATM    1  C   UNL     1     -10.366  19.511  66.359  1.00  0.00    -0.594 C  
HETATM    2  C   UNL     1      -9.790  18.129  66.669  1.00  0.00    -0.350 C  
HETATM    3  C   UNL     1     -10.480  17.549  67.906  1.00  0.00    -0.384 C  
ENDROOT
BRANCH   2   4
HETATM    4  N   UNL     1      -9.987  17.282  65.492  1.00  0.00    -0.540 NA 
HETATM    5  H   UNL     1      -9.124  17.208  64.953  1.00  0.00     0.000 HD 
BRANCH   4   6
HETATM    6  C   UNL     1     -10.517  15.952  65.808  1.00  0.00    -0.370 C  
BRANCH   6   7
HETATM    7  C   UNL     1     -11.764  15.679  64.952  1.00  0.00    -0.055 C  
HETATM    8  H   UNL     1     -12.409  16.147  63.146  1.00  0.00     0.000 HD 
HETATM    9  O   UNL     1     -11.638  16.316  63.675  1.00  0.00    -0.836 OA 
BRANCH   7  10
HETATM   10  C   UNL     1     -11.994  14.177  64.777  1.00  0.00    -0.431 C  
BRANCH  10  11
HETATM   11  O   UNL     1     -11.145  13.416  65.656  1.00  0.00    -0.285 OA 
BRANCH  11  12
HETATM   12  C   UNL     1     -10.599  12.296  65.073  1.00  0.00    -0.287 A  
HETATM   13  C   UNL     1     -10.235  11.151  65.771  1.00  0.00    -0.310 A  
HETATM   14  C   UNL     1      -9.622  10.082  65.128  1.00  0.00    -0.356 A  
HETATM   15  C   UNL     1      -9.373  10.117  63.755  1.00  0.00    -0.288 A  
HETATM   16  C   UNL     1     -10.389  12.333  63.691  1.00  0.00    -0.463 A  
HETATM   17  C   UNL     1      -9.774  11.251  63.035  1.00  0.00    -0.389 A  
BRANCH  15  18
HETATM   18  N   UNL     1      -8.698   9.069  63.092  1.00  0.00    -0.394 N  
HETATM   19  H   UNL     1      -8.742   9.057  62.073  1.00  0.00     0.000 HD 
HETATM   20  C   UNL     1      -7.978   8.054  63.706  1.00  0.00    -0.123 C  
HETATM   21  O   UNL     1      -7.953   7.788  64.902  1.00  0.00    -0.126 OA 
HETATM   22  C   UNL     1      -7.192   7.211  62.740  1.00  0.00    -0.068 C  
ENDBRANCH  15  18
ENDBRANCH  11  12
ENDBRANCH  10  11
ENDBRANCH   7  10
ENDBRANCH   6   7
ENDBRANCH   4   6
ENDBRANCH   2   4
TORSDOF 7
ENDMDL
MODEL       98
REMARK 921   NORMALIZED FREE ENERGY PREDICTED BY IDOCK:   -4.12 KCAL/MOL
REMARK 922        TOTAL FREE ENERGY PREDICTED BY IDOCK:   -6.65 KCAL/MOL
REMARK 923 INTER-LIGAND FREE ENERGY PREDICTED BY IDOCK:   -5.69 KCAL/MOL
REMARK 924 INTRA-LIGAND FREE ENERGY PREDICTED BY IDOCK:   -0.96 KCAL/MOL
REMARK 927      BINDING AFFINITY PREDICTED BY RF-SCORE:    0.00 PKD
ROOT
HETATM    1  C   UNL     1     -12.164  12.092  63.685  1.00  0.00    -0.663 C  
HETATM    2  C   UNL     1     -11.566  13.480  63.917  1.00  0.00    -0.306 C  
HETATM    3  C   UNL     1     -12.520  14.317  64.773  1.00  0.00    -0.390 C  
ENDROOT
BRANCH   2   4
HETATM    4  N   UNL     1     -10.265  13.310  64.566  1.00  0.00    -0.592 NA 
HETATM    5  H   UNL     1      -9.518  13.273  63.871  1.00  0.00     0.000 HD 
BRANCH   4   6
HETATM    6  C   UNL     1      -9.978  14.326  65.583  1.00  0.00    -0.320 C  
BRANCH   6   7
HETATM    7  C   UNL     1      -9.287  13.667  66.787  1.00  0.00    -0.261 C  
HETATM    8  H   UNL     1      -7.943  14.178  68.139  1.00  0.00     0.000 HD 
HETATM    9  O   UNL     1      -8.370  14.585  67.395  1.00  0.00    -0.175 OA 
BRANCH   7  10
HETATM   10  C   UNL     1     -10.313  13.184  67.814  1.00  0.00    -0.230 C  
BRANCH  10  11
HETATM   11  O   UNL     1     -11.135  12.134  67.271  1.00  0.00    -0.255 OA 
BRANCH  11  12
HETATM   12  C   UNL     1     -10.805  10.877  67.725  1.00  0.00    -0.259 A  
HETATM   13  C   UNL     1     -10.595   9.780  66.898  1.00  0.00    -0.243 A  
HETATM   14  C   UNL     1     -10.334   8.521  67.428  1.00  0.00    -0.356 A  
HETATM   15  C   UNL     1     -10.254   8.325  68.807  1.00  0.00    -0.210 A  
HETATM   16  C   UNL     1     -10.694  10.705  69.107  1.00  0.00    -0.264 A  
HETATM   17  C   UNL     1     -10.424   9.434  69.648  1.00  0.00    -0.236 A  
BRANCH  15  18
HETATM   18  N   UNL     1     -10.050   7.046  69.369  1.00  0.00    -0.166 N  
HETATM   19  H   UNL     1      -9.117   6.643  69.287  1.00  0.00     0.000 HD 
HETATM   20  C   UNL     1     -11.011   6.288  70.024  1.00  0.00    -0.358 C  
HETATM   21  O   UNL     1     -12.216   6.507  70.070  1.00  0.00    -0.174 OA 
HETATM   22  C   UNL     1     -10.449   5.069  70.703  1.00  0.00    -0.227 C  
ENDBRANCH  15  18
ENDBRANCH  11  12
ENDBRANCH  10  11
ENDBRANCH   7  10
ENDBRANCH   6   7
ENDBRANCH   4   6
ENDBRANCH   2   4
TORSDOF 7
ENDMDL
MODEL       99
REMARK 921   NORMALIZED FREE ENERGY PREDICTED BY IDOCK:   -4.11 KCAL/MOL
REMARK 922        TOTAL FREE ENERGY PREDICTED BY IDOCK:   -6.63 KCAL/MOL
REMARK 923 INTER-LIGAND FREE ENERGY PREDICTED BY IDOCK:   -6.14 KCAL/MOL
REMARK 924 INTRA-LIGAND FREE ENERGY PREDICTED BY IDOCK:   -0.49 KCAL/MOL
REMARK 927      BINDING AFFINITY PREDICTED BY RF-SCORE:    0.00 PKD
ROOT
HETATM    1  C   UNL     1      -8.953  18.260  68.056  1.00  0.00    -0.301 C  
HETATM    2  C   UNL     1     -10.173  18.331  67.136  1.00  0.00    -0.373 C  
HETATM    3  C   UNL     1     -10.650  19.781  67.024  1.00  0.00    -0.586 C  
ENDROOT
BRANCH   2   4
HETATM    4  N   UNL     1      -9.791  17.784  65.834  1.00  0.00    -0.550 NA 
HETATM    5  H   UNL     1      -8.954  17.207  65.918  1.00  0.00     0.000 HD 
BRANCH   4   6
HETATM    6  C   UNL     1     -10.867  17.041  65.171  1.00  0.00    -0.049 C  
BRANCH   6   7
HETATM    7  C   UNL     1     -10.490  15.553  65.089  1.00  0.00    -0.403 C  
HETATM    8  H   UNL     1      -9.392  14.282  66.123  1.00  0.00     0.000 HD 
HETATM    9  O   UNL     1      -9.625  15.201  66.174  1.00  0.00    -0.272 OA 
BRANCH   7  10
HETATM   10  C   UNL     1     -11.738  14.668  65.095  1.00  0.00    -0.364 C  
BRANCH  10  11
HETATM   11  O   UNL     1     -11.697  13.705  64.025  1.00  0.00    -0.403 OA 
BRANCH  11  12
HETATM   12  C   UNL     1     -11.072  12.526  64.360  1.00  0.00    -0.339 A  
HETATM   13  C   UNL     1     -10.323  11.761  63.474  1.00  0.00    -0.490 A  
HETATM   14  C   UNL     1      -9.778  10.541  63.862  1.00  0.00    -0.384 A  
HETATM   15  C   UNL     1      -9.948  10.059  65.160  1.00  0.00    -0.280 A  
HETATM   16  C   UNL     1     -11.223  12.074  65.674  1.00  0.00    -0.377 A  
HETATM   17  C   UNL     1     -10.667  10.844  66.072  1.00  0.00    -0.208 A  
BRANCH  15  18
HETATM   18  N   UNL     1      -9.456   8.797  65.558  1.00  0.00    -0.452 N  
HETATM   19  H   UNL     1     -10.032   7.983  65.344  1.00  0.00     0.000 HD 
HETATM   20  C   UNL     1      -8.256   8.568  66.216  1.00  0.00    -0.109 C  
HETATM   21  O   UNL     1      -7.518   9.409  66.717  1.00  0.00    -0.093 OA 
HETATM   22  C   UNL     1      -7.899   7.110  66.316  1.00  0.00    -0.107 C  
ENDBRANCH  15  18
ENDBRANCH  11  12
ENDBRANCH  10  11
ENDBRANCH   7  10
ENDBRANCH   6   7
ENDBRANCH   4   6
ENDBRANCH   2   4
TORSDOF 7
ENDMDL
MODEL      100
REMARK 921   NORMALIZED FREE ENERGY PREDICTED BY IDOCK:   -4.10 KCAL/MOL
REMARK 922        TOTAL FREE ENERGY PREDICTED BY IDOCK:   -6.62 KCAL/MOL
REMARK 923 INTER-LIGAND FREE ENERGY PREDICTED BY IDOCK:   -6.03 KCAL/MOL
REMARK 924 INTRA-LIGAND FREE ENERGY PREDICTED BY IDOCK:   -0.59 KCAL/MOL
REMARK 927      BINDING AFFINITY PREDICTED BY RF-SCORE:    0.00 PKD
ROOT
HETATM    1  C   UNL     1     -13.554   8.705  72.204  1.00  0.00    -0.447 C  
HETATM    2  C   UNL     1     -13.212   9.635  71.039  1.00  0.00    -0.232 C  
HETATM    3  C   UNL     1     -13.065  11.070  71.551  1.00  0.00    -0.500 C  
ENDROOT
BRANCH   2   4
HETATM    4  N   UNL     1     -11.978   9.150  70.420  1.00  0.00    -0.469 NA 
HETATM    5  H   UNL     1     -11.255   9.869  70.449  1.00  0.00     0.000 HD 
BRANCH   4   6
HETATM    6  C   UNL     1     -11.485   7.896  70.999  1.00  0.00    -0.280 C  
BRANCH   6   7
HETATM    7  C   UNL     1     -10.439   7.274  70.060  1.00  0.00    -0.224 C  
HETATM    8  H   UNL     1     -10.440   6.127  68.454  1.00  0.00     0.000 HD 
HETATM    9  O   UNL     1     -11.086   6.511  69.034  1.00  0.00    -0.302 OA 
BRANCH   7  10
HETATM   10  C   UNL     1      -9.546   8.349  69.440  1.00  0.00    -0.170 C  
BRANCH  10  11
HETATM   11  O   UNL     1      -9.464   8.196  68.011  1.00  0.00    -0.142 OA 
BRANCH  11  12
HETATM   12  C   UNL     1      -9.848   9.314  67.307  1.00  0.00    -0.182 A  
HETATM   13  C   UNL     1      -9.896   9.385  65.920  1.00  0.00    -0.362 A  
HETATM   14  C   UNL     1     -10.226  10.571  65.273  1.00  0.00    -0.352 A  
HETATM   15  C   UNL     1     -10.541  11.721  65.997  1.00  0.00    -0.260 A  
HETATM   16  C   UNL     1     -10.195  10.448  68.048  1.00  0.00    -0.199 A  
HETATM   17  C   UNL     1     -10.535  11.648  67.397  1.00  0.00    -0.239 A  
BRANCH  15  18
HETATM   18  N   UNL     1     -10.819  12.951  65.361  1.00  0.00    -0.278 N  
HETATM   19  H   UNL     1     -10.031  13.574  65.187  1.00  0.00     0.000 HD 
HETATM   20  C   UNL     1     -12.072  13.385  64.954  1.00  0.00    -0.392 C  
HETATM   21  O   UNL     1     -13.153  12.877  65.229  1.00  0.00    -0.682 OA 
HETATM   22  C   UNL     1     -12.028  14.633  64.116  1.00  0.00    -0.316 C  
ENDBRANCH  15  18
ENDBRANCH  11  12
ENDBRANCH  10  11
ENDBRANCH   7  10
ENDBRANCH   6   7
ENDBRANCH   4   6
ENDBRANCH   2   4
TORSDOF 7
ENDMDL
MODEL      101
REMARK 921   NORMALIZED FREE ENERGY PREDICTED BY IDOCK:   -4.09 KCAL/MOL
REMARK 922        TOTAL FREE ENERGY PREDICTED BY IDOCK:   -6.61 KCAL/MOL
REMARK 923 INTER-LIGAND FREE ENERGY PREDICTED BY IDOCK:   -6.30 KCAL/MOL
REMARK 924 INTRA-LIGAND FREE ENERGY PREDICTED BY IDOCK:   -0.31 KCAL/MOL
REMARK 927      BINDING AFFINITY PREDICTED BY RF-SCORE:    0.00 PKD
ROOT
HETATM    1  C   UNL     1     -12.185  13.008  63.339  1.00  0.00    -0.552 C  
HETATM    2  C   UNL     1     -12.277  14.257  64.217  1.00  0.00    -0.423 C  
HETATM    3  C   UNL     1     -12.903  13.893  65.566  1.00  0.00    -0.471 C  
ENDROOT
BRANCH   2   4
HETATM    4  N   UNL     1     -10.927  14.800  64.374  1.00  0.00    -0.618 NA 
HETATM    5  H   UNL     1     -10.640  15.301  63.533  1.00  0.00     0.000 HD 
BRANCH   4   6
HETATM    6  C   UNL     1     -10.770  15.646  65.561  1.00  0.00    -0.389 C  
BRANCH   6   7
HETATM    7  C   UNL     1      -9.324  15.547  66.075  1.00  0.00    -0.344 C  
HETATM    8  H   UNL     1      -8.064  16.691  67.074  1.00  0.00     0.000 HD 
HETATM    9  O   UNL     1      -8.958  16.752  66.757  1.00  0.00    -0.215 OA 
BRANCH   7  10
HETATM   10  C   UNL     1      -9.149  14.340  66.998  1.00  0.00    -0.233 C  
BRANCH  10  11
HETATM   11  O   UNL     1      -9.882  13.201  66.508  1.00  0.00    -0.253 OA 
BRANCH  11  12
HETATM   12  C   UNL     1     -10.056  12.206  67.442  1.00  0.00    -0.199 A  
HETATM   13  C   UNL     1     -11.237  11.992  68.143  1.00  0.00    -0.316 A  
HETATM   14  C   UNL     1     -11.322  11.012  69.126  1.00  0.00    -0.348 A  
HETATM   15  C   UNL     1     -10.229  10.198  69.423  1.00  0.00    -0.227 A  
HETATM   16  C   UNL     1      -8.962  11.377  67.704  1.00  0.00    -0.140 A  
HETATM   17  C   UNL     1      -9.045  10.379  68.694  1.00  0.00    -0.157 A  
BRANCH  15  18
HETATM   18  N   UNL     1     -10.272   9.238  70.458  1.00  0.00    -0.231 N  
HETATM   19  H   UNL     1      -9.594   8.478  70.418  1.00  0.00     0.000 HD 
HETATM   20  C   UNL     1     -11.159   9.239  71.525  1.00  0.00    -0.373 C  
HETATM   21  O   UNL     1     -12.150   9.947  71.658  1.00  0.00    -0.389 OA 
HETATM   22  C   UNL     1     -10.826   8.218  72.578  1.00  0.00    -0.421 C  
ENDBRANCH  15  18
ENDBRANCH  11  12
ENDBRANCH  10  11
ENDBRANCH   7  10
ENDBRANCH   6   7
ENDBRANCH   4   6
ENDBRANCH   2   4
TORSDOF 7
ENDMDL
MODEL      102
REMARK 921   NORMALIZED FREE ENERGY PREDICTED BY IDOCK:   -4.08 KCAL/MOL
REMARK 922        TOTAL FREE ENERGY PREDICTED BY IDOCK:   -6.59 KCAL/MOL
REMARK 923 INTER-LIGAND FREE ENERGY PREDICTED BY IDOCK:   -6.20 KCAL/MOL
REMARK 924 INTRA-LIGAND FREE ENERGY PREDICTED BY IDOCK:   -0.39 KCAL/MOL
REMARK 927      BINDING AFFINITY PREDICTED BY RF-SCORE:    0.00 PKD
ROOT
HETATM    1  C   UNL     1     -10.085   9.723  65.939  1.00  0.00    -0.314 C  
HETATM    2  C   UNL     1      -9.563  10.525  64.746  1.00  0.00    -0.285 C  
HETATM    3  C   UNL     1      -8.512   9.705  63.994  1.00  0.00    -0.190 C  
ENDROOT
BRANCH   2   4
HETATM    4  N   UNL     1     -10.704  10.859  63.892  1.00  0.00    -0.509 NA 
HETATM    5  H   UNL     1     -11.578  10.569  64.329  1.00  0.00     0.000 HD 
BRANCH   4   6
HETATM    6  C   UNL     1     -10.758  12.275  63.513  1.00  0.00    -0.451 C  
BRANCH   6   7
HETATM    7  C   UNL     1     -12.215  12.762  63.552  1.00  0.00    -0.525 C  
HETATM    8  H   UNL     1     -13.990  12.050  63.064  1.00  0.00     0.000 HD 
HETATM    9  O   UNL     1     -13.089  11.749  63.040  1.00  0.00    -0.508 OA 
BRANCH   7  10
HETATM   10  C   UNL     1     -12.627  13.152  64.972  1.00  0.00    -0.438 C  
BRANCH  10  11
HETATM   11  O   UNL     1     -12.219  14.499  65.279  1.00  0.00    -0.374 OA 
BRANCH  11  12
HETATM   12  C   UNL     1     -11.173  14.574  66.170  1.00  0.00    -0.339 A  
HETATM   13  C   UNL     1      -9.834  14.605  65.799  1.00  0.00    -0.359 A  
HETATM   14  C   UNL     1      -8.824  14.610  66.755  1.00  0.00    -0.269 A  
HETATM   15  C   UNL     1      -9.125  14.607  68.118  1.00  0.00    -0.187 A  
HETATM   16  C   UNL     1     -11.492  14.606  67.530  1.00  0.00    -0.378 A  
HETATM   17  C   UNL     1     -10.474  14.618  68.501  1.00  0.00    -0.247 A  
BRANCH  15  18
HETATM   18  N   UNL     1      -8.118  14.551  69.105  1.00  0.00    -0.319 N  
HETATM   19  H   UNL     1      -8.081  13.715  69.687  1.00  0.00     0.000 HD 
HETATM   20  C   UNL     1      -7.172  15.536  69.353  1.00  0.00    -0.204 C  
HETATM   21  O   UNL     1      -7.157  16.674  68.897  1.00  0.00    -0.180 OA 
HETATM   22  C   UNL     1      -6.099  15.105  70.314  1.00  0.00    -0.127 C  
ENDBRANCH  15  18
ENDBRANCH  11  12
ENDBRANCH  10  11
ENDBRANCH   7  10
ENDBRANCH   6   7
ENDBRANCH   4   6
ENDBRANCH   2   4
TORSDOF 7
ENDMDL
MODEL      103
REMARK 921   NORMALIZED FREE ENERGY PREDICTED BY IDOCK:   -4.07 KCAL/MOL
REMARK 922        TOTAL FREE ENERGY PREDICTED BY IDOCK:   -6.57 KCAL/MOL
REMARK 923 INTER-LIGAND FREE ENERGY PREDICTED BY IDOCK:   -6.44 KCAL/MOL
REMARK 924 INTRA-LIGAND FREE ENERGY PREDICTED BY IDOCK:   -0.13 KCAL/MOL
REMARK 927      BINDING AFFINITY PREDICTED BY RF-SCORE:    0.00 PKD
ROOT
HETATM    1  C   UNL     1      -8.809   8.410  69.681  1.00  0.00    -0.141 C  
HETATM    2  C   UNL     1      -9.937   9.022  70.514  1.00  0.00    -0.215 C  
HETATM    3  C   UNL     1      -9.634   8.841  72.003  1.00  0.00    -0.356 C  
ENDROOT
BRANCH   2   4
HETATM    4  N   UNL     1     -10.052  10.435  70.152  1.00  0.00    -0.414 NA 
HETATM    5  H   UNL     1      -9.486  11.013  70.773  1.00  0.00     0.000 HD 
BRANCH   4   6
HETATM    6  C   UNL     1      -9.727  10.709  68.748  1.00  0.00    -0.189 C  
BRANCH   6   7
HETATM    7  C   UNL     1     -11.016  10.698  67.911  1.00  0.00    -0.295 C  
HETATM    8  H   UNL     1     -12.959  10.755  68.249  1.00  0.00     0.000 HD 
HETATM    9  O   UNL     1     -12.163  10.762  68.767  1.00  0.00    -0.460 OA 
BRANCH   7  10
HETATM   10  C   UNL     1     -11.033  11.855  66.911  1.00  0.00    -0.289 C  
BRANCH  10  11
HETATM   11  O   UNL     1     -12.098  12.779  67.205  1.00  0.00    -0.415 OA 
BRANCH  11  12
HETATM   12  C   UNL     1     -11.689  14.089  67.303  1.00  0.00    -0.389 A  
HETATM   13  C   UNL     1     -10.995  14.766  66.308  1.00  0.00    -0.330 A  
HETATM   14  C   UNL     1     -10.549  16.069  66.502  1.00  0.00    -0.284 A  
HETATM   15  C   UNL     1     -10.804  16.744  67.696  1.00  0.00    -0.252 A  
HETATM   16  C   UNL     1     -11.983  14.762  68.492  1.00  0.00    -0.284 A  
HETATM   17  C   UNL     1     -11.539  16.083  68.690  1.00  0.00    -0.343 A  
BRANCH  15  18
HETATM   18  N   UNL     1     -10.310  18.044  67.939  1.00  0.00    -0.375 N  
HETATM   19  H   UNL     1     -10.075  18.281  68.902  1.00  0.00     0.000 HD 
HETATM   20  C   UNL     1     -10.116  19.028  66.980  1.00  0.00    -0.364 C  
HETATM   21  O   UNL     1     -10.499  19.008  65.816  1.00  0.00    -0.530 OA 
HETATM   22  C   UNL     1      -9.377  20.231  67.500  1.00  0.00    -0.513 C  
ENDBRANCH  15  18
ENDBRANCH  11  12
ENDBRANCH  10  11
ENDBRANCH   7  10
ENDBRANCH   6   7
ENDBRANCH   4   6
ENDBRANCH   2   4
TORSDOF 7
ENDMDL
MODEL      104
REMARK 921   NORMALIZED FREE ENERGY PREDICTED BY IDOCK:   -4.06 KCAL/MOL
REMARK 922        TOTAL FREE ENERGY PREDICTED BY IDOCK:   -6.56 KCAL/MOL
REMARK 923 INTER-LIGAND FREE ENERGY PREDICTED BY IDOCK:   -5.90 KCAL/MOL
REMARK 924 INTRA-LIGAND FREE ENERGY PREDICTED BY IDOCK:   -0.67 KCAL/MOL
REMARK 927      BINDING AFFINITY PREDICTED BY RF-SCORE:    0.00 PKD
ROOT
HETATM    1  C   UNL     1     -10.510   5.738  66.659  1.00  0.00    -0.330 C  
HETATM    2  C   UNL     1     -11.233   6.646  67.656  1.00  0.00    -0.170 C  
HETATM    3  C   UNL     1     -10.911   6.200  69.085  1.00  0.00    -0.450 C  
ENDROOT
BRANCH   2   4
HETATM    4  N   UNL     1     -10.804   8.023  67.408  1.00  0.00    -0.516 NA 
HETATM    5  H   UNL     1     -10.524   8.475  68.278  1.00  0.00     0.000 HD 
BRANCH   4   6
HETATM    6  C   UNL     1      -9.743   8.134  66.401  1.00  0.00    -0.205 C  
BRANCH   6   7
HETATM    7  C   UNL     1      -9.445   9.618  66.131  1.00  0.00    -0.217 C  
HETATM    8  H   UNL     1      -9.898  10.955  64.752  1.00  0.00     0.000 HD 
HETATM    9  O   UNL     1     -10.083  10.038  64.919  1.00  0.00    -0.316 OA 
BRANCH   7  10
HETATM   10  C   UNL     1      -9.899  10.492  67.301  1.00  0.00    -0.177 C  
BRANCH  10  11
HETATM   11  O   UNL     1     -11.092  11.227  66.968  1.00  0.00    -0.286 OA 
BRANCH  11  12
HETATM   12  C   UNL     1     -10.964  12.590  67.107  1.00  0.00    -0.263 A  
HETATM   13  C   UNL     1     -11.782  13.372  67.913  1.00  0.00    -0.396 A  
HETATM   14  C   UNL     1     -11.642  14.755  67.951  1.00  0.00    -0.373 A  
HETATM   15  C   UNL     1     -10.660  15.398  67.197  1.00  0.00    -0.305 A  
HETATM   16  C   UNL     1      -9.953  13.215  66.372  1.00  0.00    -0.282 A  
HETATM   17  C   UNL     1      -9.803  14.614  66.412  1.00  0.00    -0.302 A  
BRANCH  15  18
HETATM   18  N   UNL     1     -10.538  16.805  67.173  1.00  0.00    -0.294 N  
HETATM   19  H   UNL     1     -11.024  17.302  66.428  1.00  0.00     0.000 HD 
HETATM   20  C   UNL     1      -9.814  17.570  68.077  1.00  0.00    -0.299 C  
HETATM   21  O   UNL     1      -9.025  17.161  68.922  1.00  0.00    -0.261 OA 
HETATM   22  C   UNL     1     -10.045  19.048  67.928  1.00  0.00    -0.455 C  
ENDBRANCH  15  18
ENDBRANCH  11  12
ENDBRANCH  10  11
ENDBRANCH   7  10
ENDBRANCH   6   7
ENDBRANCH   4   6
ENDBRANCH   2   4
TORSDOF 7
ENDMDL
MODEL      105
REMARK 921   NORMALIZED FREE ENERGY PREDICTED BY IDOCK:   -4.05 KCAL/MOL
REMARK 922        TOTAL FREE ENERGY PREDICTED BY IDOCK:   -6.55 KCAL/MOL
REMARK 923 INTER-LIGAND FREE ENERGY PREDICTED BY IDOCK:   -5.65 KCAL/MOL
REMARK 924 INTRA-LIGAND FREE ENERGY PREDICTED BY IDOCK:   -0.90 KCAL/MOL
REMARK 927      BINDING AFFINITY PREDICTED BY RF-SCORE:    0.00 PKD
ROOT
HETATM    1  C   UNL     1      -8.783   8.344  67.872  1.00  0.00    -0.138 C  
HETATM    2  C   UNL     1      -8.515   7.725  69.244  1.00  0.00    -0.138 C  
HETATM    3  C   UNL     1      -8.364   8.834  70.289  1.00  0.00    -0.139 C  
ENDROOT
BRANCH   2   4
HETATM    4  N   UNL     1      -9.627   6.828  69.562  1.00  0.00    -0.148 NA 
HETATM    5  H   UNL     1      -9.588   5.988  68.986  1.00  0.00     0.000 HD 
BRANCH   4   6
HETATM    6  C   UNL     1      -9.711   6.479  70.984  1.00  0.00    -0.175 C  
BRANCH   6   7
HETATM    7  C   UNL     1     -11.174   6.195  71.358  1.00  0.00    -0.287 C  
HETATM    8  H   UNL     1     -12.140   5.189  72.755  1.00  0.00     0.000 HD 
HETATM    9  O   UNL     1     -11.235   5.364  72.524  1.00  0.00    -0.262 OA 
BRANCH   7  10
HETATM   10  C   UNL     1     -11.945   7.495  71.591  1.00  0.00    -0.302 C  
BRANCH  10  11
HETATM   11  O   UNL     1     -11.714   8.434  70.524  1.00  0.00    -0.208 OA 
BRANCH  11  12
HETATM   12  C   UNL     1     -12.083   9.725  70.828  1.00  0.00    -0.279 A  
HETATM   13  C   UNL     1     -13.030  10.060  71.787  1.00  0.00    -0.560 A  
HETATM   14  C   UNL     1     -13.406  11.383  71.994  1.00  0.00    -0.388 A  
HETATM   15  C   UNL     1     -12.826  12.417  71.258  1.00  0.00    -0.240 A  
HETATM   16  C   UNL     1     -11.467  10.751  70.106  1.00  0.00    -0.415 A  
HETATM   17  C   UNL     1     -11.840  12.092  70.316  1.00  0.00    -0.339 A  
BRANCH  15  18
HETATM   18  N   UNL     1     -13.236  13.760  71.408  1.00  0.00    -0.327 N  
HETATM   19  H   UNL     1     -13.657  14.212  70.597  1.00  0.00     0.000 HD 
HETATM   20  C   UNL     1     -13.113  14.519  72.563  1.00  0.00    -0.431 C  
HETATM   21  O   UNL     1     -12.482  14.228  73.572  1.00  0.00    -0.300 OA 
HETATM   22  C   UNL     1     -13.831  15.839  72.488  1.00  0.00    -0.572 C  
ENDBRANCH  15  18
ENDBRANCH  11  12
ENDBRANCH  10  11
ENDBRANCH   7  10
ENDBRANCH   6   7
ENDBRANCH   4   6
ENDBRANCH   2   4
TORSDOF 7
ENDMDL
MODEL      106
REMARK 921   NORMALIZED FREE ENERGY PREDICTED BY IDOCK:   -4.04 KCAL/MOL
REMARK 922        TOTAL FREE ENERGY PREDICTED BY IDOCK:   -6.54 KCAL/MOL
REMARK 923 INTER-LIGAND FREE ENERGY PREDICTED BY IDOCK:   -5.72 KCAL/MOL
REMARK 924 INTRA-LIGAND FREE ENERGY PREDICTED BY IDOCK:   -0.81 KCAL/MOL
REMARK 927      BINDING AFFINITY PREDICTED BY RF-SCORE:    0.00 PKD
ROOT
HETATM    1  C   UNL     1      -7.838   9.092  64.477  1.00  0.00    -0.120 C  
HETATM    2  C   UNL     1      -8.880  10.197  64.656  1.00  0.00    -0.196 C  
HETATM    3  C   UNL     1      -9.469  10.576  63.295  1.00  0.00    -0.360 C  
ENDROOT
BRANCH   2   4
HETATM    4  N   UNL     1      -9.908   9.704  65.574  1.00  0.00    -0.344 NA 
HETATM    5  H   UNL     1      -9.960   8.686  65.543  1.00  0.00     0.000 HD 
BRANCH   4   6
HETATM    6  C   UNL     1      -9.738  10.173  66.952  1.00  0.00    -0.187 C  
BRANCH   6   7
HETATM    7  C   UNL     1     -11.117  10.414  67.588  1.00  0.00    -0.293 C  
HETATM    8  H   UNL     1     -11.893  10.407  69.402  1.00  0.00     0.000 HD 
HETATM    9  O   UNL     1     -11.040  10.259  69.010  1.00  0.00    -0.225 OA 
BRANCH   7  10
HETATM   10  C   UNL     1     -11.652  11.801  67.232  1.00  0.00    -0.269 C  
BRANCH  10  11
HETATM   11  O   UNL     1     -11.127  12.253  65.969  1.00  0.00    -0.284 OA 
BRANCH  11  12
HETATM   12  C   UNL     1     -10.612  13.529  66.004  1.00  0.00    -0.285 A  
HETATM   13  C   UNL     1      -9.555  13.921  66.816  1.00  0.00    -0.288 A  
HETATM   14  C   UNL     1      -9.131  15.245  66.853  1.00  0.00    -0.263 A  
HETATM   15  C   UNL     1      -9.740  16.216  66.057  1.00  0.00    -0.344 A  
HETATM   16  C   UNL     1     -11.210  14.482  65.175  1.00  0.00    -0.367 A  
HETATM   17  C   UNL     1     -10.780  15.821  65.204  1.00  0.00    -0.455 A  
BRANCH  15  18
HETATM   18  N   UNL     1      -9.367  17.576  66.122  1.00  0.00    -0.195 N  
HETATM   19  H   UNL     1      -8.562  17.866  65.568  1.00  0.00     0.000 HD 
HETATM   20  C   UNL     1     -10.001  18.554  66.876  1.00  0.00    -0.349 C  
HETATM   21  O   UNL     1     -10.857  18.381  67.736  1.00  0.00    -0.384 OA 
HETATM   22  C   UNL     1      -9.516  19.946  66.578  1.00  0.00    -0.516 C  
ENDBRANCH  15  18
ENDBRANCH  11  12
ENDBRANCH  10  11
ENDBRANCH   7  10
ENDBRANCH   6   7
ENDBRANCH   4   6
ENDBRANCH   2   4
TORSDOF 7
ENDMDL
MODEL      107
REMARK 921   NORMALIZED FREE ENERGY PREDICTED BY IDOCK:   -4.03 KCAL/MOL
REMARK 922        TOTAL FREE ENERGY PREDICTED BY IDOCK:   -6.52 KCAL/MOL
REMARK 923 INTER-LIGAND FREE ENERGY PREDICTED BY IDOCK:   -5.98 KCAL/MOL
REMARK 924 INTRA-LIGAND FREE ENERGY PREDICTED BY IDOCK:   -0.54 KCAL/MOL
REMARK 927      BINDING AFFINITY PREDICTED BY RF-SCORE:    0.00 PKD
ROOT
HETATM    1  C   UNL     1      -9.706   4.687  70.590  1.00  0.00    -0.277 C  
HETATM    2  C   UNL     1      -9.902   6.128  70.118  1.00  0.00    -0.171 C  
HETATM    3  C   UNL     1     -11.308   6.292  69.535  1.00  0.00    -0.475 C  
ENDROOT
BRANCH   2   4
HETATM    4  N   UNL     1      -9.682   7.013  71.262  1.00  0.00    -0.171 NA 
HETATM    5  H   UNL     1      -8.847   7.581  71.123  1.00  0.00     0.000 HD 
BRANCH   4   6
HETATM    6  C   UNL     1     -10.838   7.859  71.580  1.00  0.00    -0.229 C  
BRANCH   6   7
HETATM    7  C   UNL     1     -10.464   9.336  71.378  1.00  0.00    -0.338 C  
HETATM    8  H   UNL     1      -8.867  10.362  70.837  1.00  0.00     0.000 HD 
HETATM    9  O   UNL     1      -9.098   9.449  70.961  1.00  0.00    -0.216 OA 
BRANCH   7  10
HETATM   10  C   UNL     1     -11.388  10.004  70.359  1.00  0.00    -0.320 C  
BRANCH  10  11
HETATM   11  O   UNL     1     -12.079  11.125  70.940  1.00  0.00    -0.346 OA 
BRANCH  11  12
HETATM   12  C   UNL     1     -11.965  12.288  70.213  1.00  0.00    -0.290 A  
HETATM   13  C   UNL     1     -11.449  12.355  68.925  1.00  0.00    -0.355 A  
HETATM   14  C   UNL     1     -11.297  13.574  68.274  1.00  0.00    -0.328 A  
HETATM   15  C   UNL     1     -11.678  14.768  68.888  1.00  0.00    -0.309 A  
HETATM   16  C   UNL     1     -12.384  13.471  70.829  1.00  0.00    -0.440 A  
HETATM   17  C   UNL     1     -12.237  14.706  70.172  1.00  0.00    -0.391 A  
BRANCH  15  18
HETATM   18  N   UNL     1     -11.477  16.022  68.271  1.00  0.00    -0.334 N  
HETATM   19  H   UNL     1     -12.232  16.381  67.687  1.00  0.00     0.000 HD 
HETATM   20  C   UNL     1     -10.341  16.809  68.392  1.00  0.00    -0.319 C  
HETATM   21  O   UNL     1      -9.269  16.484  68.890  1.00  0.00    -0.247 OA 
HETATM   22  C   UNL     1     -10.501  18.183  67.801  1.00  0.00    -0.421 C  
ENDBRANCH  15  18
ENDBRANCH  11  12
ENDBRANCH  10  11
ENDBRANCH   7  10
ENDBRANCH   6   7
ENDBRANCH   4   6
ENDBRANCH   2   4
TORSDOF 7
ENDMDL
MODEL      108
REMARK 921   NORMALIZED FREE ENERGY PREDICTED BY IDOCK:   -4.01 KCAL/MOL
REMARK 922        TOTAL FREE ENERGY PREDICTED BY IDOCK:   -6.49 KCAL/MOL
REMARK 923 INTER-LIGAND FREE ENERGY PREDICTED BY IDOCK:   -5.15 KCAL/MOL
REMARK 924 INTRA-LIGAND FREE ENERGY PREDICTED BY IDOCK:   -1.34 KCAL/MOL
REMARK 927      BINDING AFFINITY PREDICTED BY RF-SCORE:    0.00 PKD
ROOT
HETATM    1  C   UNL     1     -11.795  11.905  68.712  1.00  0.00    -0.371 C  
HETATM    2  C   UNL     1     -11.956  13.053  67.715  1.00  0.00    -0.295 C  
HETATM    3  C   UNL     1     -10.719  13.953  67.761  1.00  0.00    -0.252 C  
ENDROOT
BRANCH   2   4
HETATM    4  N   UNL     1     -12.156  12.474  66.386  1.00  0.00    -0.597 NA 
HETATM    5  H   UNL     1     -12.948  11.831  66.388  1.00  0.00     0.000 HD 
BRANCH   4   6
HETATM    6  C   UNL     1     -12.306  13.477  65.326  1.00  0.00    -0.467 C  
BRANCH   6   7
HETATM    7  C   UNL     1     -11.321  13.170  64.186  1.00  0.00    -0.398 C  
HETATM    8  H   UNL     1      -9.521  13.762  63.634  1.00  0.00     0.000 HD 
HETATM    9  O   UNL     1     -10.129  13.951  64.339  1.00  0.00    -0.299 OA 
BRANCH   7  10
HETATM   10  C   UNL     1     -10.978  11.681  64.140  1.00  0.00    -0.376 C  
BRANCH  10  11
HETATM   11  O   UNL     1      -9.605  11.452  64.512  1.00  0.00    -0.231 OA 
BRANCH  11  12
HETATM   12  C   UNL     1      -9.455  10.756  65.689  1.00  0.00    -0.209 A  
HETATM   13  C   UNL     1      -8.565  11.110  66.696  1.00  0.00    -0.165 A  
HETATM   14  C   UNL     1      -8.413  10.320  67.831  1.00  0.00    -0.118 A  
HETATM   15  C   UNL     1      -9.167   9.158  68.002  1.00  0.00    -0.134 A  
HETATM   16  C   UNL     1     -10.242   9.614  65.861  1.00  0.00    -0.219 A  
HETATM   17  C   UNL     1     -10.096   8.815  67.010  1.00  0.00    -0.335 A  
BRANCH  15  18
HETATM   18  N   UNL     1      -8.986   8.309  69.116  1.00  0.00    -0.147 N  
HETATM   19  H   UNL     1      -8.392   7.491  68.987  1.00  0.00     0.000 HD 
HETATM   20  C   UNL     1      -9.549   8.491  70.372  1.00  0.00    -0.172 C  
HETATM   21  O   UNL     1     -10.421   9.295  70.678  1.00  0.00    -0.221 OA 
HETATM   22  C   UNL     1      -9.006   7.550  71.411  1.00  0.00    -0.140 C  
ENDBRANCH  15  18
ENDBRANCH  11  12
ENDBRANCH  10  11
ENDBRANCH   7  10
ENDBRANCH   6   7
ENDBRANCH   4   6
ENDBRANCH   2   4
TORSDOF 7
ENDMDL
MODEL      109
REMARK 921   NORMALIZED FREE ENERGY PREDICTED BY IDOCK:   -3.98 KCAL/MOL
REMARK 922        TOTAL FREE ENERGY PREDICTED BY IDOCK:   -6.45 KCAL/MOL
REMARK 923 INTER-LIGAND FREE ENERGY PREDICTED BY IDOCK:   -5.96 KCAL/MOL
REMARK 924 INTRA-LIGAND FREE ENERGY PREDICTED BY IDOCK:   -0.50 KCAL/MOL
REMARK 927      BINDING AFFINITY PREDICTED BY RF-SCORE:    0.00 PKD
ROOT
HETATM    1  C   UNL     1      -9.494   7.001  68.955  1.00  0.00    -0.137 C  
HETATM    2  C   UNL     1      -9.863   7.127  67.476  1.00  0.00    -0.151 C  
HETATM    3  C   UNL     1     -10.241   5.752  66.920  1.00  0.00    -0.265 C  
ENDROOT
BRANCH   2   4
HETATM    4  N   UNL     1     -10.969   8.079  67.365  1.00  0.00    -0.495 NA 
HETATM    5  H   UNL     1     -11.858   7.624  67.573  1.00  0.00     0.000 HD 
BRANCH   4   6
HETATM    6  C   UNL     1     -10.795   9.279  68.190  1.00  0.00    -0.090 C  
BRANCH   6   7
HETATM    7  C   UNL     1     -11.117  10.528  67.355  1.00  0.00    -0.252 C  
HETATM    8  H   UNL     1     -12.325  12.083  67.488  1.00  0.00     0.000 HD 
HETATM    9  O   UNL     1     -12.126  11.311  68.005  1.00  0.00    -0.638 OA 
BRANCH   7  10
HETATM   10  C   UNL     1      -9.863  11.369  67.117  1.00  0.00    -0.190 C  
BRANCH  10  11
HETATM   11  O   UNL     1     -10.008  12.199  65.949  1.00  0.00    -0.236 OA 
BRANCH  11  12
HETATM   12  C   UNL     1     -10.077  13.545  66.226  1.00  0.00    -0.298 A  
HETATM   13  C   UNL     1      -9.832  14.097  67.477  1.00  0.00    -0.235 A  
HETATM   14  C   UNL     1      -9.989  15.460  67.704  1.00  0.00    -0.225 A  
HETATM   15  C   UNL     1     -10.376  16.319  66.675  1.00  0.00    -0.302 A  
HETATM   16  C   UNL     1     -10.433  14.396  65.176  1.00  0.00    -0.437 A  
HETATM   17  C   UNL     1     -10.587  15.777  65.399  1.00  0.00    -0.441 A  
BRANCH  15  18
HETATM   18  N   UNL     1     -10.601  17.696  66.896  1.00  0.00    -0.285 N  
HETATM   19  H   UNL     1     -11.533  17.973  67.200  1.00  0.00     0.000 HD 
HETATM   20  C   UNL     1      -9.662  18.704  66.735  1.00  0.00    -0.329 C  
HETATM   21  O   UNL     1      -8.557  18.606  66.213  1.00  0.00    -0.371 OA 
HETATM   22  C   UNL     1     -10.125  20.039  67.251  1.00  0.00    -0.577 C  
ENDBRANCH  15  18
ENDBRANCH  11  12
ENDBRANCH  10  11
ENDBRANCH   7  10
ENDBRANCH   6   7
ENDBRANCH   4   6
ENDBRANCH   2   4
TORSDOF 7
ENDMDL
MODEL      110
REMARK 921   NORMALIZED FREE ENERGY PREDICTED BY IDOCK:   -3.97 KCAL/MOL
REMARK 922        TOTAL FREE ENERGY PREDICTED BY IDOCK:   -6.44 KCAL/MOL
REMARK 923 INTER-LIGAND FREE ENERGY PREDICTED BY IDOCK:   -5.58 KCAL/MOL
REMARK 924 INTRA-LIGAND FREE ENERGY PREDICTED BY IDOCK:   -0.86 KCAL/MOL
REMARK 927      BINDING AFFINITY PREDICTED BY RF-SCORE:    0.00 PKD
ROOT
HETATM    1  C   UNL     1      -7.908  15.040  67.221  1.00  0.00    -0.241 C  
HETATM    2  C   UNL     1      -7.075  15.856  68.212  1.00  0.00    -0.116 C  
HETATM    3  C   UNL     1      -6.075  16.727  67.449  1.00  0.00    -0.189 C  
ENDROOT
BRANCH   2   4
HETATM    4  N   UNL     1      -7.993  16.662  69.017  1.00  0.00    -0.235 NA 
HETATM    5  H   UNL     1      -7.519  17.033  69.840  1.00  0.00     0.000 HD 
BRANCH   4   6
HETATM    6  C   UNL     1      -8.644  17.739  68.264  1.00  0.00    -0.277 C  
BRANCH   6   7
HETATM    7  C   UNL     1     -10.115  17.849  68.692  1.00  0.00    -0.394 C  
HETATM    8  H   UNL     1     -11.816  18.438  67.883  1.00  0.00     0.000 HD 
HETATM    9  O   UNL     1     -10.907  18.370  67.618  1.00  0.00    -0.406 OA 
BRANCH   7  10
HETATM   10  C   UNL     1     -10.660  16.494  69.145  1.00  0.00    -0.319 C  
BRANCH  10  11
HETATM   11  O   UNL     1     -11.537  15.929  68.153  1.00  0.00    -0.329 OA 
BRANCH  11  12
HETATM   12  C   UNL     1     -11.449  14.560  68.045  1.00  0.00    -0.321 A  
HETATM   13  C   UNL     1     -11.417  13.873  66.838  1.00  0.00    -0.370 A  
HETATM   14  C   UNL     1     -11.398  12.483  66.803  1.00  0.00    -0.390 A  
HETATM   15  C   UNL     1     -11.388  11.735  67.980  1.00  0.00    -0.288 A  
HETATM   16  C   UNL     1     -11.404  13.827  69.234  1.00  0.00    -0.325 A  
HETATM   17  C   UNL     1     -11.379  12.420  69.204  1.00  0.00    -0.327 A  
BRANCH  15  18
HETATM   18  N   UNL     1     -11.431  10.324  67.969  1.00  0.00    -0.497 N  
HETATM   19  H   UNL     1     -12.350   9.885  68.001  1.00  0.00     0.000 HD 
HETATM   20  C   UNL     1     -10.329   9.482  67.919  1.00  0.00    -0.227 C  
HETATM   21  O   UNL     1      -9.153   9.799  68.056  1.00  0.00    -0.125 OA 
HETATM   22  C   UNL     1     -10.690   8.038  67.701  1.00  0.00    -0.203 C  
ENDBRANCH  15  18
ENDBRANCH  11  12
ENDBRANCH  10  11
ENDBRANCH   7  10
ENDBRANCH   6   7
ENDBRANCH   4   6
ENDBRANCH   2   4
TORSDOF 7
ENDMDL
MODEL      111
REMARK 921   NORMALIZED FREE ENERGY PREDICTED BY IDOCK:   -3.97 KCAL/MOL
REMARK 922        TOTAL FREE ENERGY PREDICTED BY IDOCK:   -6.43 KCAL/MOL
REMARK 923 INTER-LIGAND FREE ENERGY PREDICTED BY IDOCK:   -5.91 KCAL/MOL
REMARK 924 INTRA-LIGAND FREE ENERGY PREDICTED BY IDOCK:   -0.52 KCAL/MOL
REMARK 927      BINDING AFFINITY PREDICTED BY RF-SCORE:    0.00 PKD
ROOT
HETATM    1  C   UNL     1      -7.825   9.827  69.995  1.00  0.00    -0.188 C  
HETATM    2  C   UNL     1      -9.218   9.743  69.369  1.00  0.00    -0.205 C  
HETATM    3  C   UNL     1     -10.106   8.822  70.209  1.00  0.00    -0.214 C  
ENDROOT
BRANCH   2   4
HETATM    4  N   UNL     1      -9.762  11.099  69.292  1.00  0.00    -0.424 NA 
HETATM    5  H   UNL     1      -9.076  11.781  69.614  1.00  0.00     0.000 HD 
BRANCH   4   6
HETATM    6  C   UNL     1     -10.262  11.456  67.960  1.00  0.00    -0.185 C  
BRANCH   6   7
HETATM    7  C   UNL     1     -11.705  11.973  68.075  1.00  0.00    -0.331 C  
HETATM    8  H   UNL     1     -13.376  11.410  68.960  1.00  0.00     0.000 HD 
HETATM    9  O   UNL     1     -12.485  11.090  68.890  1.00  0.00    -0.460 OA 
BRANCH   7  10
HETATM   10  C   UNL     1     -11.738  13.391  68.647  1.00  0.00    -0.349 C  
BRANCH  10  11
HETATM   11  O   UNL     1     -12.081  14.353  67.632  1.00  0.00    -0.363 OA 
BRANCH  11  12
HETATM   12  C   UNL     1     -11.216  15.421  67.560  1.00  0.00    -0.302 A  
HETATM   13  C   UNL     1     -10.211  15.546  66.608  1.00  0.00    -0.280 A  
HETATM   14  C   UNL     1      -9.325  16.618  66.636  1.00  0.00    -0.272 A  
HETATM   15  C   UNL     1      -9.432  17.613  67.609  1.00  0.00    -0.258 A  
HETATM   16  C   UNL     1     -11.359  16.426  68.520  1.00  0.00    -0.289 A  
HETATM   17  C   UNL     1     -10.469  17.515  68.549  1.00  0.00    -0.361 A  
BRANCH  15  18
HETATM   18  N   UNL     1      -8.508  18.677  67.694  1.00  0.00    -0.265 N  
HETATM   19  H   UNL     1      -7.604  18.476  68.120  1.00  0.00     0.000 HD 
HETATM   20  C   UNL     1      -8.724  19.973  67.249  1.00  0.00    -0.343 C  
HETATM   21  O   UNL     1      -9.788  20.458  66.881  1.00  0.00    -0.441 OA 
HETATM   22  C   UNL     1      -7.487  20.827  67.276  1.00  0.00    -0.381 C  
ENDBRANCH  15  18
ENDBRANCH  11  12
ENDBRANCH  10  11
ENDBRANCH   7  10
ENDBRANCH   6   7
ENDBRANCH   4   6
ENDBRANCH   2   4
TORSDOF 7
ENDMDL
MODEL      112
REMARK 921   NORMALIZED FREE ENERGY PREDICTED BY IDOCK:   -3.95 KCAL/MOL
REMARK 922        TOTAL FREE ENERGY PREDICTED BY IDOCK:   -6.40 KCAL/MOL
REMARK 923 INTER-LIGAND FREE ENERGY PREDICTED BY IDOCK:   -5.82 KCAL/MOL
REMARK 924 INTRA-LIGAND FREE ENERGY PREDICTED BY IDOCK:   -0.59 KCAL/MOL
REMARK 927      BINDING AFFINITY PREDICTED BY RF-SCORE:    0.00 PKD
ROOT
HETATM    1  C   UNL     1     -10.301   4.545  72.143  1.00  0.00    -0.233 C  
HETATM    2  C   UNL     1     -11.129   5.452  73.056  1.00  0.00    -0.313 C  
HETATM    3  C   UNL     1     -10.313   5.815  74.298  1.00  0.00    -0.285 C  
ENDROOT
BRANCH   2   4
HETATM    4  N   UNL     1     -11.509   6.639  72.290  1.00  0.00    -0.275 NA 
HETATM    5  H   UNL     1     -12.513   6.644  72.108  1.00  0.00     0.000 HD 
BRANCH   4   6
HETATM    6  C   UNL     1     -11.089   7.898  72.913  1.00  0.00    -0.379 C  
BRANCH   6   7
HETATM    7  C   UNL     1     -10.326   8.751  71.886  1.00  0.00    -0.344 C  
HETATM    8  H   UNL     1      -9.070   8.438  70.397  1.00  0.00     0.000 HD 
HETATM    9  O   UNL     1      -9.541   7.911  71.031  1.00  0.00    -0.159 OA 
BRANCH   7  10
HETATM   10  C   UNL     1     -11.287   9.603  71.057  1.00  0.00    -0.374 C  
BRANCH  10  11
HETATM   11  O   UNL     1     -11.149   9.323  69.651  1.00  0.00    -0.212 OA 
BRANCH  11  12
HETATM   12  C   UNL     1     -11.247  10.436  68.848  1.00  0.00    -0.235 A  
HETATM   13  C   UNL     1     -10.993  10.437  67.482  1.00  0.00    -0.358 A  
HETATM   14  C   UNL     1     -11.041  11.615  66.743  1.00  0.00    -0.366 A  
HETATM   15  C   UNL     1     -11.369  12.828  67.348  1.00  0.00    -0.313 A  
HETATM   16  C   UNL     1     -11.611  11.637  69.463  1.00  0.00    -0.397 A  
HETATM   17  C   UNL     1     -11.667  12.830  68.718  1.00  0.00    -0.363 A  
BRANCH  15  18
HETATM   18  N   UNL     1     -11.365  14.045  66.631  1.00  0.00    -0.324 N  
HETATM   19  H   UNL     1     -12.269  14.416  66.338  1.00  0.00     0.000 HD 
HETATM   20  C   UNL     1     -10.239  14.779  66.290  1.00  0.00    -0.298 C  
HETATM   21  O   UNL     1      -9.070  14.423  66.387  1.00  0.00    -0.243 OA 
HETATM   22  C   UNL     1     -10.559  16.134  65.721  1.00  0.00    -0.347 C  
ENDBRANCH  15  18
ENDBRANCH  11  12
ENDBRANCH  10  11
ENDBRANCH   7  10
ENDBRANCH   6   7
ENDBRANCH   4   6
ENDBRANCH   2   4
TORSDOF 7
ENDMDL
MODEL      113
REMARK 921   NORMALIZED FREE ENERGY PREDICTED BY IDOCK:   -3.95 KCAL/MOL
REMARK 922        TOTAL FREE ENERGY PREDICTED BY IDOCK:   -6.40 KCAL/MOL
REMARK 923 INTER-LIGAND FREE ENERGY PREDICTED BY IDOCK:   -5.87 KCAL/MOL
REMARK 924 INTRA-LIGAND FREE ENERGY PREDICTED BY IDOCK:   -0.53 KCAL/MOL
REMARK 927      BINDING AFFINITY PREDICTED BY RF-SCORE:    0.00 PKD
ROOT
HETATM    1  C   UNL     1     -11.664  14.568  65.695  1.00  0.00    -0.335 C  
HETATM    2  C   UNL     1     -12.128  13.157  66.060  1.00  0.00    -0.436 C  
HETATM    3  C   UNL     1     -12.146  12.280  64.806  1.00  0.00    -0.436 C  
ENDROOT
BRANCH   2   4
HETATM    4  N   UNL     1     -11.217  12.630  67.077  1.00  0.00    -0.284 NA 
HETATM    5  H   UNL     1     -10.345  13.159  67.089  1.00  0.00     0.000 HD 
BRANCH   4   6
HETATM    6  C   UNL     1     -11.806  12.571  68.418  1.00  0.00    -0.304 C  
BRANCH   6   7
HETATM    7  C   UNL     1     -11.980  11.103  68.839  1.00  0.00    -0.298 C  
HETATM    8  H   UNL     1     -11.407   9.334  68.181  1.00  0.00     0.000 HD 
HETATM    9  O   UNL     1     -11.299  10.241  67.921  1.00  0.00    -0.294 OA 
BRANCH   7  10
HETATM   10  C   UNL     1     -11.468  10.875  70.262  1.00  0.00    -0.302 C  
BRANCH  10  11
HETATM   11  O   UNL     1     -10.423   9.884  70.285  1.00  0.00    -0.262 OA 
BRANCH  11  12
HETATM   12  C   UNL     1     -10.723   8.776  71.045  1.00  0.00    -0.229 A  
HETATM   13  C   UNL     1     -10.520   8.693  72.417  1.00  0.00    -0.307 A  
HETATM   14  C   UNL     1     -10.778   7.516  73.111  1.00  0.00    -0.452 A  
HETATM   15  C   UNL     1     -11.271   6.388  72.454  1.00  0.00    -0.277 A  
HETATM   16  C   UNL     1     -11.248   7.667  70.377  1.00  0.00    -0.258 A  
HETATM   17  C   UNL     1     -11.518   6.476  71.076  1.00  0.00    -0.392 A  
BRANCH  15  18
HETATM   18  N   UNL     1     -11.484   5.165  73.126  1.00  0.00    -0.457 N  
HETATM   19  H   UNL     1     -12.405   5.011  73.534  1.00  0.00     0.000 HD 
HETATM   20  C   UNL     1     -10.546   4.153  73.280  1.00  0.00    -0.189 C  
HETATM   21  O   UNL     1      -9.349   4.214  73.028  1.00  0.00    -0.110 OA 
HETATM   22  C   UNL     1     -11.124   2.887  73.850  1.00  0.00    -0.251 C  
ENDBRANCH  15  18
ENDBRANCH  11  12
ENDBRANCH  10  11
ENDBRANCH   7  10
ENDBRANCH   6   7
ENDBRANCH   4   6
ENDBRANCH   2   4
TORSDOF 7
ENDMDL
MODEL      114
REMARK 921   NORMALIZED FREE ENERGY PREDICTED BY IDOCK:   -3.91 KCAL/MOL
REMARK 922        TOTAL FREE ENERGY PREDICTED BY IDOCK:   -6.35 KCAL/MOL
REMARK 923 INTER-LIGAND FREE ENERGY PREDICTED BY IDOCK:   -5.79 KCAL/MOL
REMARK 924 INTRA-LIGAND FREE ENERGY PREDICTED BY IDOCK:   -0.56 KCAL/MOL
REMARK 927      BINDING AFFINITY PREDICTED BY RF-SCORE:    0.00 PKD
ROOT
HETATM    1  C   UNL     1      -6.045  20.923  66.277  1.00  0.00    -0.303 C  
HETATM    2  C   UNL     1      -6.488  19.608  65.633  1.00  0.00    -0.242 C  
HETATM    3  C   UNL     1      -5.706  18.445  66.248  1.00  0.00    -0.195 C  
ENDROOT
BRANCH   2   4
HETATM    4  N   UNL     1      -7.929  19.464  65.843  1.00  0.00    -0.441 NA 
HETATM    5  H   UNL     1      -8.173  18.487  66.004  1.00  0.00     0.000 HD 
BRANCH   4   6
HETATM    6  C   UNL     1      -8.453  20.314  66.917  1.00  0.00    -0.285 C  
BRANCH   6   7
HETATM    7  C   UNL     1      -9.162  19.440  67.964  1.00  0.00    -0.327 C  
HETATM    8  H   UNL     1     -10.604  19.660  69.293  1.00  0.00     0.000 HD 
HETATM    9  O   UNL     1     -10.166  20.201  68.647  1.00  0.00    -0.403 OA 
BRANCH   7  10
HETATM   10  C   UNL     1      -9.784  18.201  67.316  1.00  0.00    -0.297 C  
BRANCH  10  11
HETATM   11  O   UNL     1     -10.910  17.727  68.078  1.00  0.00    -0.354 OA 
BRANCH  11  12
HETATM   12  C   UNL     1     -11.136  16.375  67.957  1.00  0.00    -0.292 A  
HETATM   13  C   UNL     1     -11.887  15.626  68.855  1.00  0.00    -0.368 A  
HETATM   14  C   UNL     1     -12.016  14.249  68.710  1.00  0.00    -0.346 A  
HETATM   15  C   UNL     1     -11.412  13.580  67.645  1.00  0.00    -0.318 A  
HETATM   16  C   UNL     1     -10.553  15.725  66.865  1.00  0.00    -0.317 A  
HETATM   17  C   UNL     1     -10.686  14.333  66.711  1.00  0.00    -0.287 A  
BRANCH  15  18
HETATM   18  N   UNL     1     -11.478  12.175  67.512  1.00  0.00    -0.321 N  
HETATM   19  H   UNL     1     -12.338  11.783  67.129  1.00  0.00     0.000 HD 
HETATM   20  C   UNL     1     -10.474  11.282  67.858  1.00  0.00    -0.188 C  
HETATM   21  O   UNL     1      -9.455  11.529  68.492  1.00  0.00    -0.185 OA 
HETATM   22  C   UNL     1     -10.745   9.875  67.403  1.00  0.00    -0.323 C  
ENDBRANCH  15  18
ENDBRANCH  11  12
ENDBRANCH  10  11
ENDBRANCH   7  10
ENDBRANCH   6   7
ENDBRANCH   4   6
ENDBRANCH   2   4
TORSDOF 7
ENDMDL
MODEL      115
REMARK 921   NORMALIZED FREE ENERGY PREDICTED BY IDOCK:   -3.87 KCAL/MOL
REMARK 922        TOTAL FREE ENERGY PREDICTED BY IDOCK:   -6.30 KCAL/MOL
REMARK 923 INTER-LIGAND FREE ENERGY PREDICTED BY IDOCK:   -5.70 KCAL/MOL
REMARK 924 INTRA-LIGAND FREE ENERGY PREDICTED BY IDOCK:   -0.60 KCAL/MOL
REMARK 927      BINDING AFFINITY PREDICTED BY RF-SCORE:    0.00 PKD
ROOT
HETATM    1  C   UNL     1      -6.627  10.294  63.300  1.00  0.00    -0.112 C  
HETATM    2  C   UNL     1      -7.666   9.983  64.378  1.00  0.00    -0.145 C  
HETATM    3  C   UNL     1      -6.994   9.969  65.753  1.00  0.00    -0.112 C  
ENDROOT
BRANCH   2   4
HETATM    4  N   UNL     1      -8.718  10.998  64.299  1.00  0.00    -0.374 NA 
HETATM    5  H   UNL     1      -9.474  10.686  63.690  1.00  0.00     0.000 HD 
BRANCH   4   6
HETATM    6  C   UNL     1      -9.241  11.404  65.608  1.00  0.00    -0.193 C  
BRANCH   6   7
HETATM    7  C   UNL     1     -10.755  11.146  65.659  1.00  0.00    -0.185 C  
HETATM    8  H   UNL     1     -12.132  10.894  67.050  1.00  0.00     0.000 HD 
HETATM    9  O   UNL     1     -11.196  11.054  67.019  1.00  0.00    -0.308 OA 
BRANCH   7  10
HETATM   10  C   UNL     1     -11.526  12.243  64.923  1.00  0.00    -0.332 C  
BRANCH  10  11
HETATM   11  O   UNL     1     -12.232  13.091  65.848  1.00  0.00    -0.439 OA 
BRANCH  11  12
HETATM   12  C   UNL     1     -11.625  14.307  66.064  1.00  0.00    -0.360 A  
HETATM   13  C   UNL     1     -11.107  15.110  65.055  1.00  0.00    -0.428 A  
HETATM   14  C   UNL     1     -10.443  16.296  65.350  1.00  0.00    -0.365 A  
HETATM   15  C   UNL     1     -10.296  16.726  66.669  1.00  0.00    -0.297 A  
HETATM   16  C   UNL     1     -11.516  14.741  67.388  1.00  0.00    -0.376 A  
HETATM   17  C   UNL     1     -10.850  15.943  67.691  1.00  0.00    -0.312 A  
BRANCH  15  18
HETATM   18  N   UNL     1      -9.573  17.894  66.997  1.00  0.00    -0.276 N  
HETATM   19  H   UNL     1      -8.567  17.798  67.132  1.00  0.00     0.000 HD 
HETATM   20  C   UNL     1     -10.113  19.163  67.153  1.00  0.00    -0.373 C  
HETATM   21  O   UNL     1     -11.302  19.455  67.212  1.00  0.00    -0.208 OA 
HETATM   22  C   UNL     1      -9.074  20.242  67.287  1.00  0.00    -0.504 C  
ENDBRANCH  15  18
ENDBRANCH  11  12
ENDBRANCH  10  11
ENDBRANCH   7  10
ENDBRANCH   6   7
ENDBRANCH   4   6
ENDBRANCH   2   4
TORSDOF 7
ENDMDL
MODEL      116
REMARK 921   NORMALIZED FREE ENERGY PREDICTED BY IDOCK:   -3.86 KCAL/MOL
REMARK 922        TOTAL FREE ENERGY PREDICTED BY IDOCK:   -6.28 KCAL/MOL
REMARK 923 INTER-LIGAND FREE ENERGY PREDICTED BY IDOCK:   -5.79 KCAL/MOL
REMARK 924 INTRA-LIGAND FREE ENERGY PREDICTED BY IDOCK:   -0.49 KCAL/MOL
REMARK 927      BINDING AFFINITY PREDICTED BY RF-SCORE:    0.00 PKD
ROOT
HETATM    1  C   UNL     1      -6.574  18.722  65.433  1.00  0.00    -0.282 C  
HETATM    2  C   UNL     1      -7.442  17.684  66.146  1.00  0.00    -0.299 C  
HETATM    3  C   UNL     1      -7.177  17.737  67.652  1.00  0.00    -0.199 C  
ENDROOT
BRANCH   2   4
HETATM    4  N   UNL     1      -8.842  17.972  65.831  1.00  0.00    -0.485 NA 
HETATM    5  H   UNL     1      -9.060  17.697  64.874  1.00  0.00     0.000 HD 
BRANCH   4   6
HETATM    6  C   UNL     1      -9.791  17.369  66.773  1.00  0.00    -0.296 C  
BRANCH   6   7
HETATM    7  C   UNL     1     -10.830  16.543  65.998  1.00  0.00    -0.069 C  
HETATM    8  H   UNL     1     -11.343  16.269  64.112  1.00  0.00     0.000 HD 
HETATM    9  O   UNL     1     -10.701  16.779  64.591  1.00  0.00    -0.778 OA 
BRANCH   7  10
HETATM   10  C   UNL     1     -10.685  15.051  66.301  1.00  0.00    -0.322 C  
BRANCH  10  11
HETATM   11  O   UNL     1     -11.288  14.250  65.267  1.00  0.00    -0.314 OA 
BRANCH  11  12
HETATM   12  C   UNL     1     -10.965  12.914  65.338  1.00  0.00    -0.278 A  
HETATM   13  C   UNL     1     -11.143  12.127  66.470  1.00  0.00    -0.352 A  
HETATM   14  C   UNL     1     -10.728  10.800  66.495  1.00  0.00    -0.245 A  
HETATM   15  C   UNL     1     -10.141  10.211  65.375  1.00  0.00    -0.272 A  
HETATM   16  C   UNL     1     -10.409  12.329  64.197  1.00  0.00    -0.396 A  
HETATM   17  C   UNL     1      -9.994  10.985  64.215  1.00  0.00    -0.373 A  
BRANCH  15  18
HETATM   18  N   UNL     1      -9.657   8.884  65.397  1.00  0.00    -0.448 N  
HETATM   19  H   UNL     1     -10.342   8.137  65.286  1.00  0.00     0.000 HD 
HETATM   20  C   UNL     1      -8.331   8.509  65.555  1.00  0.00    -0.156 C  
HETATM   21  O   UNL     1      -7.395   9.232  65.878  1.00  0.00    -0.092 OA 
HETATM   22  C   UNL     1      -8.093   7.043  65.320  1.00  0.00    -0.134 C  
ENDBRANCH  15  18
ENDBRANCH  11  12
ENDBRANCH  10  11
ENDBRANCH   7  10
ENDBRANCH   6   7
ENDBRANCH   4   6
ENDBRANCH   2   4
TORSDOF 7
ENDMDL
MODEL      117
REMARK 921   NORMALIZED FREE ENERGY PREDICTED BY IDOCK:   -3.84 KCAL/MOL
REMARK 922        TOTAL FREE ENERGY PREDICTED BY IDOCK:   -6.26 KCAL/MOL
REMARK 923 INTER-LIGAND FREE ENERGY PREDICTED BY IDOCK:   -5.70 KCAL/MOL
REMARK 924 INTRA-LIGAND FREE ENERGY PREDICTED BY IDOCK:   -0.56 KCAL/MOL
REMARK 927      BINDING AFFINITY PREDICTED BY RF-SCORE:    0.00 PKD
ROOT
HETATM    1  C   UNL     1     -10.419  10.754  64.518  1.00  0.00    -0.351 C  
HETATM    2  C   UNL     1     -10.765  11.734  63.396  1.00  0.00    -0.402 C  
HETATM    3  C   UNL     1     -12.286  11.853  63.266  1.00  0.00    -0.487 C  
ENDROOT
BRANCH   2   4
HETATM    4  N   UNL     1     -10.145  13.021  63.712  1.00  0.00    -0.744 NA 
HETATM    5  H   UNL     1      -9.731  13.436  62.878  1.00  0.00     0.000 HD 
BRANCH   4   6
HETATM    6  C   UNL     1     -11.057  13.967  64.363  1.00  0.00    -0.319 C  
BRANCH   6   7
HETATM    7  C   UNL     1     -10.340  14.643  65.543  1.00  0.00    -0.362 C  
HETATM    8  H   UNL     1     -10.455  16.358  66.512  1.00  0.00     0.000 HD 
HETATM    9  O   UNL     1     -10.898  15.941  65.783  1.00  0.00    -0.314 OA 
BRANCH   7  10
HETATM   10  C   UNL     1     -10.428  13.785  66.805  1.00  0.00    -0.270 C  
BRANCH  10  11
HETATM   11  O   UNL     1      -9.121  13.541  67.359  1.00  0.00    -0.199 OA 
BRANCH  11  12
HETATM   12  C   UNL     1      -8.508  14.667  67.859  1.00  0.00    -0.158 A  
HETATM   13  C   UNL     1      -9.068  15.498  68.821  1.00  0.00    -0.207 A  
HETATM   14  C   UNL     1      -8.424  16.660  69.230  1.00  0.00    -0.011 A  
HETATM   15  C   UNL     1      -7.182  17.016  68.702  1.00  0.00    -0.221 A  
HETATM   16  C   UNL     1      -7.249  14.991  67.345  1.00  0.00    -0.224 A  
HETATM   17  C   UNL     1      -6.590  16.163  67.761  1.00  0.00    -0.172 A  
BRANCH  15  18
HETATM   18  N   UNL     1      -6.538  18.221  69.057  1.00  0.00    -0.250 N  
HETATM   19  H   UNL     1      -5.727  18.153  69.671  1.00  0.00     0.000 HD 
HETATM   20  C   UNL     1      -6.913  19.491  68.643  1.00  0.00    -0.322 C  
HETATM   21  O   UNL     1      -7.946  19.801  68.062  1.00  0.00    -0.298 OA 
HETATM   22  C   UNL     1      -5.913  20.556  69.004  1.00  0.00    -0.383 C  
ENDBRANCH  15  18
ENDBRANCH  11  12
ENDBRANCH  10  11
ENDBRANCH   7  10
ENDBRANCH   6   7
ENDBRANCH   4   6
ENDBRANCH   2   4
TORSDOF 7
ENDMDL
MODEL      118
REMARK 921   NORMALIZED FREE ENERGY PREDICTED BY IDOCK:   -3.84 KCAL/MOL
REMARK 922        TOTAL FREE ENERGY PREDICTED BY IDOCK:   -6.26 KCAL/MOL
REMARK 923 INTER-LIGAND FREE ENERGY PREDICTED BY IDOCK:   -5.68 KCAL/MOL
REMARK 924 INTRA-LIGAND FREE ENERGY PREDICTED BY IDOCK:   -0.58 KCAL/MOL
REMARK 927      BINDING AFFINITY PREDICTED BY RF-SCORE:    0.00 PKD
ROOT
HETATM    1  C   UNL     1     -12.119   9.274  71.182  1.00  0.00    -0.389 C  
HETATM    2  C   UNL     1     -12.938   8.637  72.306  1.00  0.00    -0.381 C  
HETATM    3  C   UNL     1     -14.390   8.465  71.852  1.00  0.00    -0.561 C  
ENDROOT
BRANCH   2   4
HETATM    4  N   UNL     1     -12.321   7.354  72.645  1.00  0.00    -0.512 NA 
HETATM    5  H   UNL     1     -12.929   6.813  73.259  1.00  0.00     0.000 HD 
BRANCH   4   6
HETATM    6  C   UNL     1     -11.930   6.563  71.473  1.00  0.00    -0.329 C  
BRANCH   6   7
HETATM    7  C   UNL     1     -10.458   6.141  71.606  1.00  0.00    -0.222 C  
HETATM    8  H   UNL     1      -9.299   5.357  72.998  1.00  0.00     0.000 HD 
HETATM    9  O   UNL     1     -10.209   5.618  72.916  1.00  0.00    -0.176 OA 
BRANCH   7  10
HETATM   10  C   UNL     1     -10.083   5.109  70.541  1.00  0.00    -0.256 C  
BRANCH  10  11
HETATM   11  O   UNL     1      -9.062   5.617  69.662  1.00  0.00    -0.127 OA 
BRANCH  11  12
HETATM   12  C   UNL     1      -9.418   6.772  69.003  1.00  0.00    -0.133 A  
HETATM   13  C   UNL     1     -10.293   6.815  67.924  1.00  0.00    -0.236 A  
HETATM   14  C   UNL     1     -10.554   8.008  67.259  1.00  0.00    -0.360 A  
HETATM   15  C   UNL     1      -9.961   9.203  67.668  1.00  0.00    -0.195 A  
HETATM   16  C   UNL     1      -8.842   7.965  69.447  1.00  0.00    -0.145 A  
HETATM   17  C   UNL     1      -9.108   9.175  68.781  1.00  0.00    -0.136 A  
BRANCH  15  18
HETATM   18  N   UNL     1     -10.163  10.414  66.971  1.00  0.00    -0.215 N  
HETATM   19  H   UNL     1      -9.440  10.699  66.311  1.00  0.00     0.000 HD 
HETATM   20  C   UNL     1     -11.261  11.251  67.106  1.00  0.00    -0.275 C  
HETATM   21  O   UNL     1     -12.137  11.185  67.962  1.00  0.00    -0.635 OA 
HETATM   22  C   UNL     1     -11.303  12.351  66.082  1.00  0.00    -0.398 C  
ENDBRANCH  15  18
ENDBRANCH  11  12
ENDBRANCH  10  11
ENDBRANCH   7  10
ENDBRANCH   6   7
ENDBRANCH   4   6
ENDBRANCH   2   4
TORSDOF 7
ENDMDL
MODEL      119
REMARK 921   NORMALIZED FREE ENERGY PREDICTED BY IDOCK:   -3.83 KCAL/MOL
REMARK 922        TOTAL FREE ENERGY PREDICTED BY IDOCK:   -6.24 KCAL/MOL
REMARK 923 INTER-LIGAND FREE ENERGY PREDICTED BY IDOCK:   -5.75 KCAL/MOL
REMARK 924 INTRA-LIGAND FREE ENERGY PREDICTED BY IDOCK:   -0.50 KCAL/MOL
REMARK 927      BINDING AFFINITY PREDICTED BY RF-SCORE:    0.00 PKD
ROOT
HETATM    1  C   UNL     1     -10.305   7.123  67.724  1.00  0.00    -0.257 C  
HETATM    2  C   UNL     1     -10.160   8.361  68.611  1.00  0.00    -0.193 C  
HETATM    3  C   UNL     1      -8.678   8.710  68.768  1.00  0.00    -0.135 C  
ENDROOT
BRANCH   2   4
HETATM    4  N   UNL     1     -10.912   9.453  67.991  1.00  0.00    -0.497 NA 
HETATM    5  H   UNL     1     -11.191  10.140  68.691  1.00  0.00     0.000 HD 
BRANCH   4   6
HETATM    6  C   UNL     1     -10.201  10.100  66.884  1.00  0.00    -0.236 C  
BRANCH   6   7
HETATM    7  C   UNL     1     -10.600  11.583  66.814  1.00  0.00    -0.250 C  
HETATM    8  H   UNL     1     -12.266  12.637  66.916  1.00  0.00     0.000 HD 
HETATM    9  O   UNL     1     -12.019  11.721  66.959  1.00  0.00    -0.610 OA 
BRANCH   7  10
HETATM   10  C   UNL     1      -9.875  12.400  67.885  1.00  0.00    -0.202 C  
BRANCH  10  11
HETATM   11  O   UNL     1     -10.811  13.099  68.727  1.00  0.00    -0.251 OA 
BRANCH  11  12
HETATM   12  C   UNL     1     -10.594  14.457  68.792  1.00  0.00    -0.254 A  
HETATM   13  C   UNL     1     -11.251  15.310  69.671  1.00  0.00    -0.289 A  
HETATM   14  C   UNL     1     -11.035  16.683  69.635  1.00  0.00    -0.222 A  
HETATM   15  C   UNL     1     -10.134  17.245  68.730  1.00  0.00    -0.337 A  
HETATM   16  C   UNL     1      -9.663  14.999  67.902  1.00  0.00    -0.212 A  
HETATM   17  C   UNL     1      -9.436  16.388  67.867  1.00  0.00    -0.223 A  
BRANCH  15  18
HETATM   18  N   UNL     1      -9.944  18.641  68.634  1.00  0.00    -0.379 N  
HETATM   19  H   UNL     1      -9.599  19.122  69.464  1.00  0.00     0.000 HD 
HETATM   20  C   UNL     1     -10.186  19.415  67.508  1.00  0.00    -0.425 C  
HETATM   21  O   UNL     1     -10.763  19.066  66.485  1.00  0.00    -0.398 OA 
HETATM   22  C   UNL     1      -9.687  20.828  67.636  1.00  0.00    -0.376 C  
ENDBRANCH  15  18
ENDBRANCH  11  12
ENDBRANCH  10  11
ENDBRANCH   7  10
ENDBRANCH   6   7
ENDBRANCH   4   6
ENDBRANCH   2   4
TORSDOF 7
ENDMDL
MODEL      120
REMARK 921   NORMALIZED FREE ENERGY PREDICTED BY IDOCK:   -3.83 KCAL/MOL
REMARK 922        TOTAL FREE ENERGY PREDICTED BY IDOCK:   -6.24 KCAL/MOL
REMARK 923 INTER-LIGAND FREE ENERGY PREDICTED BY IDOCK:   -5.59 KCAL/MOL
REMARK 924 INTRA-LIGAND FREE ENERGY PREDICTED BY IDOCK:   -0.65 KCAL/MOL
REMARK 927      BINDING AFFINITY PREDICTED BY RF-SCORE:    0.00 PKD
ROOT
HETATM    1  C   UNL     1     -11.668  12.032  68.592  1.00  0.00    -0.380 C  
HETATM    2  C   UNL     1     -12.024  13.220  67.697  1.00  0.00    -0.322 C  
HETATM    3  C   UNL     1     -10.915  14.272  67.772  1.00  0.00    -0.275 C  
ENDROOT
BRANCH   2   4
HETATM    4  N   UNL     1     -12.208  12.720  66.334  1.00  0.00    -0.518 NA 
HETATM    5  H   UNL     1     -12.774  11.873  66.334  1.00  0.00     0.000 HD 
BRANCH   4   6
HETATM    6  C   UNL     1     -12.765  13.717  65.415  1.00  0.00    -0.472 C  
BRANCH   6   7
HETATM    7  C   UNL     1     -11.886  13.806  64.158  1.00  0.00    -0.401 C  
HETATM    8  H   UNL     1     -10.108  14.521  63.685  1.00  0.00     0.000 HD 
HETATM    9  O   UNL     1     -10.651  14.466  64.462  1.00  0.00    -0.371 OA 
BRANCH   7  10
HETATM   10  C   UNL     1     -11.616  12.418  63.575  1.00  0.00    -0.497 C  
BRANCH  10  11
HETATM   11  O   UNL     1     -10.204  12.189  63.410  1.00  0.00    -0.433 OA 
BRANCH  11  12
HETATM   12  C   UNL     1      -9.738  11.076  64.071  1.00  0.00    -0.288 A  
HETATM   13  C   UNL     1      -9.776  10.916  65.451  1.00  0.00    -0.287 A  
HETATM   14  C   UNL     1      -9.222   9.794  66.059  1.00  0.00    -0.226 A  
HETATM   15  C   UNL     1      -8.632   8.784  65.300  1.00  0.00    -0.187 A  
HETATM   16  C   UNL     1      -9.181  10.057  63.293  1.00  0.00    -0.317 A  
HETATM   17  C   UNL     1      -8.625   8.917  63.904  1.00  0.00    -0.110 A  
BRANCH  15  18
HETATM   18  N   UNL     1      -8.010   7.666  65.899  1.00  0.00    -0.109 N  
HETATM   19  H   UNL     1      -6.993   7.618  65.851  1.00  0.00     0.000 HD 
HETATM   20  C   UNL     1      -8.664   6.627  66.546  1.00  0.00    -0.135 C  
HETATM   21  O   UNL     1      -9.869   6.408  66.554  1.00  0.00    -0.164 OA 
HETATM   22  C   UNL     1      -7.732   5.694  67.269  1.00  0.00    -0.101 C  
ENDBRANCH  15  18
ENDBRANCH  11  12
ENDBRANCH  10  11
ENDBRANCH   7  10
ENDBRANCH   6   7
ENDBRANCH   4   6
ENDBRANCH   2   4
TORSDOF 7
ENDMDL
MODEL      121
REMARK 921   NORMALIZED FREE ENERGY PREDICTED BY IDOCK:   -3.83 KCAL/MOL
REMARK 922        TOTAL FREE ENERGY PREDICTED BY IDOCK:   -6.24 KCAL/MOL
REMARK 923 INTER-LIGAND FREE ENERGY PREDICTED BY IDOCK:   -5.93 KCAL/MOL
REMARK 924 INTRA-LIGAND FREE ENERGY PREDICTED BY IDOCK:   -0.31 KCAL/MOL
REMARK 927      BINDING AFFINITY PREDICTED BY RF-SCORE:    0.00 PKD
ROOT
HETATM    1  C   UNL     1      -8.836   3.904  70.813  1.00  0.00    -0.137 C  
HETATM    2  C   UNL     1      -9.321   5.355  70.823  1.00  0.00    -0.159 C  
HETATM    3  C   UNL     1     -10.671   5.451  70.109  1.00  0.00    -0.295 C  
ENDROOT
BRANCH   2   4
HETATM    4  N   UNL     1      -9.412   5.792  72.217  1.00  0.00    -0.145 NA 
HETATM    5  H   UNL     1      -8.944   6.689  72.344  1.00  0.00     0.000 HD 
BRANCH   4   6
HETATM    6  C   UNL     1     -10.787   5.847  72.725  1.00  0.00    -0.252 C  
BRANCH   6   7
HETATM    7  C   UNL     1     -11.148   7.301  73.071  1.00  0.00    -0.317 C  
HETATM    8  H   UNL     1     -10.193   9.011  73.306  1.00  0.00     0.000 HD 
HETATM    9  O   UNL     1      -9.969   8.113  73.092  1.00  0.00    -0.282 OA 
BRANCH   7  10
HETATM   10  C   UNL     1     -12.165   7.866  72.077  1.00  0.00    -0.317 C  
BRANCH  10  11
HETATM   11  O   UNL     1     -12.638   9.159  72.498  1.00  0.00    -0.341 OA 
BRANCH  11  12
HETATM   12  C   UNL     1     -12.442  10.154  71.566  1.00  0.00    -0.427 A  
HETATM   13  C   UNL     1     -11.671  10.008  70.420  1.00  0.00    -0.365 A  
HETATM   14  C   UNL     1     -11.457  11.077  69.557  1.00  0.00    -0.370 A  
HETATM   15  C   UNL     1     -12.030  12.325  69.805  1.00  0.00    -0.295 A  
HETATM   16  C   UNL     1     -13.051  11.387  71.812  1.00  0.00    -0.523 A  
HETATM   17  C   UNL     1     -12.843  12.471  70.938  1.00  0.00    -0.177 A  
BRANCH  15  18
HETATM   18  N   UNL     1     -11.778  13.440  68.976  1.00  0.00    -0.302 N  
HETATM   19  H   UNL     1     -11.542  14.319  69.436  1.00  0.00     0.000 HD 
HETATM   20  C   UNL     1     -11.825  13.444  67.589  1.00  0.00    -0.354 C  
HETATM   21  O   UNL     1     -12.259  12.556  66.864  1.00  0.00    -0.511 OA 
HETATM   22  C   UNL     1     -11.301  14.715  66.978  1.00  0.00    -0.362 C  
ENDBRANCH  15  18
ENDBRANCH  11  12
ENDBRANCH  10  11
ENDBRANCH   7  10
ENDBRANCH   6   7
ENDBRANCH   4   6
ENDBRANCH   2   4
TORSDOF 7
ENDMDL
MODEL      122
REMARK 921   NORMALIZED FREE ENERGY PREDICTED BY IDOCK:   -3.81 KCAL/MOL
REMARK 922        TOTAL FREE ENERGY PREDICTED BY IDOCK:   -6.21 KCAL/MOL
REMARK 923 INTER-LIGAND FREE ENERGY PREDICTED BY IDOCK:   -5.73 KCAL/MOL
REMARK 924 INTRA-LIGAND FREE ENERGY PREDICTED BY IDOCK:   -0.48 KCAL/MOL
REMARK 927      BINDING AFFINITY PREDICTED BY RF-SCORE:    0.00 PKD
ROOT
HETATM    1  C   UNL     1      -8.597   4.323  71.391  1.00  0.00    -0.123 C  
HETATM    2  C   UNL     1      -9.485   5.285  70.600  1.00  0.00    -0.168 C  
HETATM    3  C   UNL     1      -9.834   4.667  69.244  1.00  0.00    -0.260 C  
ENDROOT
BRANCH   2   4
HETATM    4  N   UNL     1     -10.682   5.556  71.397  1.00  0.00    -0.243 NA 
HETATM    5  H   UNL     1     -10.431   5.774  72.361  1.00  0.00     0.000 HD 
BRANCH   4   6
HETATM    6  C   UNL     1     -11.537   6.605  70.834  1.00  0.00    -0.361 C  
BRANCH   6   7
HETATM    7  C   UNL     1     -11.938   7.591  71.942  1.00  0.00    -0.301 C  
HETATM    8  H   UNL     1     -11.044   8.549  73.418  1.00  0.00     0.000 HD 
HETATM    9  O   UNL     1     -10.795   7.940  72.733  1.00  0.00    -0.333 OA 
BRANCH   7  10
HETATM   10  C   UNL     1     -12.581   8.848  71.354  1.00  0.00    -0.300 C  
BRANCH  10  11
HETATM   11  O   UNL     1     -11.718   9.991  71.504  1.00  0.00    -0.365 OA 
BRANCH  11  12
HETATM   12  C   UNL     1     -11.696  10.820  70.405  1.00  0.00    -0.351 A  
HETATM   13  C   UNL     1     -12.051  12.163  70.434  1.00  0.00    -0.395 A  
HETATM   14  C   UNL     1     -12.074  12.926  69.272  1.00  0.00    -0.234 A  
HETATM   15  C   UNL     1     -11.719  12.370  68.042  1.00  0.00    -0.356 A  
HETATM   16  C   UNL     1     -11.305  10.257  69.187  1.00  0.00    -0.244 A  
HETATM   17  C   UNL     1     -11.321  11.026  68.009  1.00  0.00    -0.374 A  
BRANCH  15  18
HETATM   18  N   UNL     1     -11.793  13.108  66.840  1.00  0.00    -0.383 N  
HETATM   19  H   UNL     1     -12.723  13.309  66.473  1.00  0.00     0.000 HD 
HETATM   20  C   UNL     1     -10.710  13.582  66.114  1.00  0.00    -0.289 C  
HETATM   21  O   UNL     1      -9.529  13.298  66.283  1.00  0.00    -0.254 OA 
HETATM   22  C   UNL     1     -11.100  14.514  65.001  1.00  0.00    -0.393 C  
ENDBRANCH  15  18
ENDBRANCH  11  12
ENDBRANCH  10  11
ENDBRANCH   7  10
ENDBRANCH   6   7
ENDBRANCH   4   6
ENDBRANCH   2   4
TORSDOF 7
ENDMDL
MODEL      123
REMARK 921   NORMALIZED FREE ENERGY PREDICTED BY IDOCK:   -3.79 KCAL/MOL
REMARK 922        TOTAL FREE ENERGY PREDICTED BY IDOCK:   -6.18 KCAL/MOL
REMARK 923 INTER-LIGAND FREE ENERGY PREDICTED BY IDOCK:   -5.32 KCAL/MOL
REMARK 924 INTRA-LIGAND FREE ENERGY PREDICTED BY IDOCK:   -0.86 KCAL/MOL
REMARK 927      BINDING AFFINITY PREDICTED BY RF-SCORE:    0.00 PKD
ROOT
HETATM    1  C   UNL     1      -6.865  10.179  65.309  1.00  0.00    -0.137 C  
HETATM    2  C   UNL     1      -8.160   9.848  64.564  1.00  0.00    -0.149 C  
HETATM    3  C   UNL     1      -8.958   8.809  65.355  1.00  0.00    -0.211 C  
ENDROOT
BRANCH   2   4
HETATM    4  N   UNL     1      -8.912  11.091  64.388  1.00  0.00    -0.351 NA 
HETATM    5  H   UNL     1      -8.609  11.579  63.546  1.00  0.00     0.000 HD 
BRANCH   4   6
HETATM    6  C   UNL     1     -10.366  10.901  64.383  1.00  0.00    -0.361 C  
BRANCH   6   7
HETATM    7  C   UNL     1     -11.061  12.253  64.610  1.00  0.00    -0.313 C  
HETATM    8  H   UNL     1     -12.375  13.379  63.662  1.00  0.00     0.000 HD 
HETATM    9  O   UNL     1     -11.945  12.544  63.521  1.00  0.00    -0.476 OA 
BRANCH   7  10
HETATM   10  C   UNL     1     -11.827  12.263  65.934  1.00  0.00    -0.354 C  
BRANCH  10  11
HETATM   11  O   UNL     1     -11.041  12.857  66.984  1.00  0.00    -0.260 OA 
BRANCH  11  12
HETATM   12  C   UNL     1     -10.810  12.018  68.051  1.00  0.00    -0.216 A  
HETATM   13  C   UNL     1      -9.629  11.313  68.247  1.00  0.00    -0.193 A  
HETATM   14  C   UNL     1      -9.489  10.427  69.309  1.00  0.00    -0.214 A  
HETATM   15  C   UNL     1     -10.524  10.235  70.225  1.00  0.00    -0.146 A  
HETATM   16  C   UNL     1     -11.844  11.864  68.978  1.00  0.00    -0.368 A  
HETATM   17  C   UNL     1     -11.705  10.973  70.058  1.00  0.00    -0.437 A  
BRANCH  15  18
HETATM   18  N   UNL     1     -10.428   9.297  71.275  1.00  0.00    -0.325 N  
HETATM   19  H   UNL     1      -9.986   9.608  72.140  1.00  0.00     0.000 HD 
HETATM   20  C   UNL     1     -10.882   7.986  71.233  1.00  0.00    -0.232 C  
HETATM   21  O   UNL     1     -11.270   7.373  70.246  1.00  0.00    -0.269 OA 
HETATM   22  C   UNL     1     -10.837   7.296  72.569  1.00  0.00    -0.312 C  
ENDBRANCH  15  18
ENDBRANCH  11  12
ENDBRANCH  10  11
ENDBRANCH   7  10
ENDBRANCH   6   7
ENDBRANCH   4   6
ENDBRANCH   2   4
TORSDOF 7
ENDMDL
MODEL      124
REMARK 921   NORMALIZED FREE ENERGY PREDICTED BY IDOCK:   -3.79 KCAL/MOL
REMARK 922        TOTAL FREE ENERGY PREDICTED BY IDOCK:   -6.18 KCAL/MOL
REMARK 923 INTER-LIGAND FREE ENERGY PREDICTED BY IDOCK:   -5.88 KCAL/MOL
REMARK 924 INTRA-LIGAND FREE ENERGY PREDICTED BY IDOCK:   -0.30 KCAL/MOL
REMARK 927      BINDING AFFINITY PREDICTED BY RF-SCORE:    0.00 PKD
ROOT
HETATM    1  C   UNL     1      -9.932  18.065  68.613  1.00  0.00    -0.396 C  
HETATM    2  C   UNL     1     -10.488  17.927  67.195  1.00  0.00    -0.353 C  
HETATM    3  C   UNL     1     -10.179  19.195  66.395  1.00  0.00    -0.515 C  
ENDROOT
BRANCH   2   4
HETATM    4  N   UNL     1      -9.884  16.741  66.585  1.00  0.00    -0.264 NA 
HETATM    5  H   UNL     1      -9.351  16.213  67.277  1.00  0.00     0.000 HD 
BRANCH   4   6
HETATM    6  C   UNL     1     -10.850  15.875  65.903  1.00  0.00    -0.233 C  
BRANCH   6   7
HETATM    7  C   UNL     1     -11.128  14.634  66.766  1.00  0.00    -0.335 C  
HETATM    8  H   UNL     1     -12.093  14.224  68.438  1.00  0.00     0.000 HD 
HETATM    9  O   UNL     1     -11.922  14.991  67.904  1.00  0.00    -0.291 OA 
BRANCH   7  10
HETATM   10  C   UNL     1     -11.826  13.543  65.953  1.00  0.00    -0.372 C  
BRANCH  10  11
HETATM   11  O   UNL     1     -10.869  12.646  65.359  1.00  0.00    -0.276 OA 
BRANCH  11  12
HETATM   12  C   UNL     1     -10.696  11.473  66.057  1.00  0.00    -0.281 A  
HETATM   13  C   UNL     1     -11.119  11.275  67.366  1.00  0.00    -0.358 A  
HETATM   14  C   UNL     1     -10.849  10.086  68.035  1.00  0.00    -0.311 A  
HETATM   15  C   UNL     1     -10.165   9.047  67.405  1.00  0.00    -0.245 A  
HETATM   16  C   UNL     1     -10.040  10.428  65.399  1.00  0.00    -0.354 A  
HETATM   17  C   UNL     1      -9.771   9.222  66.071  1.00  0.00    -0.359 A  
BRANCH  15  18
HETATM   18  N   UNL     1      -9.826   7.855  68.084  1.00  0.00    -0.163 N  
HETATM   19  H   UNL     1      -9.053   7.900  68.746  1.00  0.00     0.000 HD 
HETATM   20  C   UNL     1     -10.456   6.629  67.927  1.00  0.00    -0.219 C  
HETATM   21  O   UNL     1     -11.272   6.324  67.065  1.00  0.00    -0.336 OA 
HETATM   22  C   UNL     1     -10.021   5.602  68.937  1.00  0.00    -0.222 C  
ENDBRANCH  15  18
ENDBRANCH  11  12
ENDBRANCH  10  11
ENDBRANCH   7  10
ENDBRANCH   6   7
ENDBRANCH   4   6
ENDBRANCH   2   4
TORSDOF 7
ENDMDL
MODEL      125
REMARK 921   NORMALIZED FREE ENERGY PREDICTED BY IDOCK:   -3.77 KCAL/MOL
REMARK 922        TOTAL FREE ENERGY PREDICTED BY IDOCK:   -6.16 KCAL/MOL
REMARK 923 INTER-LIGAND FREE ENERGY PREDICTED BY IDOCK:   -5.48 KCAL/MOL
REMARK 924 INTRA-LIGAND FREE ENERGY PREDICTED BY IDOCK:   -0.68 KCAL/MOL
REMARK 927      BINDING AFFINITY PREDICTED BY RF-SCORE:    0.00 PKD
ROOT
HETATM    1  C   UNL     1      -8.707   8.139  67.053  1.00  0.00    -0.136 C  
HETATM    2  C   UNL     1      -7.782   9.277  66.618  1.00  0.00    -0.093 C  
HETATM    3  C   UNL     1      -6.502   8.696  66.012  1.00  0.00    -0.057 C  
ENDROOT
BRANCH   2   4
HETATM    4  N   UNL     1      -8.508  10.109  65.658  1.00  0.00    -0.147 NA 
HETATM    5  H   UNL     1      -8.648  11.048  66.029  1.00  0.00     0.000 HD 
BRANCH   4   6
HETATM    6  C   UNL     1      -7.879  10.162  64.334  1.00  0.00    -0.138 C  
BRANCH   6   7
HETATM    7  C   UNL     1      -8.930  10.548  63.281  1.00  0.00    -0.229 C  
HETATM    8  H   UNL     1      -9.925   9.648  61.835  1.00  0.00     0.000 HD 
HETATM    9  O   UNL     1      -9.276   9.409  62.485  1.00  0.00    -0.243 OA 
BRANCH   7  10
HETATM   10  C   UNL     1     -10.179  11.136  63.940  1.00  0.00    -0.362 C  
BRANCH  10  11
HETATM   11  O   UNL     1     -10.081  12.568  64.053  1.00  0.00    -0.359 OA 
BRANCH  11  12
HETATM   12  C   UNL     1     -10.617  13.073  65.216  1.00  0.00    -0.304 A  
HETATM   13  C   UNL     1     -11.504  12.380  66.031  1.00  0.00    -0.431 A  
HETATM   14  C   UNL     1     -12.062  12.978  67.156  1.00  0.00    -0.325 A  
HETATM   15  C   UNL     1     -11.731  14.285  67.513  1.00  0.00    -0.384 A  
HETATM   16  C   UNL     1     -10.248  14.371  65.579  1.00  0.00    -0.386 A  
HETATM   17  C   UNL     1     -10.806  14.978  66.720  1.00  0.00    -0.318 A  
BRANCH  15  18
HETATM   18  N   UNL     1     -12.331  14.933  68.615  1.00  0.00    -0.592 N  
HETATM   19  H   UNL     1     -12.823  15.807  68.431  1.00  0.00     0.000 HD 
HETATM   20  C   UNL     1     -12.310  14.483  69.928  1.00  0.00    -0.298 C  
HETATM   21  O   UNL     1     -11.632  13.568  70.381  1.00  0.00    -0.168 OA 
HETATM   22  C   UNL     1     -13.213  15.265  70.841  1.00  0.00    -0.506 C  
ENDBRANCH  15  18
ENDBRANCH  11  12
ENDBRANCH  10  11
ENDBRANCH   7  10
ENDBRANCH   6   7
ENDBRANCH   4   6
ENDBRANCH   2   4
TORSDOF 7
ENDMDL
MODEL      126
REMARK 921   NORMALIZED FREE ENERGY PREDICTED BY IDOCK:   -3.77 KCAL/MOL
REMARK 922        TOTAL FREE ENERGY PREDICTED BY IDOCK:   -6.15 KCAL/MOL
REMARK 923 INTER-LIGAND FREE ENERGY PREDICTED BY IDOCK:   -5.61 KCAL/MOL
REMARK 924 INTRA-LIGAND FREE ENERGY PREDICTED BY IDOCK:   -0.54 KCAL/MOL
REMARK 927      BINDING AFFINITY PREDICTED BY RF-SCORE:    0.00 PKD
ROOT
HETATM    1  C   UNL     1      -9.507   9.675  65.328  1.00  0.00    -0.342 C  
HETATM    2  C   UNL     1      -9.475  10.544  64.070  1.00  0.00    -0.289 C  
HETATM    3  C   UNL     1      -9.034   9.700  62.872  1.00  0.00    -0.260 C  
ENDROOT
BRANCH   2   4
HETATM    4  N   UNL     1     -10.811  11.107  63.874  1.00  0.00    -0.507 NA 
HETATM    5  H   UNL     1     -11.391  10.953  64.699  1.00  0.00     0.000 HD 
BRANCH   4   6
HETATM    6  C   UNL     1     -10.802  12.527  63.505  1.00  0.00    -0.397 C  
BRANCH   6   7
HETATM    7  C   UNL     1     -12.223  13.098  63.624  1.00  0.00    -0.479 C  
HETATM    8  H   UNL     1     -14.046  12.560  63.092  1.00  0.00     0.000 HD 
HETATM    9  O   UNL     1     -13.168  12.207  63.018  1.00  0.00    -0.415 OA 
BRANCH   7  10
HETATM   10  C   UNL     1     -12.594  13.352  65.085  1.00  0.00    -0.440 C  
BRANCH  10  11
HETATM   11  O   UNL     1     -11.671  14.268  65.704  1.00  0.00    -0.343 OA 
BRANCH  11  12
HETATM   12  C   UNL     1     -10.735  13.657  66.508  1.00  0.00    -0.284 A  
HETATM   13  C   UNL     1     -11.010  12.586  67.349  1.00  0.00    -0.297 A  
HETATM   14  C   UNL     1     -10.032  12.062  68.188  1.00  0.00    -0.203 A  
HETATM   15  C   UNL     1      -8.738  12.583  68.194  1.00  0.00    -0.190 A  
HETATM   16  C   UNL     1      -9.435  14.168  66.477  1.00  0.00    -0.303 A  
HETATM   17  C   UNL     1      -8.440  13.637  67.319  1.00  0.00    -0.203 A  
BRANCH  15  18
HETATM   18  N   UNL     1      -7.746  12.108  69.080  1.00  0.00    -0.331 N  
HETATM   19  H   UNL     1      -7.221  12.804  69.608  1.00  0.00     0.000 HD 
HETATM   20  C   UNL     1      -7.423  10.775  69.293  1.00  0.00    -0.135 C  
HETATM   21  O   UNL     1      -7.802   9.812  68.637  1.00  0.00    -0.080 OA 
HETATM   22  C   UNL     1      -6.482  10.567  70.447  1.00  0.00    -0.117 C  
ENDBRANCH  15  18
ENDBRANCH  11  12
ENDBRANCH  10  11
ENDBRANCH   7  10
ENDBRANCH   6   7
ENDBRANCH   4   6
ENDBRANCH   2   4
TORSDOF 7
ENDMDL
MODEL      127
REMARK 921   NORMALIZED FREE ENERGY PREDICTED BY IDOCK:   -3.77 KCAL/MOL
REMARK 922        TOTAL FREE ENERGY PREDICTED BY IDOCK:   -6.15 KCAL/MOL
REMARK 923 INTER-LIGAND FREE ENERGY PREDICTED BY IDOCK:   -5.56 KCAL/MOL
REMARK 924 INTRA-LIGAND FREE ENERGY PREDICTED BY IDOCK:   -0.59 KCAL/MOL
REMARK 927      BINDING AFFINITY PREDICTED BY RF-SCORE:    0.00 PKD
ROOT
HETATM    1  C   UNL     1     -12.462  15.159  70.732  1.00  0.00    -0.429 C  
HETATM    2  C   UNL     1     -12.069  14.771  69.306  1.00  0.00    -0.261 C  
HETATM    3  C   UNL     1     -11.248  15.897  68.673  1.00  0.00    -0.360 C  
ENDROOT
BRANCH   2   4
HETATM    4  N   UNL     1     -11.314  13.519  69.369  1.00  0.00    -0.364 NA 
HETATM    5  H   UNL     1     -11.393  13.098  70.294  1.00  0.00     0.000 HD 
BRANCH   4   6
HETATM    6  C   UNL     1     -11.686  12.557  68.327  1.00  0.00    -0.340 C  
BRANCH   6   7
HETATM    7  C   UNL     1     -11.762  11.147  68.933  1.00  0.00    -0.337 C  
HETATM    8  H   UNL     1     -10.564   9.590  69.126  1.00  0.00     0.000 HD 
HETATM    9  O   UNL     1     -10.517  10.462  68.752  1.00  0.00    -0.178 OA 
BRANCH   7  10
HETATM   10  C   UNL     1     -12.125  11.204  70.418  1.00  0.00    -0.385 C  
BRANCH  10  11
HETATM   11  O   UNL     1     -13.107  10.206  70.751  1.00  0.00    -0.369 OA 
BRANCH  11  12
HETATM   12  C   UNL     1     -12.575   9.066  71.311  1.00  0.00    -0.280 A  
HETATM   13  C   UNL     1     -11.370   9.026  72.001  1.00  0.00    -0.395 A  
HETATM   14  C   UNL     1     -10.857   7.825  72.480  1.00  0.00    -0.386 A  
HETATM   15  C   UNL     1     -11.548   6.627  72.302  1.00  0.00    -0.278 A  
HETATM   16  C   UNL     1     -13.298   7.880  71.154  1.00  0.00    -0.101 A  
HETATM   17  C   UNL     1     -12.785   6.664  71.643  1.00  0.00    -0.280 A  
BRANCH  15  18
HETATM   18  N   UNL     1     -11.018   5.389  72.726  1.00  0.00    -0.259 N  
HETATM   19  H   UNL     1     -11.262   5.074  73.665  1.00  0.00     0.000 HD 
HETATM   20  C   UNL     1     -10.195   4.562  71.975  1.00  0.00    -0.181 C  
HETATM   21  O   UNL     1      -9.648   4.835  70.913  1.00  0.00    -0.153 OA 
HETATM   22  C   UNL     1      -9.968   3.215  72.605  1.00  0.00    -0.219 C  
ENDBRANCH  15  18
ENDBRANCH  11  12
ENDBRANCH  10  11
ENDBRANCH   7  10
ENDBRANCH   6   7
ENDBRANCH   4   6
ENDBRANCH   2   4
TORSDOF 7
ENDMDL
MODEL      128
REMARK 921   NORMALIZED FREE ENERGY PREDICTED BY IDOCK:   -3.76 KCAL/MOL
REMARK 922        TOTAL FREE ENERGY PREDICTED BY IDOCK:   -6.14 KCAL/MOL
REMARK 923 INTER-LIGAND FREE ENERGY PREDICTED BY IDOCK:   -5.79 KCAL/MOL
REMARK 924 INTRA-LIGAND FREE ENERGY PREDICTED BY IDOCK:   -0.34 KCAL/MOL
REMARK 927      BINDING AFFINITY PREDICTED BY RF-SCORE:    0.00 PKD
ROOT
HETATM    1  C   UNL     1     -10.588  20.064  65.809  1.00  0.00    -0.428 C  
HETATM    2  C   UNL     1     -10.092  20.437  67.207  1.00  0.00    -0.363 C  
HETATM    3  C   UNL     1     -10.334  19.271  68.168  1.00  0.00    -0.496 C  
ENDROOT
BRANCH   2   4
HETATM    4  N   UNL     1      -8.670  20.772  67.107  1.00  0.00    -0.555 NA 
HETATM    5  H   UNL     1      -8.338  21.191  67.976  1.00  0.00     0.000 HD 
BRANCH   4   6
HETATM    6  C   UNL     1      -7.826  19.637  66.722  1.00  0.00    -0.282 C  
BRANCH   6   7
HETATM    7  C   UNL     1      -6.644  19.522  67.698  1.00  0.00    -0.218 C  
HETATM    8  H   UNL     1      -6.328  19.803  69.625  1.00  0.00     0.000 HD 
HETATM    9  O   UNL     1      -7.059  19.875  69.023  1.00  0.00    -0.325 OA 
BRANCH   7  10
HETATM   10  C   UNL     1      -6.054  18.111  67.684  1.00  0.00    -0.166 C  
BRANCH  10  11
HETATM   11  O   UNL     1      -6.591  17.313  68.755  1.00  0.00    -0.177 OA 
BRANCH  11  12
HETATM   12  C   UNL     1      -7.538  16.400  68.349  1.00  0.00    -0.178 A  
HETATM   13  C   UNL     1      -7.277  15.328  67.504  1.00  0.00    -0.224 A  
HETATM   14  C   UNL     1      -8.296  14.485  67.077  1.00  0.00    -0.195 A  
HETATM   15  C   UNL     1      -9.611  14.676  67.503  1.00  0.00    -0.206 A  
HETATM   16  C   UNL     1      -8.844  16.585  68.812  1.00  0.00    -0.255 A  
HETATM   17  C   UNL     1      -9.878  15.730  68.388  1.00  0.00    -0.206 A  
BRANCH  15  18
HETATM   18  N   UNL     1     -10.672  13.870  67.035  1.00  0.00    -0.282 N  
HETATM   19  H   UNL     1     -11.181  13.322  67.727  1.00  0.00     0.000 HD 
HETATM   20  C   UNL     1     -11.082  13.759  65.714  1.00  0.00    -0.289 C  
HETATM   21  O   UNL     1     -10.498  14.184  64.723  1.00  0.00    -0.420 OA 
HETATM   22  C   UNL     1     -12.369  12.998  65.550  1.00  0.00    -0.527 C  
ENDBRANCH  15  18
ENDBRANCH  11  12
ENDBRANCH  10  11
ENDBRANCH   7  10
ENDBRANCH   6   7
ENDBRANCH   4   6
ENDBRANCH   2   4
TORSDOF 7
ENDMDL
MODEL      129
REMARK 921   NORMALIZED FREE ENERGY PREDICTED BY IDOCK:   -3.74 KCAL/MOL
REMARK 922        TOTAL FREE ENERGY PREDICTED BY IDOCK:   -6.12 KCAL/MOL
REMARK 923 INTER-LIGAND FREE ENERGY PREDICTED BY IDOCK:   -5.28 KCAL/MOL
REMARK 924 INTRA-LIGAND FREE ENERGY PREDICTED BY IDOCK:   -0.84 KCAL/MOL
REMARK 927      BINDING AFFINITY PREDICTED BY RF-SCORE:    0.00 PKD
ROOT
HETATM    1  C   UNL     1      -8.153  10.561  65.653  1.00  0.00    -0.161 C  
HETATM    2  C   UNL     1      -8.435  10.797  67.137  1.00  0.00    -0.126 C  
HETATM    3  C   UNL     1      -7.162  11.286  67.832  1.00  0.00    -0.086 C  
ENDROOT
BRANCH   2   4
HETATM    4  N   UNL     1      -9.520  11.773  67.242  1.00  0.00    -0.169 NA 
HETATM    5  H   UNL     1      -9.152  12.698  67.464  1.00  0.00     0.000 HD 
BRANCH   4   6
HETATM    6  C   UNL     1     -10.377  11.827  66.054  1.00  0.00    -0.239 C  
BRANCH   6   7
HETATM    7  C   UNL     1     -11.764  12.362  66.445  1.00  0.00    -0.391 C  
HETATM    8  H   UNL     1     -13.115  11.995  67.836  1.00  0.00     0.000 HD 
HETATM    9  O   UNL     1     -12.258  11.665  67.595  1.00  0.00    -0.544 OA 
BRANCH   7  10
HETATM   10  C   UNL     1     -11.718  13.867  66.714  1.00  0.00    -0.399 C  
BRANCH  10  11
HETATM   11  O   UNL     1     -11.114  14.147  67.991  1.00  0.00    -0.253 OA 
BRANCH  11  12
HETATM   12  C   UNL     1     -10.503  15.379  68.060  1.00  0.00    -0.257 A  
HETATM   13  C   UNL     1     -11.176  16.590  67.966  1.00  0.00    -0.202 A  
HETATM   14  C   UNL     1     -10.487  17.798  67.972  1.00  0.00    -0.399 A  
HETATM   15  C   UNL     1      -9.097  17.830  68.095  1.00  0.00    -0.274 A  
HETATM   16  C   UNL     1      -9.114  15.394  68.218  1.00  0.00    -0.187 A  
HETATM   17  C   UNL     1      -8.413  16.614  68.231  1.00  0.00    -0.203 A  
BRANCH  15  18
HETATM   18  N   UNL     1      -8.371  19.040  68.043  1.00  0.00    -0.291 N  
HETATM   19  H   UNL     1      -8.341  19.603  68.892  1.00  0.00     0.000 HD 
HETATM   20  C   UNL     1      -7.694  19.530  66.935  1.00  0.00    -0.254 C  
HETATM   21  O   UNL     1      -7.756  19.105  65.787  1.00  0.00    -0.443 OA 
HETATM   22  C   UNL     1      -6.837  20.727  67.240  1.00  0.00    -0.405 C  
ENDBRANCH  15  18
ENDBRANCH  11  12
ENDBRANCH  10  11
ENDBRANCH   7  10
ENDBRANCH   6   7
ENDBRANCH   4   6
ENDBRANCH   2   4
TORSDOF 7
ENDMDL
MODEL      130
REMARK 921   NORMALIZED FREE ENERGY PREDICTED BY IDOCK:   -3.73 KCAL/MOL
REMARK 922        TOTAL FREE ENERGY PREDICTED BY IDOCK:   -6.10 KCAL/MOL
REMARK 923 INTER-LIGAND FREE ENERGY PREDICTED BY IDOCK:   -5.41 KCAL/MOL
REMARK 924 INTRA-LIGAND FREE ENERGY PREDICTED BY IDOCK:   -0.69 KCAL/MOL
REMARK 927      BINDING AFFINITY PREDICTED BY RF-SCORE:    0.00 PKD
ROOT
HETATM    1  C   UNL     1      -9.959  15.971  68.405  1.00  0.00    -0.220 C  
HETATM    2  C   UNL     1     -11.254  15.495  67.745  1.00  0.00    -0.302 C  
HETATM    3  C   UNL     1     -11.017  14.150  67.054  1.00  0.00    -0.303 C  
ENDROOT
BRANCH   2   4
HETATM    4  N   UNL     1     -12.282  15.397  68.783  1.00  0.00    -0.593 NA 
HETATM    5  H   UNL     1     -12.747  14.491  68.744  1.00  0.00     0.000 HD 
BRANCH   4   6
HETATM    6  C   UNL     1     -11.778  15.665  70.134  1.00  0.00    -0.360 C  
BRANCH   6   7
HETATM    7  C   UNL     1     -12.186  14.517  71.071  1.00  0.00    -0.339 C  
HETATM    8  H   UNL     1     -13.492  14.233  72.523  1.00  0.00     0.000 HD 
HETATM    9  O   UNL     1     -13.240  14.942  71.944  1.00  0.00    -0.310 OA 
BRANCH   7  10
HETATM   10  C   UNL     1     -12.619  13.284  70.276  1.00  0.00    -0.090 C  
BRANCH  10  11
HETATM   11  O   UNL     1     -12.740  12.132  71.130  1.00  0.00    -0.358 OA 
BRANCH  11  12
HETATM   12  C   UNL     1     -12.079  11.019  70.662  1.00  0.00    -0.373 A  
HETATM   13  C   UNL     1     -11.893   9.855  71.398  1.00  0.00    -0.476 A  
HETATM   14  C   UNL     1     -11.153   8.794  70.888  1.00  0.00    -0.320 A  
HETATM   15  C   UNL     1     -10.592   8.857  69.612  1.00  0.00    -0.226 A  
HETATM   16  C   UNL     1     -11.553  11.085  69.369  1.00  0.00    -0.383 A  
HETATM   17  C   UNL     1     -10.809  10.011  68.847  1.00  0.00    -0.250 A  
BRANCH  15  18
HETATM   18  N   UNL     1      -9.787   7.817  69.098  1.00  0.00    -0.170 N  
HETATM   19  H   UNL     1     -10.249   7.105  68.534  1.00  0.00     0.000 HD 
HETATM   20  C   UNL     1      -8.420   7.680  69.296  1.00  0.00    -0.138 C  
HETATM   21  O   UNL     1      -7.722   8.314  70.078  1.00  0.00    -0.090 OA 
HETATM   22  C   UNL     1      -7.801   6.601  68.451  1.00  0.00    -0.107 C  
ENDBRANCH  15  18
ENDBRANCH  11  12
ENDBRANCH  10  11
ENDBRANCH   7  10
ENDBRANCH   6   7
ENDBRANCH   4   6
ENDBRANCH   2   4
TORSDOF 7
ENDMDL
MODEL      131
REMARK 921   NORMALIZED FREE ENERGY PREDICTED BY IDOCK:   -3.73 KCAL/MOL
REMARK 922        TOTAL FREE ENERGY PREDICTED BY IDOCK:   -6.09 KCAL/MOL
REMARK 923 INTER-LIGAND FREE ENERGY PREDICTED BY IDOCK:   -5.56 KCAL/MOL
REMARK 924 INTRA-LIGAND FREE ENERGY PREDICTED BY IDOCK:   -0.54 KCAL/MOL
REMARK 927      BINDING AFFINITY PREDICTED BY RF-SCORE:    0.00 PKD
ROOT
HETATM    1  C   UNL     1     -10.255   2.253  63.468  1.00  0.00    -0.151 C  
HETATM    2  C   UNL     1      -9.293   3.064  64.338  1.00  0.00    -0.142 C  
HETATM    3  C   UNL     1      -7.923   3.139  63.660  1.00  0.00    -0.081 C  
ENDROOT
BRANCH   2   4
HETATM    4  N   UNL     1      -9.873   4.393  64.536  1.00  0.00    -0.334 NA 
HETATM    5  H   UNL     1     -10.555   4.600  63.807  1.00  0.00     0.000 HD 
BRANCH   4   6
HETATM    6  C   UNL     1     -10.461   4.584  65.866  1.00  0.00    -0.226 C  
BRANCH   6   7
HETATM    7  C   UNL     1      -9.721   5.715  66.598  1.00  0.00    -0.158 C  
HETATM    8  H   UNL     1      -8.233   6.953  66.213  1.00  0.00     0.000 HD 
HETATM    9  O   UNL     1      -8.691   6.255  65.761  1.00  0.00    -0.153 OA 
BRANCH   7  10
HETATM   10  C   UNL     1     -10.688   6.818  67.029  1.00  0.00    -0.365 C  
BRANCH  10  11
HETATM   11  O   UNL     1     -10.016   7.819  67.817  1.00  0.00    -0.157 OA 
BRANCH  11  12
HETATM   12  C   UNL     1     -10.317   9.111  67.450  1.00  0.00    -0.264 A  
HETATM   13  C   UNL     1     -11.092   9.978  68.210  1.00  0.00    -0.247 A  
HETATM   14  C   UNL     1     -11.415  11.248  67.746  1.00  0.00    -0.350 A  
HETATM   15  C   UNL     1     -10.952  11.699  66.509  1.00  0.00    -0.299 A  
HETATM   16  C   UNL     1      -9.816   9.560  66.225  1.00  0.00    -0.334 A  
HETATM   17  C   UNL     1     -10.135  10.847  65.753  1.00  0.00    -0.308 A  
BRANCH  15  18
HETATM   18  N   UNL     1     -11.317  12.961  65.990  1.00  0.00    -0.304 N  
HETATM   19  H   UNL     1     -10.872  13.780  66.401  1.00  0.00     0.000 HD 
HETATM   20  C   UNL     1     -12.230  13.181  64.969  1.00  0.00    -0.440 C  
HETATM   21  O   UNL     1     -12.995  12.361  64.475  1.00  0.00    -0.770 OA 
HETATM   22  C   UNL     1     -12.252  14.605  64.486  1.00  0.00    -0.473 C  
ENDBRANCH  15  18
ENDBRANCH  11  12
ENDBRANCH  10  11
ENDBRANCH   7  10
ENDBRANCH   6   7
ENDBRANCH   4   6
ENDBRANCH   2   4
TORSDOF 7
ENDMDL
MODEL      132
REMARK 921   NORMALIZED FREE ENERGY PREDICTED BY IDOCK:   -3.72 KCAL/MOL
REMARK 922        TOTAL FREE ENERGY PREDICTED BY IDOCK:   -6.08 KCAL/MOL
REMARK 923 INTER-LIGAND FREE ENERGY PREDICTED BY IDOCK:   -5.43 KCAL/MOL
REMARK 924 INTRA-LIGAND FREE ENERGY PREDICTED BY IDOCK:   -0.65 KCAL/MOL
REMARK 927      BINDING AFFINITY PREDICTED BY RF-SCORE:    0.00 PKD
ROOT
HETATM    1  C   UNL     1     -11.791  15.371  72.390  1.00  0.00    -0.558 C  
HETATM    2  C   UNL     1     -11.991  15.257  70.878  1.00  0.00    -0.342 C  
HETATM    3  C   UNL     1     -11.237  16.387  70.173  1.00  0.00    -0.260 C  
ENDROOT
BRANCH   2   4
HETATM    4  N   UNL     1     -11.513  13.940  70.456  1.00  0.00    -0.510 NA 
HETATM    5  H   UNL     1     -11.627  13.259  71.206  1.00  0.00     0.000 HD 
BRANCH   4   6
HETATM    6  C   UNL     1     -12.136  13.459  69.219  1.00  0.00    -0.264 C  
BRANCH   6   7
HETATM    7  C   UNL     1     -11.045  13.126  68.190  1.00  0.00    -0.255 C  
HETATM    8  H   UNL     1      -9.135  13.545  67.921  1.00  0.00     0.000 HD 
HETATM    9  O   UNL     1      -9.810  13.751  68.558  1.00  0.00    -0.226 OA 
BRANCH   7  10
HETATM   10  C   UNL     1     -10.856  11.614  68.058  1.00  0.00    -0.215 C  
BRANCH  10  11
HETATM   11  O   UNL     1      -9.695  11.170  68.785  1.00  0.00    -0.197 OA 
BRANCH  11  12
HETATM   12  C   UNL     1      -9.947  10.142  69.665  1.00  0.00    -0.232 A  
HETATM   13  C   UNL     1     -11.221   9.706  70.010  1.00  0.00    -0.271 A  
HETATM   14  C   UNL     1     -11.405   8.708  70.961  1.00  0.00    -0.322 A  
HETATM   15  C   UNL     1     -10.315   8.098  71.581  1.00  0.00    -0.224 A  
HETATM   16  C   UNL     1      -8.843   9.518  70.251  1.00  0.00    -0.281 A  
HETATM   17  C   UNL     1      -9.025   8.503  71.209  1.00  0.00    -0.244 A  
BRANCH  15  18
HETATM   18  N   UNL     1     -10.479   7.126  72.593  1.00  0.00    -0.220 N  
HETATM   19  H   UNL     1     -10.515   7.458  73.556  1.00  0.00     0.000 HD 
HETATM   20  C   UNL     1     -10.594   5.758  72.389  1.00  0.00    -0.220 C  
HETATM   21  O   UNL     1     -10.396   5.151  71.343  1.00  0.00    -0.210 OA 
HETATM   22  C   UNL     1     -10.974   5.000  73.631  1.00  0.00    -0.379 C  
ENDBRANCH  15  18
ENDBRANCH  11  12
ENDBRANCH  10  11
ENDBRANCH   7  10
ENDBRANCH   6   7
ENDBRANCH   4   6
ENDBRANCH   2   4
TORSDOF 7
ENDMDL
MODEL      133
REMARK 921   NORMALIZED FREE ENERGY PREDICTED BY IDOCK:   -3.71 KCAL/MOL
REMARK 922        TOTAL FREE ENERGY PREDICTED BY IDOCK:   -6.07 KCAL/MOL
REMARK 923 INTER-LIGAND FREE ENERGY PREDICTED BY IDOCK:   -5.87 KCAL/MOL
REMARK 924 INTRA-LIGAND FREE ENERGY PREDICTED BY IDOCK:   -0.20 KCAL/MOL
REMARK 927      BINDING AFFINITY PREDICTED BY RF-SCORE:    0.00 PKD
ROOT
HETATM    1  C   UNL     1     -10.003  19.041  66.972  1.00  0.00    -0.405 C  
HETATM    2  C   UNL     1      -8.708  18.277  67.254  1.00  0.00    -0.255 C  
HETATM    3  C   UNL     1      -7.506  19.145  66.873  1.00  0.00    -0.230 C  
ENDROOT
BRANCH   2   4
HETATM    4  N   UNL     1      -8.693  17.921  68.673  1.00  0.00    -0.292 NA 
HETATM    5  H   UNL     1      -8.037  18.511  69.185  1.00  0.00     0.000 HD 
BRANCH   4   6
HETATM    6  C   UNL     1     -10.018  17.954  69.300  1.00  0.00    -0.102 C  
BRANCH   6   7
HETATM    7  C   UNL     1     -10.543  16.519  69.466  1.00  0.00    -0.321 C  
HETATM    8  H   UNL     1     -11.486  15.476  70.850  1.00  0.00     0.000 HD 
HETATM    9  O   UNL     1     -11.162  16.363  70.748  1.00  0.00    -0.350 OA 
BRANCH   7  10
HETATM   10  C   UNL     1     -11.529  16.162  68.353  1.00  0.00    -0.298 C  
BRANCH  10  11
HETATM   11  O   UNL     1     -11.840  14.756  68.366  1.00  0.00    -0.316 OA 
BRANCH  11  12
HETATM   12  C   UNL     1     -11.561  14.112  67.181  1.00  0.00    -0.377 A  
HETATM   13  C   UNL     1     -12.517  13.789  66.226  1.00  0.00    -0.441 A  
HETATM   14  C   UNL     1     -12.176  13.074  65.083  1.00  0.00    -0.507 A  
HETATM   15  C   UNL     1     -10.859  12.679  64.849  1.00  0.00    -0.298 A  
HETATM   16  C   UNL     1     -10.231  13.754  66.947  1.00  0.00    -0.261 A  
HETATM   17  C   UNL     1      -9.880  13.036  65.788  1.00  0.00    -0.217 A  
BRANCH  15  18
HETATM   18  N   UNL     1     -10.500  11.901  63.727  1.00  0.00    -0.378 N  
HETATM   19  H   UNL     1     -10.874  12.187  62.823  1.00  0.00     0.000 HD 
HETATM   20  C   UNL     1      -9.682  10.780  63.748  1.00  0.00    -0.321 C  
HETATM   21  O   UNL     1      -9.286  10.176  64.737  1.00  0.00    -0.200 OA 
HETATM   22  C   UNL     1      -9.305  10.291  62.376  1.00  0.00    -0.301 C  
ENDBRANCH  15  18
ENDBRANCH  11  12
ENDBRANCH  10  11
ENDBRANCH   7  10
ENDBRANCH   6   7
ENDBRANCH   4   6
ENDBRANCH   2   4
TORSDOF 7
ENDMDL
MODEL      134
REMARK 921   NORMALIZED FREE ENERGY PREDICTED BY IDOCK:   -3.67 KCAL/MOL
REMARK 922        TOTAL FREE ENERGY PREDICTED BY IDOCK:   -6.01 KCAL/MOL
REMARK 923 INTER-LIGAND FREE ENERGY PREDICTED BY IDOCK:   -5.33 KCAL/MOL
REMARK 924 INTRA-LIGAND FREE ENERGY PREDICTED BY IDOCK:   -0.68 KCAL/MOL
REMARK 927      BINDING AFFINITY PREDICTED BY RF-SCORE:    0.00 PKD
ROOT
HETATM    1  C   UNL     1      -7.394  15.264  67.745  1.00  0.00    -0.181 C  
HETATM    2  C   UNL     1      -6.393  16.213  68.406  1.00  0.00    -0.112 C  
HETATM    3  C   UNL     1      -5.401  16.725  67.359  1.00  0.00    -0.168 C  
ENDROOT
BRANCH   2   4
HETATM    4  N   UNL     1      -7.145  17.308  69.021  1.00  0.00    -0.242 NA 
HETATM    5  H   UNL     1      -6.763  17.537  69.938  1.00  0.00     0.000 HD 
BRANCH   4   6
HETATM    6  C   UNL     1      -7.230  18.506  68.180  1.00  0.00    -0.255 C  
BRANCH   6   7
HETATM    7  C   UNL     1      -8.476  19.319  68.567  1.00  0.00    -0.366 C  
HETATM    8  H   UNL     1      -9.559  20.768  67.779  1.00  0.00     0.000 HD 
HETATM    9  O   UNL     1      -8.789  20.266  67.539  1.00  0.00    -0.335 OA 
BRANCH   7  10
HETATM   10  C   UNL     1      -9.672  18.402  68.828  1.00  0.00    -0.343 C  
BRANCH  10  11
HETATM   11  O   UNL     1     -10.663  18.533  67.790  1.00  0.00    -0.410 OA 
BRANCH  11  12
HETATM   12  C   UNL     1     -10.739  17.445  66.952  1.00  0.00    -0.125 A  
HETATM   13  C   UNL     1     -10.731  17.527  65.565  1.00  0.00    -0.065 A  
HETATM   14  C   UNL     1     -10.883  16.391  64.777  1.00  0.00    -0.197 A  
HETATM   15  C   UNL     1     -11.026  15.130  65.356  1.00  0.00    -0.374 A  
HETATM   16  C   UNL     1     -10.847  16.185  67.548  1.00  0.00    -0.284 A  
HETATM   17  C   UNL     1     -10.995  15.032  66.755  1.00  0.00    -0.323 A  
BRANCH  15  18
HETATM   18  N   UNL     1     -11.243  13.971  64.579  1.00  0.00    -0.487 N  
HETATM   19  H   UNL     1     -12.012  13.995  63.911  1.00  0.00     0.000 HD 
HETATM   20  C   UNL     1     -10.498  12.802  64.645  1.00  0.00    -0.350 C  
HETATM   21  O   UNL     1      -9.662  12.508  65.492  1.00  0.00    -0.220 OA 
HETATM   22  C   UNL     1     -10.824  11.824  63.550  1.00  0.00    -0.496 C  
ENDBRANCH  15  18
ENDBRANCH  11  12
ENDBRANCH  10  11
ENDBRANCH   7  10
ENDBRANCH   6   7
ENDBRANCH   4   6
ENDBRANCH   2   4
TORSDOF 7
ENDMDL
MODEL      135
REMARK 921   NORMALIZED FREE ENERGY PREDICTED BY IDOCK:   -3.65 KCAL/MOL
REMARK 922        TOTAL FREE ENERGY PREDICTED BY IDOCK:   -5.98 KCAL/MOL
REMARK 923 INTER-LIGAND FREE ENERGY PREDICTED BY IDOCK:   -5.71 KCAL/MOL
REMARK 924 INTRA-LIGAND FREE ENERGY PREDICTED BY IDOCK:   -0.27 KCAL/MOL
REMARK 927      BINDING AFFINITY PREDICTED BY RF-SCORE:    0.00 PKD
ROOT
HETATM    1  C   UNL     1      -9.818  19.365  68.464  1.00  0.00    -0.509 C  
HETATM    2  C   UNL     1     -10.485  18.807  67.206  1.00  0.00    -0.431 C  
HETATM    3  C   UNL     1     -10.540  19.892  66.128  1.00  0.00    -0.526 C  
ENDROOT
BRANCH   2   4
HETATM    4  N   UNL     1      -9.716  17.643  66.764  1.00  0.00    -0.287 NA 
HETATM    5  H   UNL     1      -9.219  17.221  67.548  1.00  0.00     0.000 HD 
BRANCH   4   6
HETATM    6  C   UNL     1     -10.523  16.639  66.063  1.00  0.00    -0.298 C  
BRANCH   6   7
HETATM    7  C   UNL     1      -9.656  15.408  65.753  1.00  0.00    -0.333 C  
HETATM    8  H   UNL     1      -7.763  14.887  65.950  1.00  0.00     0.000 HD 
HETATM    9  O   UNL     1      -8.298  15.648  66.142  1.00  0.00    -0.196 OA 
BRANCH   7  10
HETATM   10  C   UNL     1     -10.198  14.162  66.454  1.00  0.00    -0.290 C  
BRANCH  10  11
HETATM   11  O   UNL     1      -9.234  13.627  67.380  1.00  0.00    -0.204 OA 
BRANCH  11  12
HETATM   12  C   UNL     1      -9.638  12.463  67.995  1.00  0.00    -0.211 A  
HETATM   13  C   UNL     1      -8.780  11.591  68.652  1.00  0.00    -0.103 A  
HETATM   14  C   UNL     1      -9.244  10.396  69.191  1.00  0.00    -0.202 A  
HETATM   15  C   UNL     1     -10.593  10.047  69.106  1.00  0.00    -0.218 A  
HETATM   16  C   UNL     1     -10.997  12.146  67.931  1.00  0.00    -0.272 A  
HETATM   17  C   UNL     1     -11.473  10.941  68.480  1.00  0.00    -0.380 A  
BRANCH  15  18
HETATM   18  N   UNL     1     -11.077   8.812  69.591  1.00  0.00    -0.427 N  
HETATM   19  H   UNL     1     -11.830   8.844  70.277  1.00  0.00     0.000 HD 
HETATM   20  C   UNL     1     -10.615   7.559  69.215  1.00  0.00    -0.210 C  
HETATM   21  O   UNL     1      -9.614   7.310  68.553  1.00  0.00    -0.140 OA 
HETATM   22  C   UNL     1     -11.464   6.430  69.732  1.00  0.00    -0.468 C  
ENDBRANCH  15  18
ENDBRANCH  11  12
ENDBRANCH  10  11
ENDBRANCH   7  10
ENDBRANCH   6   7
ENDBRANCH   4   6
ENDBRANCH   2   4
TORSDOF 7
ENDMDL
MODEL      136
REMARK 921   NORMALIZED FREE ENERGY PREDICTED BY IDOCK:   -3.64 KCAL/MOL
REMARK 922        TOTAL FREE ENERGY PREDICTED BY IDOCK:   -5.97 KCAL/MOL
REMARK 923 INTER-LIGAND FREE ENERGY PREDICTED BY IDOCK:   -5.95 KCAL/MOL
REMARK 924 INTRA-LIGAND FREE ENERGY PREDICTED BY IDOCK:   -0.02 KCAL/MOL
REMARK 927      BINDING AFFINITY PREDICTED BY RF-SCORE:    0.00 PKD
ROOT
HETATM    1  C   UNL     1     -14.305   7.262  71.330  1.00  0.00    -0.484 C  
HETATM    2  C   UNL     1     -12.999   7.982  71.671  1.00  0.00    -0.328 C  
HETATM    3  C   UNL     1     -13.308   9.295  72.395  1.00  0.00    -0.521 C  
ENDROOT
BRANCH   2   4
HETATM    4  N   UNL     1     -12.190   7.085  72.498  1.00  0.00    -0.499 NA 
HETATM    5  H   UNL     1     -11.925   6.253  71.972  1.00  0.00     0.000 HD 
BRANCH   4   6
HETATM    6  C   UNL     1     -11.009   7.730  73.080  1.00  0.00    -0.381 C  
BRANCH   6   7
HETATM    7  C   UNL     1     -10.011   8.079  71.963  1.00  0.00    -0.213 C  
HETATM    8  H   UNL     1      -8.255   8.967  71.820  1.00  0.00     0.000 HD 
HETATM    9  O   UNL     1      -8.871   8.751  72.510  1.00  0.00    -0.402 OA 
BRANCH   7  10
HETATM   10  C   UNL     1      -9.575   6.825  71.204  1.00  0.00    -0.173 C  
BRANCH  10  11
HETATM   11  O   UNL     1     -10.485   6.526  70.129  1.00  0.00    -0.197 OA 
BRANCH  11  12
HETATM   12  C   UNL     1     -10.282   7.286  68.999  1.00  0.00    -0.197 A  
HETATM   13  C   UNL     1     -10.660   8.617  68.875  1.00  0.00    -0.166 A  
HETATM   14  C   UNL     1     -10.488   9.305  67.679  1.00  0.00    -0.325 A  
HETATM   15  C   UNL     1      -9.910   8.684  66.571  1.00  0.00    -0.278 A  
HETATM   16  C   UNL     1      -9.670   6.659  67.910  1.00  0.00    -0.130 A  
HETATM   17  C   UNL     1      -9.489   7.353  66.699  1.00  0.00    -0.240 A  
BRANCH  15  18
HETATM   18  N   UNL     1      -9.782   9.343  65.329  1.00  0.00    -0.453 N  
HETATM   19  H   UNL     1      -9.445   8.790  64.541  1.00  0.00     0.000 HD 
HETATM   20  C   UNL     1     -10.073  10.678  65.087  1.00  0.00    -0.307 C  
HETATM   21  O   UNL     1     -10.312  11.542  65.922  1.00  0.00    -0.232 OA 
HETATM   22  C   UNL     1     -10.046  11.040  63.628  1.00  0.00    -0.428 C  
ENDBRANCH  15  18
ENDBRANCH  11  12
ENDBRANCH  10  11
ENDBRANCH   7  10
ENDBRANCH   6   7
ENDBRANCH   4   6
ENDBRANCH   2   4
TORSDOF 7
ENDMDL
MODEL      137
REMARK 921   NORMALIZED FREE ENERGY PREDICTED BY IDOCK:   -3.61 KCAL/MOL
REMARK 922        TOTAL FREE ENERGY PREDICTED BY IDOCK:   -5.93 KCAL/MOL
REMARK 923 INTER-LIGAND FREE ENERGY PREDICTED BY IDOCK:   -5.54 KCAL/MOL
REMARK 924 INTRA-LIGAND FREE ENERGY PREDICTED BY IDOCK:   -0.39 KCAL/MOL
REMARK 927      BINDING AFFINITY PREDICTED BY RF-SCORE:    0.00 PKD
ROOT
HETATM    1  C   UNL     1      -8.461  10.696  62.812  1.00  0.00    -0.211 C  
HETATM    2  C   UNL     1      -9.530  10.961  63.873  1.00  0.00    -0.261 C  
HETATM    3  C   UNL     1      -8.955  10.687  65.265  1.00  0.00    -0.209 C  
ENDROOT
BRANCH   2   4
HETATM    4  N   UNL     1      -9.972  12.350  63.733  1.00  0.00    -0.585 NA 
HETATM    5  H   UNL     1      -9.524  12.790  62.930  1.00  0.00     0.000 HD 
BRANCH   4   6
HETATM    6  C   UNL     1     -11.429  12.497  63.660  1.00  0.00    -0.493 C  
BRANCH   6   7
HETATM    7  C   UNL     1     -11.864  13.718  64.487  1.00  0.00    -0.417 C  
HETATM    8  H   UNL     1     -12.547  14.062  66.306  1.00  0.00     0.000 HD 
HETATM    9  O   UNL     1     -12.278  13.308  65.795  1.00  0.00    -0.417 OA 
BRANCH   7  10
HETATM   10  C   UNL     1     -10.737  14.746  64.584  1.00  0.00    -0.254 C  
BRANCH  10  11
HETATM   11  O   UNL     1     -11.065  15.789  65.522  1.00  0.00    -0.283 OA 
BRANCH  11  12
HETATM   12  C   UNL     1     -10.179  15.895  66.570  1.00  0.00    -0.290 A  
HETATM   13  C   UNL     1     -10.555  16.115  67.889  1.00  0.00    -0.309 A  
HETATM   14  C   UNL     1      -9.603  16.283  68.889  1.00  0.00    -0.243 A  
HETATM   15  C   UNL     1      -8.239  16.214  68.600  1.00  0.00    -0.202 A  
HETATM   16  C   UNL     1      -8.818  15.788  66.269  1.00  0.00    -0.378 A  
HETATM   17  C   UNL     1      -7.851  15.951  67.279  1.00  0.00    -0.218 A  
BRANCH  15  18
HETATM   18  N   UNL     1      -7.255  16.441  69.587  1.00  0.00    -0.079 N  
HETATM   19  H   UNL     1      -7.330  15.908  70.452  1.00  0.00     0.000 HD 
HETATM   20  C   UNL     1      -6.193  17.328  69.480  1.00  0.00    -0.251 C  
HETATM   21  O   UNL     1      -6.029  18.180  68.614  1.00  0.00    -0.188 OA 
HETATM   22  C   UNL     1      -5.191  17.196  70.594  1.00  0.00    -0.253 C  
ENDBRANCH  15  18
ENDBRANCH  11  12
ENDBRANCH  10  11
ENDBRANCH   7  10
ENDBRANCH   6   7
ENDBRANCH   4   6
ENDBRANCH   2   4
TORSDOF 7
ENDMDL
MODEL      138
REMARK 921   NORMALIZED FREE ENERGY PREDICTED BY IDOCK:   -3.60 KCAL/MOL
REMARK 922        TOTAL FREE ENERGY PREDICTED BY IDOCK:   -5.92 KCAL/MOL
REMARK 923 INTER-LIGAND FREE ENERGY PREDICTED BY IDOCK:   -5.42 KCAL/MOL
REMARK 924 INTRA-LIGAND FREE ENERGY PREDICTED BY IDOCK:   -0.50 KCAL/MOL
REMARK 927      BINDING AFFINITY PREDICTED BY RF-SCORE:    0.00 PKD
ROOT
HETATM    1  C   UNL     1     -13.865   9.174  72.633  1.00  0.00    -0.414 C  
HETATM    2  C   UNL     1     -13.337   9.560  71.250  1.00  0.00    -0.314 C  
HETATM    3  C   UNL     1     -12.816  10.999  71.281  1.00  0.00    -0.528 C  
ENDROOT
BRANCH   2   4
HETATM    4  N   UNL     1     -12.285   8.610  70.886  1.00  0.00    -0.471 NA 
HETATM    5  H   UNL     1     -12.681   7.796  70.417  1.00  0.00     0.000 HD 
BRANCH   4   6
HETATM    6  C   UNL     1     -11.213   9.202  70.079  1.00  0.00    -0.150 C  
BRANCH   6   7
HETATM    7  C   UNL     1      -9.851   8.866  70.707  1.00  0.00    -0.223 C  
HETATM    8  H   UNL     1      -8.761   7.249  71.011  1.00  0.00     0.000 HD 
HETATM    9  O   UNL     1      -9.602   7.457  70.623  1.00  0.00    -0.171 OA 
BRANCH   7  10
HETATM   10  C   UNL     1      -8.724   9.645  70.028  1.00  0.00    -0.231 C  
BRANCH  10  11
HETATM   11  O   UNL     1      -8.704   9.399  68.609  1.00  0.00    -0.128 OA 
BRANCH  11  12
HETATM   12  C   UNL     1      -8.981  10.511  67.846  1.00  0.00    -0.137 A  
HETATM   13  C   UNL     1      -8.716  11.815  68.244  1.00  0.00    -0.167 A  
HETATM   14  C   UNL     1      -9.088  12.897  67.453  1.00  0.00    -0.197 A  
HETATM   15  C   UNL     1      -9.719  12.704  66.224  1.00  0.00    -0.259 A  
HETATM   16  C   UNL     1      -9.582  10.298  66.603  1.00  0.00    -0.220 A  
HETATM   17  C   UNL     1      -9.954  11.389  65.796  1.00  0.00    -0.271 A  
BRANCH  15  18
HETATM   18  N   UNL     1     -10.160  13.787  65.432  1.00  0.00    -0.450 N  
HETATM   19  H   UNL     1      -9.488  14.193  64.782  1.00  0.00     0.000 HD 
HETATM   20  C   UNL     1     -11.430  14.346  65.462  1.00  0.00    -0.340 C  
HETATM   21  O   UNL     1     -12.312  14.128  66.284  1.00  0.00    -0.456 OA 
HETATM   22  C   UNL     1     -11.670  15.339  64.358  1.00  0.00    -0.289 C  
ENDBRANCH  15  18
ENDBRANCH  11  12
ENDBRANCH  10  11
ENDBRANCH   7  10
ENDBRANCH   6   7
ENDBRANCH   4   6
ENDBRANCH   2   4
TORSDOF 7
ENDMDL
MODEL      139
REMARK 921   NORMALIZED FREE ENERGY PREDICTED BY IDOCK:   -3.60 KCAL/MOL
REMARK 922        TOTAL FREE ENERGY PREDICTED BY IDOCK:   -5.92 KCAL/MOL
REMARK 923 INTER-LIGAND FREE ENERGY PREDICTED BY IDOCK:   -6.10 KCAL/MOL
REMARK 924 INTRA-LIGAND FREE ENERGY PREDICTED BY IDOCK:    0.19 KCAL/MOL
REMARK 927      BINDING AFFINITY PREDICTED BY RF-SCORE:    0.00 PKD
ROOT
HETATM    1  C   UNL     1      -6.038  21.326  66.530  1.00  0.00    -0.358 C  
HETATM    2  C   UNL     1      -7.005  20.143  66.464  1.00  0.00    -0.235 C  
HETATM    3  C   UNL     1      -6.322  18.889  67.013  1.00  0.00    -0.193 C  
ENDROOT
BRANCH   2   4
HETATM    4  N   UNL     1      -8.199  20.492  67.235  1.00  0.00    -0.421 NA 
HETATM    5  H   UNL     1      -8.482  21.454  67.046  1.00  0.00     0.000 HD 
BRANCH   4   6
HETATM    6  C   UNL     1      -9.322  19.572  67.026  1.00  0.00    -0.336 C  
BRANCH   6   7
HETATM    7  C   UNL     1      -9.523  18.712  68.284  1.00  0.00    -0.336 C  
HETATM    8  H   UNL     1      -9.721  19.015  70.224  1.00  0.00     0.000 HD 
HETATM    9  O   UNL     1      -9.597  19.546  69.447  1.00  0.00    -0.304 OA 
BRANCH   7  10
HETATM   10  C   UNL     1     -10.781  17.851  68.167  1.00  0.00    -0.274 C  
BRANCH  10  11
HETATM   11  O   UNL     1     -10.582  16.763  67.244  1.00  0.00    -0.320 OA 
BRANCH  11  12
HETATM   12  C   UNL     1     -10.724  15.518  67.811  1.00  0.00    -0.297 A  
HETATM   13  C   UNL     1     -10.338  14.332  67.197  1.00  0.00    -0.262 A  
HETATM   14  C   UNL     1     -10.576  13.101  67.799  1.00  0.00    -0.242 A  
HETATM   15  C   UNL     1     -11.191  13.020  69.049  1.00  0.00    -0.264 A  
HETATM   16  C   UNL     1     -11.309  15.456  69.079  1.00  0.00    -0.324 A  
HETATM   17  C   UNL     1     -11.547  14.213  69.694  1.00  0.00    -0.349 A  
BRANCH  15  18
HETATM   18  N   UNL     1     -11.498  11.780  69.651  1.00  0.00    -0.387 N  
HETATM   19  H   UNL     1     -11.121  10.942  69.209  1.00  0.00     0.000 HD 
HETATM   20  C   UNL     1     -12.268  11.603  70.792  1.00  0.00    -0.344 C  
HETATM   21  O   UNL     1     -12.949  12.450  71.358  1.00  0.00    -0.361 OA 
HETATM   22  C   UNL     1     -12.241  10.195  71.317  1.00  0.00    -0.496 C  
ENDBRANCH  15  18
ENDBRANCH  11  12
ENDBRANCH  10  11
ENDBRANCH   7  10
ENDBRANCH   6   7
ENDBRANCH   4   6
ENDBRANCH   2   4
TORSDOF 7
ENDMDL
MODEL      140
REMARK 921   NORMALIZED FREE ENERGY PREDICTED BY IDOCK:   -3.60 KCAL/MOL
REMARK 922        TOTAL FREE ENERGY PREDICTED BY IDOCK:   -5.91 KCAL/MOL
REMARK 923 INTER-LIGAND FREE ENERGY PREDICTED BY IDOCK:   -5.09 KCAL/MOL
REMARK 924 INTRA-LIGAND FREE ENERGY PREDICTED BY IDOCK:   -0.82 KCAL/MOL
REMARK 927      BINDING AFFINITY PREDICTED BY RF-SCORE:    0.00 PKD
ROOT
HETATM    1  C   UNL     1     -13.784   7.274  71.261  1.00  0.00    -0.328 C  
HETATM    2  C   UNL     1     -12.755   8.399  71.140  1.00  0.00    -0.110 C  
HETATM    3  C   UNL     1     -12.386   8.911  72.534  1.00  0.00    -0.325 C  
ENDROOT
BRANCH   2   4
HETATM    4  N   UNL     1     -11.589   7.872  70.429  1.00  0.00    -0.458 NA 
HETATM    5  H   UNL     1     -11.652   8.077  69.432  1.00  0.00     0.000 HD 
BRANCH   4   6
HETATM    6  C   UNL     1     -10.310   8.337  70.975  1.00  0.00    -0.191 C  
BRANCH   6   7
HETATM    7  C   UNL     1      -9.751   9.460  70.087  1.00  0.00    -0.235 C  
HETATM    8  H   UNL     1      -8.024  10.383  69.840  1.00  0.00     0.000 HD 
HETATM    9  O   UNL     1      -8.369   9.689  70.389  1.00  0.00    -0.186 OA 
BRANCH   7  10
HETATM   10  C   UNL     1      -9.922   9.126  68.604  1.00  0.00    -0.170 C  
BRANCH  10  11
HETATM   11  O   UNL     1     -11.151   9.670  68.087  1.00  0.00    -0.176 OA 
BRANCH  11  12
HETATM   12  C   UNL     1     -11.054  10.982  67.685  1.00  0.00    -0.300 A  
HETATM   13  C   UNL     1     -10.166  11.438  66.719  1.00  0.00    -0.258 A  
HETATM   14  C   UNL     1     -10.072  12.791  66.411  1.00  0.00    -0.266 A  
HETATM   15  C   UNL     1     -10.883  13.730  67.048  1.00  0.00    -0.284 A  
HETATM   16  C   UNL     1     -11.899  11.905  68.308  1.00  0.00    -0.343 A  
HETATM   17  C   UNL     1     -11.812  13.275  67.995  1.00  0.00    -0.392 A  
BRANCH  15  18
HETATM   18  N   UNL     1     -10.763  15.115  66.796  1.00  0.00    -0.307 N  
HETATM   19  H   UNL     1     -11.174  15.468  65.932  1.00  0.00     0.000 HD 
HETATM   20  C   UNL     1     -10.135  16.035  67.622  1.00  0.00    -0.245 C  
HETATM   21  O   UNL     1      -9.434  15.792  68.597  1.00  0.00    -0.194 OA 
HETATM   22  C   UNL     1     -10.354  17.462  67.200  1.00  0.00    -0.325 C  
ENDBRANCH  15  18
ENDBRANCH  11  12
ENDBRANCH  10  11
ENDBRANCH   7  10
ENDBRANCH   6   7
ENDBRANCH   4   6
ENDBRANCH   2   4
TORSDOF 7
ENDMDL
MODEL      141
REMARK 921   NORMALIZED FREE ENERGY PREDICTED BY IDOCK:   -3.59 KCAL/MOL
REMARK 922        TOTAL FREE ENERGY PREDICTED BY IDOCK:   -5.89 KCAL/MOL
REMARK 923 INTER-LIGAND FREE ENERGY PREDICTED BY IDOCK:   -4.91 KCAL/MOL
REMARK 924 INTRA-LIGAND FREE ENERGY PREDICTED BY IDOCK:   -0.99 KCAL/MOL
REMARK 927      BINDING AFFINITY PREDICTED BY RF-SCORE:    0.00 PKD
ROOT
HETATM    1  C   UNL     1     -12.180  12.924  63.345  1.00  0.00    -0.574 C  
HETATM    2  C   UNL     1     -11.404  12.057  64.337  1.00  0.00    -0.345 C  
HETATM    3  C   UNL     1     -10.000  11.783  63.794  1.00  0.00    -0.379 C  
ENDROOT
BRANCH   2   4
HETATM    4  N   UNL     1     -11.361  12.764  65.618  1.00  0.00    -0.307 NA 
HETATM    5  H   UNL     1     -11.092  12.130  66.370  1.00  0.00     0.000 HD 
BRANCH   4   6
HETATM    6  C   UNL     1     -10.498  13.950  65.605  1.00  0.00    -0.312 C  
BRANCH   6   7
HETATM    7  C   UNL     1      -9.802  14.093  66.968  1.00  0.00    -0.258 C  
HETATM    8  H   UNL     1     -10.342  14.393  68.842  1.00  0.00     0.000 HD 
HETATM    9  O   UNL     1     -10.773  14.305  68.000  1.00  0.00    -0.233 OA 
BRANCH   7  10
HETATM   10  C   UNL     1      -8.950  12.863  67.283  1.00  0.00    -0.208 C  
BRANCH  10  11
HETATM   11  O   UNL     1      -9.702  11.888  68.030  1.00  0.00    -0.180 OA 
BRANCH  11  12
HETATM   12  C   UNL     1      -9.583  10.604  67.549  1.00  0.00    -0.161 A  
HETATM   13  C   UNL     1      -8.458  10.119  66.893  1.00  0.00    -0.126 A  
HETATM   14  C   UNL     1      -8.432   8.830  66.370  1.00  0.00    -0.127 A  
HETATM   15  C   UNL     1      -9.528   7.977  66.508  1.00  0.00    -0.214 A  
HETATM   16  C   UNL     1     -10.676   9.751  67.727  1.00  0.00    -0.329 A  
HETATM   17  C   UNL     1     -10.651   8.445  67.204  1.00  0.00    -0.326 A  
BRANCH  15  18
HETATM   18  N   UNL     1      -9.547   6.688  65.933  1.00  0.00    -0.385 N  
HETATM   19  H   UNL     1      -9.516   6.631  64.915  1.00  0.00     0.000 HD 
HETATM   20  C   UNL     1      -9.605   5.491  66.633  1.00  0.00    -0.151 C  
HETATM   21  O   UNL     1      -9.828   5.348  67.829  1.00  0.00    -0.129 OA 
HETATM   22  C   UNL     1      -9.393   4.282  65.764  1.00  0.00    -0.164 C  
ENDBRANCH  15  18
ENDBRANCH  11  12
ENDBRANCH  10  11
ENDBRANCH   7  10
ENDBRANCH   6   7
ENDBRANCH   4   6
ENDBRANCH   2   4
TORSDOF 7
ENDMDL
MODEL      142
REMARK 921   NORMALIZED FREE ENERGY PREDICTED BY IDOCK:   -3.58 KCAL/MOL
REMARK 922        TOTAL FREE ENERGY PREDICTED BY IDOCK:   -5.89 KCAL/MOL
REMARK 923 INTER-LIGAND FREE ENERGY PREDICTED BY IDOCK:   -5.17 KCAL/MOL
REMARK 924 INTRA-LIGAND FREE ENERGY PREDICTED BY IDOCK:   -0.72 KCAL/MOL
REMARK 927      BINDING AFFINITY PREDICTED BY RF-SCORE:    0.00 PKD
ROOT
HETATM    1  C   UNL     1     -10.325   7.271  66.857  1.00  0.00    -0.358 C  
HETATM    2  C   UNL     1     -10.738   5.889  67.364  1.00  0.00    -0.287 C  
HETATM    3  C   UNL     1     -10.226   4.813  66.403  1.00  0.00    -0.308 C  
ENDROOT
BRANCH   2   4
HETATM    4  N   UNL     1     -10.191   5.718  68.711  1.00  0.00    -0.176 NA 
HETATM    5  H   UNL     1      -9.673   4.843  68.781  1.00  0.00     0.000 HD 
BRANCH   4   6
HETATM    6  C   UNL     1      -9.367   6.846  69.156  1.00  0.00    -0.140 C  
BRANCH   6   7
HETATM    7  C   UNL     1      -9.888   7.362  70.507  1.00  0.00    -0.180 C  
HETATM    8  H   UNL     1      -9.121   8.141  72.150  1.00  0.00     0.000 HD 
HETATM    9  O   UNL     1      -8.799   7.823  71.315  1.00  0.00    -0.129 OA 
BRANCH   7  10
HETATM   10  C   UNL     1     -10.915   8.479  70.311  1.00  0.00    -0.235 C  
BRANCH  10  11
HETATM   11  O   UNL     1     -10.289   9.775  70.365  1.00  0.00    -0.266 OA 
BRANCH  11  12
HETATM   12  C   UNL     1     -10.613  10.595  69.308  1.00  0.00    -0.233 A  
HETATM   13  C   UNL     1     -11.707  11.451  69.293  1.00  0.00    -0.404 A  
HETATM   14  C   UNL     1     -12.017  12.200  68.163  1.00  0.00    -0.242 A  
HETATM   15  C   UNL     1     -11.225  12.132  67.017  1.00  0.00    -0.314 A  
HETATM   16  C   UNL     1      -9.789  10.540  68.181  1.00  0.00    -0.169 A  
HETATM   17  C   UNL     1     -10.095  11.301  67.037  1.00  0.00    -0.238 A  
BRANCH  15  18
HETATM   18  N   UNL     1     -11.554  12.836  65.838  1.00  0.00    -0.360 N  
HETATM   19  H   UNL     1     -11.891  12.289  65.047  1.00  0.00     0.000 HD 
HETATM   20  C   UNL     1     -11.458  14.209  65.664  1.00  0.00    -0.325 C  
HETATM   21  O   UNL     1     -10.915  15.011  66.414  1.00  0.00    -0.329 OA 
HETATM   22  C   UNL     1     -12.082  14.693  64.383  1.00  0.00    -0.481 C  
ENDBRANCH  15  18
ENDBRANCH  11  12
ENDBRANCH  10  11
ENDBRANCH   7  10
ENDBRANCH   6   7
ENDBRANCH   4   6
ENDBRANCH   2   4
TORSDOF 7
ENDMDL
MODEL      143
REMARK 921   NORMALIZED FREE ENERGY PREDICTED BY IDOCK:   -3.57 KCAL/MOL
REMARK 922        TOTAL FREE ENERGY PREDICTED BY IDOCK:   -5.87 KCAL/MOL
REMARK 923 INTER-LIGAND FREE ENERGY PREDICTED BY IDOCK:   -4.98 KCAL/MOL
REMARK 924 INTRA-LIGAND FREE ENERGY PREDICTED BY IDOCK:   -0.89 KCAL/MOL
REMARK 927      BINDING AFFINITY PREDICTED BY RF-SCORE:    0.00 PKD
ROOT
HETATM    1  C   UNL     1     -12.140  11.438  70.470  1.00  0.00    -0.487 C  
HETATM    2  C   UNL     1     -12.001  12.806  69.800  1.00  0.00    -0.292 C  
HETATM    3  C   UNL     1     -12.317  13.909  70.812  1.00  0.00    -0.449 C  
ENDROOT
BRANCH   2   4
HETATM    4  N   UNL     1     -10.638  12.920  69.281  1.00  0.00    -0.435 NA 
HETATM    5  H   UNL     1     -10.109  12.068  69.467  1.00  0.00     0.000 HD 
BRANCH   4   6
HETATM    6  C   UNL     1     -10.579  13.266  67.857  1.00  0.00    -0.238 C  
BRANCH   6   7
HETATM    7  C   UNL     1     -10.065  12.059  67.056  1.00  0.00    -0.203 C  
HETATM    8  H   UNL     1      -9.381  11.717  65.237  1.00  0.00     0.000 HD 
HETATM    9  O   UNL     1      -9.699  12.463  65.732  1.00  0.00    -0.248 OA 
BRANCH   7  10
HETATM   10  C   UNL     1      -8.878  11.397  67.758  1.00  0.00    -0.143 C  
BRANCH  10  11
HETATM   11  O   UNL     1      -8.918   9.966  67.606  1.00  0.00    -0.128 OA 
BRANCH  11  12
HETATM   12  C   UNL     1      -9.427   9.303  68.699  1.00  0.00    -0.146 A  
HETATM   13  C   UNL     1      -9.125   9.625  70.017  1.00  0.00    -0.269 A  
HETATM   14  C   UNL     1      -9.619   8.868  71.073  1.00  0.00    -0.321 A  
HETATM   15  C   UNL     1     -10.453   7.773  70.843  1.00  0.00    -0.206 A  
HETATM   16  C   UNL     1     -10.288   8.230  68.452  1.00  0.00    -0.237 A  
HETATM   17  C   UNL     1     -10.796   7.465  69.519  1.00  0.00    -0.201 A  
BRANCH  15  18
HETATM   18  N   UNL     1     -10.918   6.954  71.895  1.00  0.00    -0.230 N  
HETATM   19  H   UNL     1     -11.756   7.258  72.387  1.00  0.00     0.000 HD 
HETATM   20  C   UNL     1     -10.331   5.769  72.317  1.00  0.00    -0.202 C  
HETATM   21  O   UNL     1      -9.236   5.330  71.984  1.00  0.00    -0.136 OA 
HETATM   22  C   UNL     1     -11.168   5.009  73.309  1.00  0.00    -0.411 C  
ENDBRANCH  15  18
ENDBRANCH  11  12
ENDBRANCH  10  11
ENDBRANCH   7  10
ENDBRANCH   6   7
ENDBRANCH   4   6
ENDBRANCH   2   4
TORSDOF 7
ENDMDL
MODEL      144
REMARK 921   NORMALIZED FREE ENERGY PREDICTED BY IDOCK:   -3.57 KCAL/MOL
REMARK 922        TOTAL FREE ENERGY PREDICTED BY IDOCK:   -5.87 KCAL/MOL
REMARK 923 INTER-LIGAND FREE ENERGY PREDICTED BY IDOCK:   -5.34 KCAL/MOL
REMARK 924 INTRA-LIGAND FREE ENERGY PREDICTED BY IDOCK:   -0.53 KCAL/MOL
REMARK 927      BINDING AFFINITY PREDICTED BY RF-SCORE:    0.00 PKD
ROOT
HETATM    1  C   UNL     1     -10.313  19.655  67.991  1.00  0.00    -0.579 C  
HETATM    2  C   UNL     1      -9.942  19.308  66.548  1.00  0.00    -0.392 C  
HETATM    3  C   UNL     1     -10.865  20.058  65.585  1.00  0.00    -0.234 C  
ENDROOT
BRANCH   2   4
HETATM    4  N   UNL     1      -8.538  19.668  66.344  1.00  0.00    -0.349 NA 
HETATM    5  H   UNL     1      -8.367  20.631  66.632  1.00  0.00     0.000 HD 
BRANCH   4   6
HETATM    6  C   UNL     1      -7.597  18.755  67.002  1.00  0.00    -0.229 C  
BRANCH   6   7
HETATM    7  C   UNL     1      -7.395  17.508  66.127  1.00  0.00    -0.311 C  
HETATM    8  H   UNL     1      -5.875  16.530  65.334  1.00  0.00     0.000 HD 
HETATM    9  O   UNL     1      -5.999  17.301  65.875  1.00  0.00    -0.190 OA 
BRANCH   7  10
HETATM   10  C   UNL     1      -8.006  16.269  66.784  1.00  0.00    -0.271 C  
BRANCH  10  11
HETATM   11  O   UNL     1      -9.179  15.831  66.074  1.00  0.00    -0.331 OA 
BRANCH  11  12
HETATM   12  C   UNL     1      -9.456  14.491  66.228  1.00  0.00    -0.283 A  
HETATM   13  C   UNL     1     -10.366  13.788  65.449  1.00  0.00    -0.347 A  
HETATM   14  C   UNL     1     -10.650  12.451  65.705  1.00  0.00    -0.288 A  
HETATM   15  C   UNL     1     -10.011  11.768  66.740  1.00  0.00    -0.201 A  
HETATM   16  C   UNL     1      -8.781  13.813  67.247  1.00  0.00    -0.226 A  
HETATM   17  C   UNL     1      -9.060  12.458  67.506  1.00  0.00    -0.185 A  
BRANCH  15  18
HETATM   18  N   UNL     1     -10.326  10.429  67.058  1.00  0.00    -0.228 N  
HETATM   19  H   UNL     1     -10.923  10.270  67.869  1.00  0.00     0.000 HD 
HETATM   20  C   UNL     1      -9.894   9.309  66.362  1.00  0.00    -0.277 C  
HETATM   21  O   UNL     1      -9.039   9.272  65.484  1.00  0.00    -0.193 OA 
HETATM   22  C   UNL     1     -10.565   8.037  66.802  1.00  0.00    -0.225 C  
ENDBRANCH  15  18
ENDBRANCH  11  12
ENDBRANCH  10  11
ENDBRANCH   7  10
ENDBRANCH   6   7
ENDBRANCH   4   6
ENDBRANCH   2   4
TORSDOF 7
ENDMDL
MODEL      145
REMARK 921   NORMALIZED FREE ENERGY PREDICTED BY IDOCK:   -3.56 KCAL/MOL
REMARK 922        TOTAL FREE ENERGY PREDICTED BY IDOCK:   -5.86 KCAL/MOL
REMARK 923 INTER-LIGAND FREE ENERGY PREDICTED BY IDOCK:   -5.25 KCAL/MOL
REMARK 924 INTRA-LIGAND FREE ENERGY PREDICTED BY IDOCK:   -0.61 KCAL/MOL
REMARK 927      BINDING AFFINITY PREDICTED BY RF-SCORE:    0.00 PKD
ROOT
HETATM    1  C   UNL     1      -8.795  17.041  67.390  1.00  0.00    -0.210 C  
HETATM    2  C   UNL     1      -9.697  15.822  67.588  1.00  0.00    -0.222 C  
HETATM    3  C   UNL     1      -8.869  14.649  68.119  1.00  0.00    -0.173 C  
ENDROOT
BRANCH   2   4
HETATM    4  N   UNL     1     -10.765  16.196  68.516  1.00  0.00    -0.283 NA 
HETATM    5  H   UNL     1     -11.196  17.076  68.234  1.00  0.00     0.000 HD 
BRANCH   4   6
HETATM    6  C   UNL     1     -11.782  15.153  68.691  1.00  0.00    -0.341 C  
BRANCH   6   7
HETATM    7  C   UNL     1     -12.037  14.930  70.190  1.00  0.00    -0.327 C  
HETATM    8  H   UNL     1     -13.261  15.634  71.568  1.00  0.00     0.000 HD 
HETATM    9  O   UNL     1     -13.104  15.773  70.642  1.00  0.00    -0.497 OA 
BRANCH   7  10
HETATM   10  C   UNL     1     -12.358  13.463  70.481  1.00  0.00    -0.329 C  
BRANCH  10  11
HETATM   11  O   UNL     1     -11.865  12.606  69.434  1.00  0.00    -0.295 OA 
BRANCH  11  12
HETATM   12  C   UNL     1     -11.325  11.424  69.890  1.00  0.00    -0.219 A  
HETATM   13  C   UNL     1     -10.326  10.718  69.231  1.00  0.00    -0.228 A  
HETATM   14  C   UNL     1      -9.876   9.493  69.711  1.00  0.00    -0.236 A  
HETATM   15  C   UNL     1     -10.399   8.946  70.883  1.00  0.00    -0.240 A  
HETATM   16  C   UNL     1     -11.836  10.907  71.083  1.00  0.00    -0.189 A  
HETATM   17  C   UNL     1     -11.379   9.671  71.577  1.00  0.00    -0.420 A  
BRANCH  15  18
HETATM   18  N   UNL     1     -10.002   7.676  71.356  1.00  0.00    -0.181 N  
HETATM   19  H   UNL     1      -9.190   7.642  71.971  1.00  0.00     0.000 HD 
HETATM   20  C   UNL     1     -10.621   6.471  71.057  1.00  0.00    -0.231 C  
HETATM   21  O   UNL     1     -11.484   6.277  70.208  1.00  0.00    -0.378 OA 
HETATM   22  C   UNL     1     -10.110   5.318  71.876  1.00  0.00    -0.252 C  
ENDBRANCH  15  18
ENDBRANCH  11  12
ENDBRANCH  10  11
ENDBRANCH   7  10
ENDBRANCH   6   7
ENDBRANCH   4   6
ENDBRANCH   2   4
TORSDOF 7
ENDMDL
MODEL      146
REMARK 921   NORMALIZED FREE ENERGY PREDICTED BY IDOCK:   -3.51 KCAL/MOL
REMARK 922        TOTAL FREE ENERGY PREDICTED BY IDOCK:   -5.79 KCAL/MOL
REMARK 923 INTER-LIGAND FREE ENERGY PREDICTED BY IDOCK:   -4.64 KCAL/MOL
REMARK 924 INTRA-LIGAND FREE ENERGY PREDICTED BY IDOCK:   -1.15 KCAL/MOL
REMARK 927      BINDING AFFINITY PREDICTED BY RF-SCORE:    0.00 PKD
ROOT
HETATM    1  C   UNL     1      -7.985   7.146  73.536  1.00  0.00    -0.127 C  
HETATM    2  C   UNL     1      -9.063   6.415  74.339  1.00  0.00    -0.174 C  
HETATM    3  C   UNL     1     -10.445   6.937  73.940  1.00  0.00    -0.352 C  
ENDROOT
BRANCH   2   4
HETATM    4  N   UNL     1      -8.928   4.981  74.078  1.00  0.00    -0.113 NA 
HETATM    5  H   UNL     1      -9.845   4.540  74.009  1.00  0.00     0.000 HD 
BRANCH   4   6
HETATM    6  C   UNL     1      -8.115   4.674  72.898  1.00  0.00    -0.100 C  
BRANCH   6   7
HETATM    7  C   UNL     1      -8.962   3.896  71.879  1.00  0.00    -0.114 C  
HETATM    8  H   UNL     1     -10.806   3.203  71.761  1.00  0.00     0.000 HD 
HETATM    9  O   UNL     1     -10.283   3.684  72.391  1.00  0.00    -0.170 OA 
BRANCH   7  10
HETATM   10  C   UNL     1      -9.022   4.629  70.538  1.00  0.00    -0.109 C  
BRANCH  10  11
HETATM   11  O   UNL     1     -10.380   4.953  70.184  1.00  0.00    -0.265 OA 
BRANCH  11  12
HETATM   12  C   UNL     1     -10.691   6.286  70.331  1.00  0.00    -0.271 A  
HETATM   13  C   UNL     1      -9.795   7.325  70.109  1.00  0.00    -0.179 A  
HETATM   14  C   UNL     1     -10.156   8.647  70.345  1.00  0.00    -0.213 A  
HETATM   15  C   UNL     1     -11.438   8.973  70.790  1.00  0.00    -0.282 A  
HETATM   16  C   UNL     1     -11.990   6.597  70.743  1.00  0.00    -0.412 A  
HETATM   17  C   UNL     1     -12.361   7.934  70.976  1.00  0.00    -0.180 A  
BRANCH  15  18
HETATM   18  N   UNL     1     -11.808  10.301  71.093  1.00  0.00    -0.367 N  
HETATM   19  H   UNL     1     -11.817  10.569  72.077  1.00  0.00     0.000 HD 
HETATM   20  C   UNL     1     -12.161  11.274  70.169  1.00  0.00    -0.366 C  
HETATM   21  O   UNL     1     -12.385  11.109  68.975  1.00  0.00    -0.479 OA 
HETATM   22  C   UNL     1     -12.294  12.647  70.768  1.00  0.00    -0.372 C  
ENDBRANCH  15  18
ENDBRANCH  11  12
ENDBRANCH  10  11
ENDBRANCH   7  10
ENDBRANCH   6   7
ENDBRANCH   4   6
ENDBRANCH   2   4
TORSDOF 7
ENDMDL
MODEL      147
REMARK 921   NORMALIZED FREE ENERGY PREDICTED BY IDOCK:   -3.51 KCAL/MOL
REMARK 922        TOTAL FREE ENERGY PREDICTED BY IDOCK:   -5.79 KCAL/MOL
REMARK 923 INTER-LIGAND FREE ENERGY PREDICTED BY IDOCK:   -5.38 KCAL/MOL
REMARK 924 INTRA-LIGAND FREE ENERGY PREDICTED BY IDOCK:   -0.41 KCAL/MOL
REMARK 927      BINDING AFFINITY PREDICTED BY RF-SCORE:    0.00 PKD
ROOT
HETATM    1  C   UNL     1      -6.999  16.803  68.142  1.00  0.00    -0.160 C  
HETATM    2  C   UNL     1      -6.853  17.901  67.088  1.00  0.00    -0.178 C  
HETATM    3  C   UNL     1      -5.384  18.029  66.677  1.00  0.00    -0.175 C  
ENDROOT
BRANCH   2   4
HETATM    4  N   UNL     1      -7.705  17.553  65.950  1.00  0.00    -0.534 NA 
HETATM    5  H   UNL     1      -7.160  17.519  65.089  1.00  0.00     0.000 HD 
BRANCH   4   6
HETATM    6  C   UNL     1      -8.455  16.307  66.139  1.00  0.00    -0.278 C  
BRANCH   6   7
HETATM    7  C   UNL     1      -9.961  16.591  66.024  1.00  0.00    -0.337 C  
HETATM    8  H   UNL     1     -11.446  16.056  64.839  1.00  0.00     0.000 HD 
HETATM    9  O   UNL     1     -10.515  15.880  64.910  1.00  0.00    -0.542 OA 
BRANCH   7  10
HETATM   10  C   UNL     1     -10.693  16.214  67.313  1.00  0.00    -0.277 C  
BRANCH  10  11
HETATM   11  O   UNL     1     -11.700  15.215  67.065  1.00  0.00    -0.261 OA 
BRANCH  11  12
HETATM   12  C   UNL     1     -11.542  14.067  67.806  1.00  0.00    -0.345 A  
HETATM   13  C   UNL     1     -12.265  13.775  68.956  1.00  0.00    -0.259 A  
HETATM   14  C   UNL     1     -12.003  12.627  69.697  1.00  0.00    -0.352 A  
HETATM   15  C   UNL     1     -11.021  11.722  69.295  1.00  0.00    -0.175 A  
HETATM   16  C   UNL     1     -10.578  13.153  67.371  1.00  0.00    -0.247 A  
HETATM   17  C   UNL     1     -10.314  11.988  68.114  1.00  0.00    -0.207 A  
BRANCH  15  18
HETATM   18  N   UNL     1     -10.696  10.583  70.063  1.00  0.00    -0.420 N  
HETATM   19  H   UNL     1     -10.447  10.734  71.040  1.00  0.00     0.000 HD 
HETATM   20  C   UNL     1     -10.688   9.273  69.604  1.00  0.00    -0.230 C  
HETATM   21  O   UNL     1     -10.779   8.901  68.440  1.00  0.00    -0.176 OA 
HETATM   22  C   UNL     1     -10.515   8.258  70.700  1.00  0.00    -0.224 C  
ENDBRANCH  15  18
ENDBRANCH  11  12
ENDBRANCH  10  11
ENDBRANCH   7  10
ENDBRANCH   6   7
ENDBRANCH   4   6
ENDBRANCH   2   4
TORSDOF 7
ENDMDL
MODEL      148
REMARK 921   NORMALIZED FREE ENERGY PREDICTED BY IDOCK:   -3.51 KCAL/MOL
REMARK 922        TOTAL FREE ENERGY PREDICTED BY IDOCK:   -5.78 KCAL/MOL
REMARK 923 INTER-LIGAND FREE ENERGY PREDICTED BY IDOCK:   -5.52 KCAL/MOL
REMARK 924 INTRA-LIGAND FREE ENERGY PREDICTED BY IDOCK:   -0.27 KCAL/MOL
REMARK 927      BINDING AFFINITY PREDICTED BY RF-SCORE:    0.00 PKD
ROOT
HETATM    1  C   UNL     1      -5.218  19.131  66.148  1.00  0.00    -0.171 C  
HETATM    2  C   UNL     1      -6.479  19.891  65.732  1.00  0.00    -0.230 C  
HETATM    3  C   UNL     1      -6.170  20.777  64.523  1.00  0.00    -0.335 C  
ENDROOT
BRANCH   2   4
HETATM    4  N   UNL     1      -7.522  18.909  65.433  1.00  0.00    -0.392 NA 
HETATM    5  H   UNL     1      -7.308  18.409  64.570  1.00  0.00     0.000 HD 
BRANCH   4   6
HETATM    6  C   UNL     1      -7.773  17.968  66.529  1.00  0.00    -0.249 C  
BRANCH   6   7
HETATM    7  C   UNL     1      -9.285  17.734  66.669  1.00  0.00    -0.269 C  
HETATM    8  H   UNL     1     -10.944  18.714  66.242  1.00  0.00     0.000 HD 
HETATM    9  O   UNL     1     -10.010  18.858  66.155  1.00  0.00    -0.372 OA 
BRANCH   7  10
HETATM   10  C   UNL     1      -9.714  16.453  65.953  1.00  0.00    -0.294 C  
BRANCH  10  11
HETATM   11  O   UNL     1     -10.925  15.920  66.521  1.00  0.00    -0.252 OA 
BRANCH  11  12
HETATM   12  C   UNL     1     -10.978  14.545  66.532  1.00  0.00    -0.321 A  
HETATM   13  C   UNL     1     -11.879  13.805  67.287  1.00  0.00    -0.436 A  
HETATM   14  C   UNL     1     -11.831  12.416  67.305  1.00  0.00    -0.357 A  
HETATM   15  C   UNL     1     -10.888  11.720  66.547  1.00  0.00    -0.282 A  
HETATM   16  C   UNL     1     -10.049  13.864  65.740  1.00  0.00    -0.336 A  
HETATM   17  C   UNL     1     -10.000  12.457  65.750  1.00  0.00    -0.270 A  
BRANCH  15  18
HETATM   18  N   UNL     1     -10.780  10.313  66.597  1.00  0.00    -0.162 N  
HETATM   19  H   UNL     1     -10.880   9.807  65.717  1.00  0.00     0.000 HD 
HETATM   20  C   UNL     1     -10.550   9.560  67.739  1.00  0.00    -0.261 C  
HETATM   21  O   UNL     1     -10.581   9.953  68.899  1.00  0.00    -0.203 OA 
HETATM   22  C   UNL     1     -10.270   8.110  67.451  1.00  0.00    -0.327 C  
ENDBRANCH  15  18
ENDBRANCH  11  12
ENDBRANCH  10  11
ENDBRANCH   7  10
ENDBRANCH   6   7
ENDBRANCH   4   6
ENDBRANCH   2   4
TORSDOF 7
ENDMDL
MODEL      149
REMARK 921   NORMALIZED FREE ENERGY PREDICTED BY IDOCK:   -3.49 KCAL/MOL
REMARK 922        TOTAL FREE ENERGY PREDICTED BY IDOCK:   -5.76 KCAL/MOL
REMARK 923 INTER-LIGAND FREE ENERGY PREDICTED BY IDOCK:   -5.23 KCAL/MOL
REMARK 924 INTRA-LIGAND FREE ENERGY PREDICTED BY IDOCK:   -0.54 KCAL/MOL
REMARK 927      BINDING AFFINITY PREDICTED BY RF-SCORE:    0.00 PKD
ROOT
HETATM    1  C   UNL     1      -9.886   7.552  68.148  1.00  0.00    -0.179 C  
HETATM    2  C   UNL     1      -9.551   8.996  67.770  1.00  0.00    -0.150 C  
HETATM    3  C   UNL     1      -8.333   9.015  66.842  1.00  0.00    -0.119 C  
ENDROOT
BRANCH   2   4
HETATM    4  N   UNL     1     -10.730   9.581  67.130  1.00  0.00    -0.230 NA 
HETATM    5  H   UNL     1     -11.369   9.958  67.829  1.00  0.00     0.000 HD 
BRANCH   4   6
HETATM    6  C   UNL     1     -10.406  10.596  66.122  1.00  0.00    -0.227 C  
BRANCH   6   7
HETATM    7  C   UNL     1     -11.030  11.941  66.528  1.00  0.00    -0.292 C  
HETATM    8  H   UNL     1     -12.541  12.556  67.639  1.00  0.00     0.000 HD 
HETATM    9  O   UNL     1     -12.156  11.725  67.388  1.00  0.00    -0.595 OA 
BRANCH   7  10
HETATM   10  C   UNL     1     -10.002  12.840  67.215  1.00  0.00    -0.219 C  
BRANCH  10  11
HETATM   11  O   UNL     1     -10.633  13.986  67.816  1.00  0.00    -0.239 OA 
BRANCH  11  12
HETATM   12  C   UNL     1     -10.058  15.187  67.466  1.00  0.00    -0.232 A  
HETATM   13  C   UNL     1      -8.924  15.306  66.672  1.00  0.00    -0.324 A  
HETATM   14  C   UNL     1      -8.355  16.549  66.416  1.00  0.00    -0.358 A  
HETATM   15  C   UNL     1      -8.918  17.717  66.931  1.00  0.00    -0.246 A  
HETATM   16  C   UNL     1     -10.655  16.349  67.961  1.00  0.00    -0.314 A  
HETATM   17  C   UNL     1     -10.086  17.609  67.699  1.00  0.00    -0.339 A  
BRANCH  15  18
HETATM   18  N   UNL     1      -8.324  18.982  66.735  1.00  0.00    -0.278 N  
HETATM   19  H   UNL     1      -8.604  19.506  65.906  1.00  0.00     0.000 HD 
HETATM   20  C   UNL     1      -7.389  19.576  67.572  1.00  0.00    -0.238 C  
HETATM   21  O   UNL     1      -6.795  19.047  68.504  1.00  0.00    -0.249 OA 
HETATM   22  C   UNL     1      -7.101  21.010  67.223  1.00  0.00    -0.399 C  
ENDBRANCH  15  18
ENDBRANCH  11  12
ENDBRANCH  10  11
ENDBRANCH   7  10
ENDBRANCH   6   7
ENDBRANCH   4   6
ENDBRANCH   2   4
TORSDOF 7
ENDMDL
MODEL      150
REMARK 921   NORMALIZED FREE ENERGY PREDICTED BY IDOCK:   -3.48 KCAL/MOL
REMARK 922        TOTAL FREE ENERGY PREDICTED BY IDOCK:   -5.74 KCAL/MOL
REMARK 923 INTER-LIGAND FREE ENERGY PREDICTED BY IDOCK:   -5.18 KCAL/MOL
REMARK 924 INTRA-LIGAND FREE ENERGY PREDICTED BY IDOCK:   -0.56 KCAL/MOL
REMARK 927      BINDING AFFINITY PREDICTED BY RF-SCORE:    0.00 PKD
ROOT
HETATM    1  C   UNL     1      -8.224   4.996  66.482  1.00  0.00    -0.108 C  
HETATM    2  C   UNL     1      -7.811   5.732  67.758  1.00  0.00    -0.098 C  
HETATM    3  C   UNL     1      -6.635   6.665  67.457  1.00  0.00    -0.057 C  
ENDROOT
BRANCH   2   4
HETATM    4  N   UNL     1      -8.975   6.469  68.252  1.00  0.00    -0.122 NA 
HETATM    5  H   UNL     1      -9.089   6.331  69.256  1.00  0.00     0.000 HD 
BRANCH   4   6
HETATM    6  C   UNL     1      -8.947   7.898  67.924  1.00  0.00    -0.129 C  
BRANCH   6   7
HETATM    7  C   UNL     1     -10.061   8.215  66.914  1.00  0.00    -0.297 C  
HETATM    8  H   UNL     1     -11.736   7.373  66.299  1.00  0.00     0.000 HD 
HETATM    9  O   UNL     1     -11.048   7.177  66.923  1.00  0.00    -0.327 OA 
BRANCH   7  10
HETATM   10  C   UNL     1     -10.710   9.567  67.217  1.00  0.00    -0.199 C  
BRANCH  10  11
HETATM   11  O   UNL     1      -9.921  10.323  68.154  1.00  0.00    -0.142 OA 
BRANCH  11  12
HETATM   12  C   UNL     1     -10.653  11.206  68.915  1.00  0.00    -0.207 A  
HETATM   13  C   UNL     1     -11.412  10.840  70.020  1.00  0.00    -0.412 A  
HETATM   14  C   UNL     1     -12.185  11.773  70.702  1.00  0.00    -0.443 A  
HETATM   15  C   UNL     1     -12.206  13.112  70.309  1.00  0.00    -0.306 A  
HETATM   16  C   UNL     1     -10.636  12.549  68.530  1.00  0.00    -0.262 A  
HETATM   17  C   UNL     1     -11.412  13.498  69.220  1.00  0.00    -0.345 A  
BRANCH  15  18
HETATM   18  N   UNL     1     -13.030  14.064  70.948  1.00  0.00    -0.308 N  
HETATM   19  H   UNL     1     -14.001  14.121  70.641  1.00  0.00     0.000 HD 
HETATM   20  C   UNL     1     -12.633  14.931  71.956  1.00  0.00    -0.326 C  
HETATM   21  O   UNL     1     -11.487  15.144  72.335  1.00  0.00    -0.425 OA 
HETATM   22  C   UNL     1     -13.777  15.675  72.588  1.00  0.00    -0.666 C  
ENDBRANCH  15  18
ENDBRANCH  11  12
ENDBRANCH  10  11
ENDBRANCH   7  10
ENDBRANCH   6   7
ENDBRANCH   4   6
ENDBRANCH   2   4
TORSDOF 7
ENDMDL
MODEL      151
REMARK 921   NORMALIZED FREE ENERGY PREDICTED BY IDOCK:   -3.47 KCAL/MOL
REMARK 922        TOTAL FREE ENERGY PREDICTED BY IDOCK:   -5.72 KCAL/MOL
REMARK 923 INTER-LIGAND FREE ENERGY PREDICTED BY IDOCK:   -5.25 KCAL/MOL
REMARK 924 INTRA-LIGAND FREE ENERGY PREDICTED BY IDOCK:   -0.48 KCAL/MOL
REMARK 927      BINDING AFFINITY PREDICTED BY RF-SCORE:    0.00 PKD
ROOT
HETATM    1  C   UNL     1      -9.667   4.004  69.370  1.00  0.00    -0.205 C  
HETATM    2  C   UNL     1      -9.973   5.066  70.428  1.00  0.00    -0.247 C  
HETATM    3  C   UNL     1     -10.066   4.407  71.807  1.00  0.00    -0.238 C  
ENDROOT
BRANCH   2   4
HETATM    4  N   UNL     1      -8.912   6.073  70.379  1.00  0.00    -0.147 NA 
HETATM    5  H   UNL     1      -8.248   5.860  69.635  1.00  0.00     0.000 HD 
BRANCH   4   6
HETATM    6  C   UNL     1      -9.413   7.445  70.251  1.00  0.00    -0.165 C  
BRANCH   6   7
HETATM    7  C   UNL     1      -8.948   8.038  68.911  1.00  0.00    -0.141 C  
HETATM    8  H   UNL     1      -7.769   7.499  67.423  1.00  0.00     0.000 HD 
HETATM    9  O   UNL     1      -8.056   7.132  68.251  1.00  0.00    -0.121 OA 
BRANCH   7  10
HETATM   10  C   UNL     1     -10.140   8.362  68.009  1.00  0.00    -0.199 C  
BRANCH  10  11
HETATM   11  O   UNL     1     -11.008   9.333  68.625  1.00  0.00    -0.128 OA 
BRANCH  11  12
HETATM   12  C   UNL     1     -11.093  10.521  67.935  1.00  0.00    -0.304 A  
HETATM   13  C   UNL     1     -10.518  10.743  66.690  1.00  0.00    -0.302 A  
HETATM   14  C   UNL     1     -10.582  11.991  66.081  1.00  0.00    -0.298 A  
HETATM   15  C   UNL     1     -11.248  13.054  66.692  1.00  0.00    -0.307 A  
HETATM   16  C   UNL     1     -11.793  11.565  68.545  1.00  0.00    -0.365 A  
HETATM   17  C   UNL     1     -11.867  12.829  67.930  1.00  0.00    -0.392 A  
BRANCH  15  18
HETATM   18  N   UNL     1     -11.275  14.346  66.122  1.00  0.00    -0.330 N  
HETATM   19  H   UNL     1     -10.839  15.099  66.653  1.00  0.00     0.000 HD 
HETATM   20  C   UNL     1     -11.843  14.679  64.900  1.00  0.00    -0.403 C  
HETATM   21  O   UNL     1     -12.562  13.970  64.205  1.00  0.00    -0.680 OA 
HETATM   22  C   UNL     1     -11.528  16.081  64.458  1.00  0.00    -0.274 C  
ENDBRANCH  15  18
ENDBRANCH  11  12
ENDBRANCH  10  11
ENDBRANCH   7  10
ENDBRANCH   6   7
ENDBRANCH   4   6
ENDBRANCH   2   4
TORSDOF 7
ENDMDL
MODEL      152
REMARK 921   NORMALIZED FREE ENERGY PREDICTED BY IDOCK:   -3.46 KCAL/MOL
REMARK 922        TOTAL FREE ENERGY PREDICTED BY IDOCK:   -5.72 KCAL/MOL
REMARK 923 INTER-LIGAND FREE ENERGY PREDICTED BY IDOCK:   -5.21 KCAL/MOL
REMARK 924 INTRA-LIGAND FREE ENERGY PREDICTED BY IDOCK:   -0.52 KCAL/MOL
REMARK 927      BINDING AFFINITY PREDICTED BY RF-SCORE:    0.00 PKD
ROOT
HETATM    1  C   UNL     1      -9.753  20.425  67.068  1.00  0.00    -0.588 C  
HETATM    2  C   UNL     1      -8.681  19.693  66.260  1.00  0.00    -0.369 C  
HETATM    3  C   UNL     1      -7.342  19.766  66.997  1.00  0.00    -0.251 C  
ENDROOT
BRANCH   2   4
HETATM    4  N   UNL     1      -9.122  18.311  66.070  1.00  0.00    -0.513 NA 
HETATM    5  H   UNL     1      -8.622  17.684  66.700  1.00  0.00     0.000 HD 
BRANCH   4   6
HETATM    6  C   UNL     1     -10.571  18.134  66.204  1.00  0.00    -0.274 C  
BRANCH   6   7
HETATM    7  C   UNL     1     -10.989  16.807  65.551  1.00  0.00    -0.031 C  
HETATM    8  H   UNL     1     -11.691  16.214  63.804  1.00  0.00     0.000 HD 
HETATM    9  O   UNL     1     -11.432  17.034  64.207  1.00  0.00    -1.124 OA 
BRANCH   7  10
HETATM   10  C   UNL     1      -9.840  15.798  65.568  1.00  0.00    -0.264 C  
BRANCH  10  11
HETATM   11  O   UNL     1      -9.187  15.778  66.852  1.00  0.00    -0.208 OA 
BRANCH  11  12
HETATM   12  C   UNL     1      -9.028  14.515  67.376  1.00  0.00    -0.200 A  
HETATM   13  C   UNL     1     -10.048  13.577  67.474  1.00  0.00    -0.234 A  
HETATM   14  C   UNL     1      -9.835  12.344  68.080  1.00  0.00    -0.213 A  
HETATM   15  C   UNL     1      -8.581  12.002  68.589  1.00  0.00    -0.011 A  
HETATM   16  C   UNL     1      -7.757  14.175  67.849  1.00  0.00    -0.161 A  
HETATM   17  C   UNL     1      -7.535  12.926  68.457  1.00  0.00    -0.123 A  
BRANCH  15  18
HETATM   18  N   UNL     1      -8.356  10.781  69.262  1.00  0.00    -0.331 N  
HETATM   19  H   UNL     1      -8.339  10.807  70.281  1.00  0.00     0.000 HD 
HETATM   20  C   UNL     1      -8.156   9.549  68.656  1.00  0.00    -0.097 C  
HETATM   21  O   UNL     1      -7.962   9.336  67.465  1.00  0.00    -0.099 OA 
HETATM   22  C   UNL     1      -8.160   8.400  69.627  1.00  0.00    -0.115 C  
ENDBRANCH  15  18
ENDBRANCH  11  12
ENDBRANCH  10  11
ENDBRANCH   7  10
ENDBRANCH   6   7
ENDBRANCH   4   6
ENDBRANCH   2   4
TORSDOF 7
ENDMDL
MODEL      153
REMARK 921   NORMALIZED FREE ENERGY PREDICTED BY IDOCK:   -3.46 KCAL/MOL
REMARK 922        TOTAL FREE ENERGY PREDICTED BY IDOCK:   -5.71 KCAL/MOL
REMARK 923 INTER-LIGAND FREE ENERGY PREDICTED BY IDOCK:   -4.93 KCAL/MOL
REMARK 924 INTRA-LIGAND FREE ENERGY PREDICTED BY IDOCK:   -0.78 KCAL/MOL
REMARK 927      BINDING AFFINITY PREDICTED BY RF-SCORE:    0.00 PKD
ROOT
HETATM    1  C   UNL     1     -11.921   6.316  72.056  1.00  0.00    -0.353 C  
HETATM    2  C   UNL     1     -12.029   7.369  70.952  1.00  0.00    -0.277 C  
HETATM    3  C   UNL     1     -12.305   8.740  71.574  1.00  0.00    -0.380 C  
ENDROOT
BRANCH   2   4
HETATM    4  N   UNL     1     -10.778   7.360  70.194  1.00  0.00    -0.238 NA 
HETATM    5  H   UNL     1     -10.025   6.950  70.746  1.00  0.00     0.000 HD 
BRANCH   4   6
HETATM    6  C   UNL     1     -10.886   6.697  68.891  1.00  0.00    -0.277 C  
BRANCH   6   7
HETATM    7  C   UNL     1      -9.744   7.168  67.977  1.00  0.00    -0.138 C  
HETATM    8  H   UNL     1      -8.577   6.376  66.597  1.00  0.00     0.000 HD 
HETATM    9  O   UNL     1      -9.283   6.084  67.161  1.00  0.00    -0.116 OA 
BRANCH   7  10
HETATM   10  C   UNL     1     -10.189   8.341  67.101  1.00  0.00    -0.295 C  
BRANCH  10  11
HETATM   11  O   UNL     1     -10.972   9.285  67.855  1.00  0.00    -0.168 OA 
BRANCH  11  12
HETATM   12  C   UNL     1     -10.685  10.600  67.571  1.00  0.00    -0.272 A  
HETATM   13  C   UNL     1     -10.842  11.645  68.474  1.00  0.00    -0.257 A  
HETATM   14  C   UNL     1     -10.600  12.962  68.098  1.00  0.00    -0.249 A  
HETATM   15  C   UNL     1     -10.170  13.272  66.807  1.00  0.00    -0.254 A  
HETATM   16  C   UNL     1     -10.221  10.890  66.285  1.00  0.00    -0.300 A  
HETATM   17  C   UNL     1      -9.969  12.220  65.902  1.00  0.00    -0.272 A  
BRANCH  15  18
HETATM   18  N   UNL     1      -9.976  14.605  66.385  1.00  0.00    -0.271 N  
HETATM   19  H   UNL     1     -10.732  15.042  65.859  1.00  0.00     0.000 HD 
HETATM   20  C   UNL     1      -8.845  15.373  66.623  1.00  0.00    -0.295 C  
HETATM   21  O   UNL     1      -7.772  14.984  67.069  1.00  0.00    -0.198 OA 
HETATM   22  C   UNL     1      -9.014  16.818  66.243  1.00  0.00    -0.325 C  
ENDBRANCH  15  18
ENDBRANCH  11  12
ENDBRANCH  10  11
ENDBRANCH   7  10
ENDBRANCH   6   7
ENDBRANCH   4   6
ENDBRANCH   2   4
TORSDOF 7
ENDMDL
MODEL      154
REMARK 921   NORMALIZED FREE ENERGY PREDICTED BY IDOCK:   -3.46 KCAL/MOL
REMARK 922        TOTAL FREE ENERGY PREDICTED BY IDOCK:   -5.71 KCAL/MOL
REMARK 923 INTER-LIGAND FREE ENERGY PREDICTED BY IDOCK:   -5.63 KCAL/MOL
REMARK 924 INTRA-LIGAND FREE ENERGY PREDICTED BY IDOCK:   -0.08 KCAL/MOL
REMARK 927      BINDING AFFINITY PREDICTED BY RF-SCORE:    0.00 PKD
ROOT
HETATM    1  C   UNL     1     -10.393   8.604  66.805  1.00  0.00    -0.336 C  
HETATM    2  C   UNL     1      -9.851   9.975  67.212  1.00  0.00    -0.181 C  
HETATM    3  C   UNL     1      -8.331  10.002  67.034  1.00  0.00    -0.121 C  
ENDROOT
BRANCH   2   4
HETATM    4  N   UNL     1     -10.512  10.986  66.385  1.00  0.00    -0.254 NA 
HETATM    5  H   UNL     1     -10.825  11.771  66.957  1.00  0.00     0.000 HD 
BRANCH   4   6
HETATM    6  C   UNL     1      -9.690  11.457  65.265  1.00  0.00    -0.241 C  
BRANCH   6   7
HETATM    7  C   UNL     1     -10.600  11.870  64.098  1.00  0.00    -0.350 C  
HETATM    8  H   UNL     1     -10.995  11.225  62.275  1.00  0.00     0.000 HD 
HETATM    9  O   UNL     1     -10.433  10.969  62.996  1.00  0.00    -0.238 OA 
BRANCH   7  10
HETATM   10  C   UNL     1     -12.066  11.914  64.531  1.00  0.00    -0.172 C  
BRANCH  10  11
HETATM   11  O   UNL     1     -12.641  13.211  64.286  1.00  0.00    -0.610 OA 
BRANCH  11  12
HETATM   12  C   UNL     1     -12.045  14.229  64.995  1.00  0.00    -0.425 A  
HETATM   13  C   UNL     1     -11.885  14.228  66.375  1.00  0.00    -0.427 A  
HETATM   14  C   UNL     1     -11.337  15.322  67.036  1.00  0.00    -0.230 A  
HETATM   15  C   UNL     1     -10.910  16.447  66.329  1.00  0.00    -0.066 A  
HETATM   16  C   UNL     1     -11.591  15.333  64.269  1.00  0.00    -0.204 A  
HETATM   17  C   UNL     1     -11.030  16.440  64.932  1.00  0.00    -0.277 A  
BRANCH  15  18
HETATM   18  N   UNL     1     -10.407  17.593  66.983  1.00  0.00    -0.332 N  
HETATM   19  H   UNL     1     -10.189  18.402  66.403  1.00  0.00     0.000 HD 
HETATM   20  C   UNL     1     -10.184  17.713  68.347  1.00  0.00    -0.381 C  
HETATM   21  O   UNL     1     -10.209  16.814  69.180  1.00  0.00    -0.284 OA 
HETATM   22  C   UNL     1      -9.852  19.116  68.776  1.00  0.00    -0.502 C  
ENDBRANCH  15  18
ENDBRANCH  11  12
ENDBRANCH  10  11
ENDBRANCH   7  10
ENDBRANCH   6   7
ENDBRANCH   4   6
ENDBRANCH   2   4
TORSDOF 7
ENDMDL
MODEL      155
REMARK 921   NORMALIZED FREE ENERGY PREDICTED BY IDOCK:   -3.45 KCAL/MOL
REMARK 922        TOTAL FREE ENERGY PREDICTED BY IDOCK:   -5.70 KCAL/MOL
REMARK 923 INTER-LIGAND FREE ENERGY PREDICTED BY IDOCK:   -4.93 KCAL/MOL
REMARK 924 INTRA-LIGAND FREE ENERGY PREDICTED BY IDOCK:   -0.77 KCAL/MOL
REMARK 927      BINDING AFFINITY PREDICTED BY RF-SCORE:    0.00 PKD
ROOT
HETATM    1  C   UNL     1      -6.704  10.508  65.786  1.00  0.00    -0.123 C  
HETATM    2  C   UNL     1      -7.192  10.346  67.226  1.00  0.00    -0.089 C  
HETATM    3  C   UNL     1      -6.129  10.874  68.193  1.00  0.00    -0.049 C  
ENDROOT
BRANCH   2   4
HETATM    4  N   UNL     1      -8.455  11.072  67.361  1.00  0.00    -0.131 NA 
HETATM    5  H   UNL     1      -8.295  12.079  67.353  1.00  0.00     0.000 HD 
BRANCH   4   6
HETATM    6  C   UNL     1      -9.456  10.698  66.356  1.00  0.00    -0.171 C  
BRANCH   6   7
HETATM    7  C   UNL     1     -10.820  10.505  67.037  1.00  0.00    -0.225 C  
HETATM    8  H   UNL     1     -11.543   9.484  68.563  1.00  0.00     0.000 HD 
HETATM    9  O   UNL     1     -10.699   9.603  68.143  1.00  0.00    -0.229 OA 
BRANCH   7  10
HETATM   10  C   UNL     1     -11.397  11.843  67.503  1.00  0.00    -0.314 C  
BRANCH  10  11
HETATM   11  O   UNL     1     -10.712  12.323  68.675  1.00  0.00    -0.225 OA 
BRANCH  11  12
HETATM   12  C   UNL     1     -10.737  13.692  68.814  1.00  0.00    -0.244 A  
HETATM   13  C   UNL     1     -11.868  14.419  69.166  1.00  0.00    -0.359 A  
HETATM   14  C   UNL     1     -11.841  15.809  69.219  1.00  0.00    -0.358 A  
HETATM   15  C   UNL     1     -10.670  16.515  68.942  1.00  0.00    -0.337 A  
HETATM   16  C   UNL     1      -9.547  14.382  68.567  1.00  0.00    -0.217 A  
HETATM   17  C   UNL     1      -9.513  15.788  68.626  1.00  0.00    -0.208 A  
BRANCH  15  18
HETATM   18  N   UNL     1     -10.634  17.926  68.930  1.00  0.00    -0.363 N  
HETATM   19  H   UNL     1     -10.727  18.402  69.827  1.00  0.00     0.000 HD 
HETATM   20  C   UNL     1     -10.482  18.722  67.804  1.00  0.00    -0.420 C  
HETATM   21  O   UNL     1     -10.535  18.361  66.634  1.00  0.00    -0.384 OA 
HETATM   22  C   UNL     1     -10.263  20.175  68.125  1.00  0.00    -0.479 C  
ENDBRANCH  15  18
ENDBRANCH  11  12
ENDBRANCH  10  11
ENDBRANCH   7  10
ENDBRANCH   6   7
ENDBRANCH   4   6
ENDBRANCH   2   4
TORSDOF 7
ENDMDL
MODEL      156
REMARK 921   NORMALIZED FREE ENERGY PREDICTED BY IDOCK:   -3.44 KCAL/MOL
REMARK 922        TOTAL FREE ENERGY PREDICTED BY IDOCK:   -5.69 KCAL/MOL
REMARK 923 INTER-LIGAND FREE ENERGY PREDICTED BY IDOCK:   -6.24 KCAL/MOL
REMARK 924 INTRA-LIGAND FREE ENERGY PREDICTED BY IDOCK:    0.55 KCAL/MOL
REMARK 927      BINDING AFFINITY PREDICTED BY RF-SCORE:    0.00 PKD
ROOT
HETATM    1  C   UNL     1      -6.669  18.224  67.737  1.00  0.00    -0.206 C  
HETATM    2  C   UNL     1      -8.165  18.489  67.558  1.00  0.00    -0.252 C  
HETATM    3  C   UNL     1      -8.377  19.495  66.424  1.00  0.00    -0.364 C  
ENDROOT
BRANCH   2   4
HETATM    4  N   UNL     1      -8.821  17.211  67.280  1.00  0.00    -0.214 NA 
HETATM    5  H   UNL     1      -9.754  17.188  67.690  1.00  0.00     0.000 HD 
BRANCH   4   6
HETATM    6  C   UNL     1      -8.873  16.877  65.853  1.00  0.00    -0.032 C  
BRANCH   6   7
HETATM    7  C   UNL     1     -10.208  16.184  65.536  1.00  0.00    -0.331 C  
HETATM    8  H   UNL     1     -11.689  16.419  64.253  1.00  0.00     0.000 HD 
HETATM    9  O   UNL     1     -10.864  16.847  64.449  1.00  0.00    -0.770 OA 
BRANCH   7  10
HETATM   10  C   UNL     1      -9.996  14.706  65.207  1.00  0.00    -0.294 C  
BRANCH  10  11
HETATM   11  O   UNL     1     -11.188  13.941  65.465  1.00  0.00    -0.301 OA 
BRANCH  11  12
HETATM   12  C   UNL     1     -11.446  13.744  66.802  1.00  0.00    -0.348 A  
HETATM   13  C   UNL     1     -11.473  12.497  67.416  1.00  0.00    -0.404 A  
HETATM   14  C   UNL     1     -11.811  12.365  68.758  1.00  0.00    -0.358 A  
HETATM   15  C   UNL     1     -12.110  13.483  69.537  1.00  0.00    -0.297 A  
HETATM   16  C   UNL     1     -11.710  14.877  67.576  1.00  0.00    -0.328 A  
HETATM   17  C   UNL     1     -12.045  14.749  68.936  1.00  0.00    -0.240 A  
BRANCH  15  18
HETATM   18  N   UNL     1     -12.514  13.369  70.885  1.00  0.00    -0.371 N  
HETATM   19  H   UNL     1     -12.240  12.522  71.383  1.00  0.00     0.000 HD 
HETATM   20  C   UNL     1     -13.252  14.308  71.591  1.00  0.00    -0.356 C  
HETATM   21  O   UNL     1     -13.823  15.291  71.134  1.00  0.00    -0.469 OA 
HETATM   22  C   UNL     1     -13.343  14.011  73.063  1.00  0.00    -0.303 C  
ENDBRANCH  15  18
ENDBRANCH  11  12
ENDBRANCH  10  11
ENDBRANCH   7  10
ENDBRANCH   6   7
ENDBRANCH   4   6
ENDBRANCH   2   4
TORSDOF 7
ENDMDL
MODEL      157
REMARK 921   NORMALIZED FREE ENERGY PREDICTED BY IDOCK:   -3.40 KCAL/MOL
REMARK 922        TOTAL FREE ENERGY PREDICTED BY IDOCK:   -5.63 KCAL/MOL
REMARK 923 INTER-LIGAND FREE ENERGY PREDICTED BY IDOCK:   -4.73 KCAL/MOL
REMARK 924 INTRA-LIGAND FREE ENERGY PREDICTED BY IDOCK:   -0.90 KCAL/MOL
REMARK 927      BINDING AFFINITY PREDICTED BY RF-SCORE:    0.00 PKD
ROOT
HETATM    1  C   UNL     1     -14.055   7.315  71.153  1.00  0.00    -0.226 C  
HETATM    2  C   UNL     1     -12.807   8.040  71.659  1.00  0.00    -0.329 C  
HETATM    3  C   UNL     1     -13.196   9.417  72.202  1.00  0.00    -0.541 C  
ENDROOT
BRANCH   2   4
HETATM    4  N   UNL     1     -12.186   7.206  72.689  1.00  0.00    -0.487 NA 
HETATM    5  H   UNL     1     -12.298   6.217  72.468  1.00  0.00     0.000 HD 
BRANCH   4   6
HETATM    6  C   UNL     1     -10.776   7.527  72.932  1.00  0.00    -0.358 C  
BRANCH   6   7
HETATM    7  C   UNL     1      -9.970   7.311  71.641  1.00  0.00    -0.180 C  
HETATM    8  H   UNL     1      -8.186   7.797  70.953  1.00  0.00     0.000 HD 
HETATM    9  O   UNL     1      -8.683   7.931  71.751  1.00  0.00    -0.111 OA 
BRANCH   7  10
HETATM   10  C   UNL     1      -9.817   5.821  71.332  1.00  0.00    -0.170 C  
BRANCH  10  11
HETATM   11  O   UNL     1     -10.763   5.398  70.332  1.00  0.00    -0.274 OA 
BRANCH  11  12
HETATM   12  C   UNL     1     -10.297   5.511  69.041  1.00  0.00    -0.233 A  
HETATM   13  C   UNL     1      -9.143   4.895  68.572  1.00  0.00    -0.143 A  
HETATM   14  C   UNL     1      -8.692   5.109  67.274  1.00  0.00    -0.103 A  
HETATM   15  C   UNL     1      -9.397   5.932  66.396  1.00  0.00    -0.157 A  
HETATM   16  C   UNL     1     -11.034   6.311  68.164  1.00  0.00    -0.412 A  
HETATM   17  C   UNL     1     -10.585   6.526  66.848  1.00  0.00    -0.376 A  
BRANCH  15  18
HETATM   18  N   UNL     1      -8.926   6.213  65.094  1.00  0.00    -0.369 N  
HETATM   19  H   UNL     1      -9.218   5.583  64.347  1.00  0.00     0.000 HD 
HETATM   20  C   UNL     1      -8.100   7.271  64.743  1.00  0.00    -0.097 C  
HETATM   21  O   UNL     1      -7.502   8.022  65.505  1.00  0.00    -0.076 OA 
HETATM   22  C   UNL     1      -7.944   7.439  63.257  1.00  0.00    -0.086 C  
ENDBRANCH  15  18
ENDBRANCH  11  12
ENDBRANCH  10  11
ENDBRANCH   7  10
ENDBRANCH   6   7
ENDBRANCH   4   6
ENDBRANCH   2   4
TORSDOF 7
ENDMDL
MODEL      158
REMARK 921   NORMALIZED FREE ENERGY PREDICTED BY IDOCK:   -3.39 KCAL/MOL
REMARK 922        TOTAL FREE ENERGY PREDICTED BY IDOCK:   -5.61 KCAL/MOL
REMARK 923 INTER-LIGAND FREE ENERGY PREDICTED BY IDOCK:   -5.03 KCAL/MOL
REMARK 924 INTRA-LIGAND FREE ENERGY PREDICTED BY IDOCK:   -0.58 KCAL/MOL
REMARK 927      BINDING AFFINITY PREDICTED BY RF-SCORE:    0.00 PKD
ROOT
HETATM    1  C   UNL     1     -12.295  13.816  70.774  1.00  0.00    -0.451 C  
HETATM    2  C   UNL     1     -11.952  13.226  69.405  1.00  0.00    -0.301 C  
HETATM    3  C   UNL     1     -11.666  14.357  68.414  1.00  0.00    -0.367 C  
ENDROOT
BRANCH   2   4
HETATM    4  N   UNL     1     -10.796  12.344  69.570  1.00  0.00    -0.452 NA 
HETATM    5  H   UNL     1     -10.691  12.066  70.546  1.00  0.00     0.000 HD 
BRANCH   4   6
HETATM    6  C   UNL     1     -10.828  11.166  68.696  1.00  0.00    -0.209 C  
BRANCH   6   7
HETATM    7  C   UNL     1     -10.527   9.905  69.522  1.00  0.00    -0.241 C  
HETATM    8  H   UNL     1      -8.953   9.080  70.378  1.00  0.00     0.000 HD 
HETATM    9  O   UNL     1      -9.138   9.859  69.868  1.00  0.00    -0.218 OA 
BRANCH   7  10
HETATM   10  C   UNL     1     -11.391   9.855  70.783  1.00  0.00    -0.353 C  
BRANCH  10  11
HETATM   11  O   UNL     1     -12.031   8.572  70.923  1.00  0.00    -0.271 OA 
BRANCH  11  12
HETATM   12  C   UNL     1     -11.320   7.674  71.686  1.00  0.00    -0.251 A  
HETATM   13  C   UNL     1     -10.816   7.952  72.951  1.00  0.00    -0.451 A  
HETATM   14  C   UNL     1     -10.044   7.021  73.637  1.00  0.00    -0.376 A  
HETATM   15  C   UNL     1      -9.770   5.769  73.085  1.00  0.00    -0.154 A  
HETATM   16  C   UNL     1     -11.084   6.413  71.133  1.00  0.00    -0.344 A  
HETATM   17  C   UNL     1     -10.309   5.465  71.826  1.00  0.00    -0.271 A  
BRANCH  15  18
HETATM   18  N   UNL     1      -8.940   4.831  73.736  1.00  0.00    -0.107 N  
HETATM   19  H   UNL     1      -9.388   4.176  74.375  1.00  0.00     0.000 HD 
HETATM   20  C   UNL     1      -7.565   4.724  73.581  1.00  0.00    -0.091 C  
HETATM   21  O   UNL     1      -6.824   5.516  73.010  1.00  0.00    -0.074 OA 
HETATM   22  C   UNL     1      -6.985   3.498  74.232  1.00  0.00    -0.047 C  
ENDBRANCH  15  18
ENDBRANCH  11  12
ENDBRANCH  10  11
ENDBRANCH   7  10
ENDBRANCH   6   7
ENDBRANCH   4   6
ENDBRANCH   2   4
TORSDOF 7
ENDMDL
MODEL      159
REMARK 921   NORMALIZED FREE ENERGY PREDICTED BY IDOCK:   -3.38 KCAL/MOL
REMARK 922        TOTAL FREE ENERGY PREDICTED BY IDOCK:   -5.60 KCAL/MOL
REMARK 923 INTER-LIGAND FREE ENERGY PREDICTED BY IDOCK:   -4.70 KCAL/MOL
REMARK 924 INTRA-LIGAND FREE ENERGY PREDICTED BY IDOCK:   -0.91 KCAL/MOL
REMARK 927      BINDING AFFINITY PREDICTED BY RF-SCORE:    0.00 PKD
ROOT
HETATM    1  C   UNL     1     -12.166   6.827  71.271  1.00  0.00    -0.415 C  
HETATM    2  C   UNL     1     -10.711   6.470  71.579  1.00  0.00    -0.235 C  
HETATM    3  C   UNL     1     -10.658   5.159  72.366  1.00  0.00    -0.278 C  
ENDROOT
BRANCH   2   4
HETATM    4  N   UNL     1      -9.991   6.370  70.309  1.00  0.00    -0.167 NA 
HETATM    5  H   UNL     1     -10.014   7.260  69.811  1.00  0.00     0.000 HD 
BRANCH   4   6
HETATM    6  C   UNL     1      -8.613   5.890  70.452  1.00  0.00    -0.135 C  
BRANCH   6   7
HETATM    7  C   UNL     1      -7.697   7.063  70.834  1.00  0.00    -0.095 C  
HETATM    8  H   UNL     1      -5.757   7.407  70.939  1.00  0.00     0.000 HD 
HETATM    9  O   UNL     1      -6.323   6.682  70.703  1.00  0.00    -0.038 OA 
BRANCH   7  10
HETATM   10  C   UNL     1      -7.992   8.293  69.974  1.00  0.00    -0.104 C  
BRANCH  10  11
HETATM   11  O   UNL     1      -8.887   9.197  70.649  1.00  0.00    -0.194 OA 
BRANCH  11  12
HETATM   12  C   UNL     1      -9.496  10.105  69.814  1.00  0.00    -0.167 A  
HETATM   13  C   UNL     1      -8.811  10.976  68.976  1.00  0.00    -0.068 A  
HETATM   14  C   UNL     1      -9.488  11.919  68.210  1.00  0.00    -0.197 A  
HETATM   15  C   UNL     1     -10.880  12.004  68.243  1.00  0.00    -0.229 A  
HETATM   16  C   UNL     1     -10.893  10.154  69.833  1.00  0.00    -0.347 A  
HETATM   17  C   UNL     1     -11.583  11.102  69.054  1.00  0.00    -0.392 A  
BRANCH  15  18
HETATM   18  N   UNL     1     -11.586  12.991  67.521  1.00  0.00    -0.334 N  
HETATM   19  H   UNL     1     -11.799  13.861  68.008  1.00  0.00     0.000 HD 
HETATM   20  C   UNL     1     -12.015  12.880  66.206  1.00  0.00    -0.408 C  
HETATM   21  O   UNL     1     -12.020  11.867  65.516  1.00  0.00    -0.399 OA 
HETATM   22  C   UNL     1     -12.545  14.169  65.641  1.00  0.00    -0.495 C  
ENDBRANCH  15  18
ENDBRANCH  11  12
ENDBRANCH  10  11
ENDBRANCH   7  10
ENDBRANCH   6   7
ENDBRANCH   4   6
ENDBRANCH   2   4
TORSDOF 7
ENDMDL
MODEL      160
REMARK 921   NORMALIZED FREE ENERGY PREDICTED BY IDOCK:   -3.37 KCAL/MOL
REMARK 922        TOTAL FREE ENERGY PREDICTED BY IDOCK:   -5.59 KCAL/MOL
REMARK 923 INTER-LIGAND FREE ENERGY PREDICTED BY IDOCK:   -5.36 KCAL/MOL
REMARK 924 INTRA-LIGAND FREE ENERGY PREDICTED BY IDOCK:   -0.23 KCAL/MOL
REMARK 927      BINDING AFFINITY PREDICTED BY RF-SCORE:    0.00 PKD
ROOT
HETATM    1  C   UNL     1     -10.354   5.399  70.300  1.00  0.00    -0.357 C  
HETATM    2  C   UNL     1      -8.894   5.839  70.173  1.00  0.00    -0.140 C  
HETATM    3  C   UNL     1      -8.047   5.124  71.229  1.00  0.00    -0.113 C  
ENDROOT
BRANCH   2   4
HETATM    4  N   UNL     1      -8.444   5.529  68.816  1.00  0.00    -0.101 NA 
HETATM    5  H   UNL     1      -9.074   4.861  68.371  1.00  0.00     0.000 HD 
BRANCH   4   6
HETATM    6  C   UNL     1      -8.266   6.715  67.972  1.00  0.00    -0.117 C  
BRANCH   6   7
HETATM    7  C   UNL     1      -9.298   6.696  66.834  1.00  0.00    -0.148 C  
HETATM    8  H   UNL     1     -10.501   5.374  65.996  1.00  0.00     0.000 HD 
HETATM    9  O   UNL     1      -9.863   5.386  66.699  1.00  0.00    -0.146 OA 
BRANCH   7  10
HETATM   10  C   UNL     1     -10.402   7.727  67.074  1.00  0.00    -0.334 C  
BRANCH  10  11
HETATM   11  O   UNL     1      -9.898   9.069  66.931  1.00  0.00    -0.185 OA 
BRANCH  11  12
HETATM   12  C   UNL     1     -10.541   9.993  67.722  1.00  0.00    -0.261 A  
HETATM   13  C   UNL     1     -10.920  11.259  67.293  1.00  0.00    -0.342 A  
HETATM   14  C   UNL     1     -11.503  12.170  68.167  1.00  0.00    -0.375 A  
HETATM   15  C   UNL     1     -11.747  11.832  69.498  1.00  0.00    -0.343 A  
HETATM   16  C   UNL     1     -10.809   9.626  69.044  1.00  0.00    -0.206 A  
HETATM   17  C   UNL     1     -11.405  10.542  69.931  1.00  0.00    -0.380 A  
BRANCH  15  18
HETATM   18  N   UNL     1     -12.281  12.760  70.419  1.00  0.00    -0.361 N  
HETATM   19  H   UNL     1     -12.130  13.749  70.225  1.00  0.00     0.000 HD 
HETATM   20  C   UNL     1     -12.996  12.442  71.565  1.00  0.00    -0.285 C  
HETATM   21  O   UNL     1     -13.128  11.331  72.066  1.00  0.00    -0.495 OA 
HETATM   22  C   UNL     1     -13.621  13.637  72.229  1.00  0.00    -0.669 C  
ENDBRANCH  15  18
ENDBRANCH  11  12
ENDBRANCH  10  11
ENDBRANCH   7  10
ENDBRANCH   6   7
ENDBRANCH   4   6
ENDBRANCH   2   4
TORSDOF 7
ENDMDL
MODEL      161
REMARK 921   NORMALIZED FREE ENERGY PREDICTED BY IDOCK:   -3.36 KCAL/MOL
REMARK 922        TOTAL FREE ENERGY PREDICTED BY IDOCK:   -5.58 KCAL/MOL
REMARK 923 INTER-LIGAND FREE ENERGY PREDICTED BY IDOCK:   -4.93 KCAL/MOL
REMARK 924 INTRA-LIGAND FREE ENERGY PREDICTED BY IDOCK:   -0.65 KCAL/MOL
REMARK 927      BINDING AFFINITY PREDICTED BY RF-SCORE:    0.00 PKD
ROOT
HETATM    1  C   UNL     1     -11.546  10.796  68.214  1.00  0.00    -0.297 C  
HETATM    2  C   UNL     1     -11.094  11.905  69.165  1.00  0.00    -0.228 C  
HETATM    3  C   UNL     1     -11.493  13.268  68.595  1.00  0.00    -0.339 C  
ENDROOT
BRANCH   2   4
HETATM    4  N   UNL     1     -11.710  11.662  70.470  1.00  0.00    -0.491 NA 
HETATM    5  H   UNL     1     -12.229  12.482  70.782  1.00  0.00     0.000 HD 
BRANCH   4   6
HETATM    6  C   UNL     1     -12.559  10.467  70.504  1.00  0.00    -0.302 C  
BRANCH   6   7
HETATM    7  C   UNL     1     -12.466   9.810  71.891  1.00  0.00    -0.366 C  
HETATM    8  H   UNL     1     -13.584   8.626  73.007  1.00  0.00     0.000 HD 
HETATM    9  O   UNL     1     -13.641   9.032  72.150  1.00  0.00    -0.406 OA 
BRANCH   7  10
HETATM   10  C   UNL     1     -11.215   8.938  72.005  1.00  0.00    -0.352 C  
BRANCH  10  11
HETATM   11  O   UNL     1     -11.459   7.611  71.502  1.00  0.00    -0.254 OA 
BRANCH  11  12
HETATM   12  C   UNL     1     -10.750   7.308  70.362  1.00  0.00    -0.236 A  
HETATM   13  C   UNL     1      -9.555   7.918  70.002  1.00  0.00    -0.168 A  
HETATM   14  C   UNL     1      -8.927   7.614  68.799  1.00  0.00    -0.133 A  
HETATM   15  C   UNL     1      -9.468   6.669  67.926  1.00  0.00    -0.117 A  
HETATM   16  C   UNL     1     -11.288   6.335  69.515  1.00  0.00    -0.475 A  
HETATM   17  C   UNL     1     -10.653   6.020  68.299  1.00  0.00    -0.325 A  
BRANCH  15  18
HETATM   18  N   UNL     1      -8.881   6.389  66.672  1.00  0.00    -0.126 N  
HETATM   19  H   UNL     1      -8.669   5.414  66.465  1.00  0.00     0.000 HD 
HETATM   20  C   UNL     1      -8.568   7.326  65.698  1.00  0.00    -0.109 C  
HETATM   21  O   UNL     1      -8.576   8.545  65.819  1.00  0.00    -0.149 OA 
HETATM   22  C   UNL     1      -8.157   6.710  64.389  1.00  0.00    -0.055 C  
ENDBRANCH  15  18
ENDBRANCH  11  12
ENDBRANCH  10  11
ENDBRANCH   7  10
ENDBRANCH   6   7
ENDBRANCH   4   6
ENDBRANCH   2   4
TORSDOF 7
ENDMDL
MODEL      162
REMARK 921   NORMALIZED FREE ENERGY PREDICTED BY IDOCK:   -3.36 KCAL/MOL
REMARK 922        TOTAL FREE ENERGY PREDICTED BY IDOCK:   -5.58 KCAL/MOL
REMARK 923 INTER-LIGAND FREE ENERGY PREDICTED BY IDOCK:   -4.72 KCAL/MOL
REMARK 924 INTRA-LIGAND FREE ENERGY PREDICTED BY IDOCK:   -0.86 KCAL/MOL
REMARK 927      BINDING AFFINITY PREDICTED BY RF-SCORE:    0.00 PKD
ROOT
HETATM    1  C   UNL     1      -8.207   8.081  72.371  1.00  0.00    -0.193 C  
HETATM    2  C   UNL     1      -9.471   7.266  72.649  1.00  0.00    -0.150 C  
HETATM    3  C   UNL     1     -10.701   8.171  72.542  1.00  0.00    -0.419 C  
ENDROOT
BRANCH   2   4
HETATM    4  N   UNL     1      -9.522   6.166  71.686  1.00  0.00    -0.149 NA 
HETATM    5  H   UNL     1     -10.466   6.054  71.317  1.00  0.00     0.000 HD 
BRANCH   4   6
HETATM    6  C   UNL     1      -8.551   6.296  70.595  1.00  0.00    -0.139 C  
BRANCH   6   7
HETATM    7  C   UNL     1      -9.294   6.518  69.269  1.00  0.00    -0.141 C  
HETATM    8  H   UNL     1     -11.153   6.394  68.616  1.00  0.00     0.000 HD 
HETATM    9  O   UNL     1     -10.693   6.257  69.436  1.00  0.00    -0.235 OA 
BRANCH   7  10
HETATM   10  C   UNL     1      -9.077   7.939  68.747  1.00  0.00    -0.140 C  
BRANCH  10  11
HETATM   11  O   UNL     1     -10.066   8.286  67.758  1.00  0.00    -0.182 OA 
BRANCH  11  12
HETATM   12  C   UNL     1     -10.552   9.567  67.882  1.00  0.00    -0.244 A  
HETATM   13  C   UNL     1     -10.746  10.434  66.814  1.00  0.00    -0.235 A  
HETATM   14  C   UNL     1     -11.174  11.741  67.018  1.00  0.00    -0.382 A  
HETATM   15  C   UNL     1     -11.444  12.215  68.302  1.00  0.00    -0.305 A  
HETATM   16  C   UNL     1     -10.851  10.015  69.172  1.00  0.00    -0.253 A  
HETATM   17  C   UNL     1     -11.291  11.335  69.383  1.00  0.00    -0.360 A  
BRANCH  15  18
HETATM   18  N   UNL     1     -11.822  13.555  68.540  1.00  0.00    -0.348 N  
HETATM   19  H   UNL     1     -12.804  13.793  68.408  1.00  0.00     0.000 HD 
HETATM   20  C   UNL     1     -10.971  14.577  68.937  1.00  0.00    -0.256 C  
HETATM   21  O   UNL     1      -9.746  14.543  68.975  1.00  0.00    -0.200 OA 
HETATM   22  C   UNL     1     -11.692  15.839  69.320  1.00  0.00    -0.384 C  
ENDBRANCH  15  18
ENDBRANCH  11  12
ENDBRANCH  10  11
ENDBRANCH   7  10
ENDBRANCH   6   7
ENDBRANCH   4   6
ENDBRANCH   2   4
TORSDOF 7
ENDMDL
MODEL      163
REMARK 921   NORMALIZED FREE ENERGY PREDICTED BY IDOCK:   -3.35 KCAL/MOL
REMARK 922        TOTAL FREE ENERGY PREDICTED BY IDOCK:   -5.57 KCAL/MOL
REMARK 923 INTER-LIGAND FREE ENERGY PREDICTED BY IDOCK:   -5.45 KCAL/MOL
REMARK 924 INTRA-LIGAND FREE ENERGY PREDICTED BY IDOCK:   -0.12 KCAL/MOL
REMARK 927      BINDING AFFINITY PREDICTED BY RF-SCORE:    0.00 PKD
ROOT
HETATM    1  C   UNL     1      -8.241   8.407  71.559  1.00  0.00    -0.182 C  
HETATM    2  C   UNL     1      -7.639   7.968  70.223  1.00  0.00    -0.081 C  
HETATM    3  C   UNL     1      -7.295   6.478  70.277  1.00  0.00    -0.089 C  
ENDROOT
BRANCH   2   4
HETATM    4  N   UNL     1      -8.612   8.262  69.170  1.00  0.00    -0.137 NA 
HETATM    5  H   UNL     1      -9.065   7.407  68.849  1.00  0.00     0.000 HD 
BRANCH   4   6
HETATM    6  C   UNL     1      -9.611   9.263  69.558  1.00  0.00    -0.173 C  
BRANCH   6   7
HETATM    7  C   UNL     1      -9.745  10.314  68.443  1.00  0.00    -0.156 C  
HETATM    8  H   UNL     1      -8.803  10.775  66.772  1.00  0.00     0.000 HD 
HETATM    9  O   UNL     1      -8.720  10.126  67.460  1.00  0.00    -0.125 OA 
BRANCH   7  10
HETATM   10  C   UNL     1     -11.127  10.251  67.790  1.00  0.00    -0.269 C  
BRANCH  10  11
HETATM   11  O   UNL     1     -12.055  11.130  68.453  1.00  0.00    -0.605 OA 
BRANCH  11  12
HETATM   12  C   UNL     1     -11.846  12.464  68.187  1.00  0.00    -0.315 A  
HETATM   13  C   UNL     1     -11.953  13.034  66.924  1.00  0.00    -0.415 A  
HETATM   14  C   UNL     1     -11.658  14.376  66.714  1.00  0.00    -0.399 A  
HETATM   15  C   UNL     1     -11.267  15.199  67.771  1.00  0.00    -0.323 A  
HETATM   16  C   UNL     1     -11.489  13.282  69.262  1.00  0.00    -0.345 A  
HETATM   17  C   UNL     1     -11.196  14.643  69.056  1.00  0.00    -0.287 A  
BRANCH  15  18
HETATM   18  N   UNL     1     -10.904  16.549  67.572  1.00  0.00    -0.284 N  
HETATM   19  H   UNL     1     -11.133  17.208  68.316  1.00  0.00     0.000 HD 
HETATM   20  C   UNL     1     -10.264  17.058  66.450  1.00  0.00    -0.326 C  
HETATM   21  O   UNL     1     -10.069  16.479  65.388  1.00  0.00    -0.570 OA 
HETATM   22  C   UNL     1      -9.815  18.484  66.615  1.00  0.00    -0.370 C  
ENDBRANCH  15  18
ENDBRANCH  11  12
ENDBRANCH  10  11
ENDBRANCH   7  10
ENDBRANCH   6   7
ENDBRANCH   4   6
ENDBRANCH   2   4
TORSDOF 7
ENDMDL
MODEL      164
REMARK 921   NORMALIZED FREE ENERGY PREDICTED BY IDOCK:   -3.35 KCAL/MOL
REMARK 922        TOTAL FREE ENERGY PREDICTED BY IDOCK:   -5.56 KCAL/MOL
REMARK 923 INTER-LIGAND FREE ENERGY PREDICTED BY IDOCK:   -4.49 KCAL/MOL
REMARK 924 INTRA-LIGAND FREE ENERGY PREDICTED BY IDOCK:   -1.07 KCAL/MOL
REMARK 927      BINDING AFFINITY PREDICTED BY RF-SCORE:    0.00 PKD
ROOT
HETATM    1  C   UNL     1      -6.809  10.284  64.776  1.00  0.00    -0.087 C  
HETATM    2  C   UNL     1      -8.192  10.047  64.167  1.00  0.00    -0.159 C  
HETATM    3  C   UNL     1      -8.958   9.026  65.012  1.00  0.00    -0.198 C  
ENDROOT
BRANCH   2   4
HETATM    4  N   UNL     1      -8.887  11.333  64.107  1.00  0.00    -0.380 NA 
HETATM    5  H   UNL     1      -8.609  11.855  63.276  1.00  0.00     0.000 HD 
BRANCH   4   6
HETATM    6  C   UNL     1     -10.347  11.215  64.181  1.00  0.00    -0.361 C  
BRANCH   6   7
HETATM    7  C   UNL     1     -10.957  12.584  64.521  1.00  0.00    -0.323 C  
HETATM    8  H   UNL     1     -12.110  13.914  63.629  1.00  0.00     0.000 HD 
HETATM    9  O   UNL     1     -11.734  13.068  63.419  1.00  0.00    -0.504 OA 
BRANCH   7  10
HETATM   10  C   UNL     1     -11.816  12.506  65.783  1.00  0.00    -0.437 C  
BRANCH  10  11
HETATM   11  O   UNL     1     -11.042  12.812  66.958  1.00  0.00    -0.260 OA 
BRANCH  11  12
HETATM   12  C   UNL     1     -10.382  11.727  67.489  1.00  0.00    -0.196 A  
HETATM   13  C   UNL     1     -11.003  10.540  67.857  1.00  0.00    -0.352 A  
HETATM   14  C   UNL     1     -10.286   9.509  68.454  1.00  0.00    -0.221 A  
HETATM   15  C   UNL     1      -8.914   9.627  68.682  1.00  0.00    -0.129 A  
HETATM   16  C   UNL     1      -9.003  11.849  67.679  1.00  0.00    -0.169 A  
HETATM   17  C   UNL     1      -8.271  10.806  68.278  1.00  0.00    -0.124 A  
BRANCH  15  18
HETATM   18  N   UNL     1      -8.177   8.619  69.341  1.00  0.00    -0.111 N  
HETATM   19  H   UNL     1      -7.789   7.874  68.765  1.00  0.00     0.000 HD 
HETATM   20  C   UNL     1      -7.936   8.555  70.706  1.00  0.00    -0.107 C  
HETATM   21  O   UNL     1      -8.457   9.240  71.579  1.00  0.00    -0.320 OA 
HETATM   22  C   UNL     1      -6.943   7.492  71.088  1.00  0.00    -0.054 C  
ENDBRANCH  15  18
ENDBRANCH  11  12
ENDBRANCH  10  11
ENDBRANCH   7  10
ENDBRANCH   6   7
ENDBRANCH   4   6
ENDBRANCH   2   4
TORSDOF 7
ENDMDL
MODEL      165
REMARK 921   NORMALIZED FREE ENERGY PREDICTED BY IDOCK:   -3.35 KCAL/MOL
REMARK 922        TOTAL FREE ENERGY PREDICTED BY IDOCK:   -5.56 KCAL/MOL
REMARK 923 INTER-LIGAND FREE ENERGY PREDICTED BY IDOCK:   -5.12 KCAL/MOL
REMARK 924 INTRA-LIGAND FREE ENERGY PREDICTED BY IDOCK:   -0.43 KCAL/MOL
REMARK 927      BINDING AFFINITY PREDICTED BY RF-SCORE:    0.00 PKD
ROOT
HETATM    1  C   UNL     1      -5.905  10.213  63.128  1.00  0.00    -0.134 C  
HETATM    2  C   UNL     1      -6.802   9.501  64.142  1.00  0.00    -0.102 C  
HETATM    3  C   UNL     1      -5.960   9.025  65.329  1.00  0.00    -0.059 C  
ENDROOT
BRANCH   2   4
HETATM    4  N   UNL     1      -7.846  10.438  64.559  1.00  0.00    -0.286 NA 
HETATM    5  H   UNL     1      -8.667  10.351  63.962  1.00  0.00     0.000 HD 
BRANCH   4   6
HETATM    6  C   UNL     1      -8.216  10.312  65.972  1.00  0.00    -0.141 C  
BRANCH   6   7
HETATM    7  C   UNL     1      -9.718  10.003  66.084  1.00  0.00    -0.227 C  
HETATM    8  H   UNL     1     -10.997   9.550  67.517  1.00  0.00     0.000 HD 
HETATM    9  O   UNL     1     -10.070   9.741  67.448  1.00  0.00    -0.183 OA 
BRANCH   7  10
HETATM   10  C   UNL     1     -10.559  11.153  65.529  1.00  0.00    -0.225 C  
BRANCH  10  11
HETATM   11  O   UNL     1     -11.537  11.593  66.491  1.00  0.00    -0.473 OA 
BRANCH  11  12
HETATM   12  C   UNL     1     -11.334  12.876  66.946  1.00  0.00    -0.312 A  
HETATM   13  C   UNL     1     -11.814  13.359  68.157  1.00  0.00    -0.396 A  
HETATM   14  C   UNL     1     -11.632  14.689  68.522  1.00  0.00    -0.346 A  
HETATM   15  C   UNL     1     -10.942  15.573  67.693  1.00  0.00    -0.315 A  
HETATM   16  C   UNL     1     -10.611  13.740  66.119  1.00  0.00    -0.291 A  
HETATM   17  C   UNL     1     -10.419  15.084  66.487  1.00  0.00    -0.285 A  
BRANCH  15  18
HETATM   18  N   UNL     1     -10.799  16.941  68.014  1.00  0.00    -0.362 N  
HETATM   19  H   UNL     1     -11.651  17.495  68.087  1.00  0.00     0.000 HD 
HETATM   20  C   UNL     1      -9.597  17.596  68.240  1.00  0.00    -0.306 C  
HETATM   21  O   UNL     1      -8.470  17.163  68.027  1.00  0.00    -0.208 OA 
HETATM   22  C   UNL     1      -9.769  18.992  68.773  1.00  0.00    -0.473 C  
ENDBRANCH  15  18
ENDBRANCH  11  12
ENDBRANCH  10  11
ENDBRANCH   7  10
ENDBRANCH   6   7
ENDBRANCH   4   6
ENDBRANCH   2   4
TORSDOF 7
ENDMDL
MODEL      166
REMARK 921   NORMALIZED FREE ENERGY PREDICTED BY IDOCK:   -3.34 KCAL/MOL
REMARK 922        TOTAL FREE ENERGY PREDICTED BY IDOCK:   -5.55 KCAL/MOL
REMARK 923 INTER-LIGAND FREE ENERGY PREDICTED BY IDOCK:   -4.72 KCAL/MOL
REMARK 924 INTRA-LIGAND FREE ENERGY PREDICTED BY IDOCK:   -0.83 KCAL/MOL
REMARK 927      BINDING AFFINITY PREDICTED BY RF-SCORE:    0.00 PKD
ROOT
HETATM    1  C   UNL     1      -6.367   9.116  66.047  1.00  0.00    -0.064 C  
HETATM    2  C   UNL     1      -7.205   7.838  65.991  1.00  0.00    -0.073 C  
HETATM    3  C   UNL     1      -6.315   6.655  65.604  1.00  0.00    -0.046 C  
ENDROOT
BRANCH   2   4
HETATM    4  N   UNL     1      -7.823   7.645  67.304  1.00  0.00    -0.115 NA 
HETATM    5  H   UNL     1      -8.563   8.329  67.458  1.00  0.00     0.000 HD 
BRANCH   4   6
HETATM    6  C   UNL     1      -8.322   6.283  67.523  1.00  0.00    -0.113 C  
BRANCH   6   7
HETATM    7  C   UNL     1      -9.826   6.331  67.833  1.00  0.00    -0.124 C  
HETATM    8  H   UNL     1     -10.971   6.322  69.441  1.00  0.00     0.000 HD 
HETATM    9  O   UNL     1     -10.041   6.293  69.249  1.00  0.00    -0.161 OA 
BRANCH   7  10
HETATM   10  C   UNL     1     -10.473   7.580  67.232  1.00  0.00    -0.321 C  
BRANCH  10  11
HETATM   11  O   UNL     1     -10.707   8.581  68.240  1.00  0.00    -0.154 OA 
BRANCH  11  12
HETATM   12  C   UNL     1     -10.774   9.864  67.747  1.00  0.00    -0.277 A  
HETATM   13  C   UNL     1     -11.419  10.914  68.389  1.00  0.00    -0.374 A  
HETATM   14  C   UNL     1     -11.509  12.170  67.800  1.00  0.00    -0.398 A  
HETATM   15  C   UNL     1     -10.933  12.421  66.554  1.00  0.00    -0.272 A  
HETATM   16  C   UNL     1     -10.162  10.107  66.514  1.00  0.00    -0.288 A  
HETATM   17  C   UNL     1     -10.245  11.379  65.917  1.00  0.00    -0.292 A  
BRANCH  15  18
HETATM   18  N   UNL     1     -11.063  13.670  65.909  1.00  0.00    -0.284 N  
HETATM   19  H   UNL     1     -10.289  14.327  66.004  1.00  0.00     0.000 HD 
HETATM   20  C   UNL     1     -12.154  14.082  65.157  1.00  0.00    -0.410 C  
HETATM   21  O   UNL     1     -13.243  13.526  65.072  1.00  0.00    -0.721 OA 
HETATM   22  C   UNL     1     -11.917  15.370  64.417  1.00  0.00    -0.235 C  
ENDBRANCH  15  18
ENDBRANCH  11  12
ENDBRANCH  10  11
ENDBRANCH   7  10
ENDBRANCH   6   7
ENDBRANCH   4   6
ENDBRANCH   2   4
TORSDOF 7
ENDMDL
MODEL      167
REMARK 921   NORMALIZED FREE ENERGY PREDICTED BY IDOCK:   -3.33 KCAL/MOL
REMARK 922        TOTAL FREE ENERGY PREDICTED BY IDOCK:   -5.54 KCAL/MOL
REMARK 923 INTER-LIGAND FREE ENERGY PREDICTED BY IDOCK:   -4.98 KCAL/MOL
REMARK 924 INTRA-LIGAND FREE ENERGY PREDICTED BY IDOCK:   -0.56 KCAL/MOL
REMARK 927      BINDING AFFINITY PREDICTED BY RF-SCORE:    0.00 PKD
ROOT
HETATM    1  C   UNL     1     -10.703   5.976  71.508  1.00  0.00    -0.309 C  
HETATM    2  C   UNL     1     -10.509   7.075  70.462  1.00  0.00    -0.208 C  
HETATM    3  C   UNL     1      -9.617   8.180  71.034  1.00  0.00    -0.189 C  
ENDROOT
BRANCH   2   4
HETATM    4  N   UNL     1      -9.920   6.466  69.269  1.00  0.00    -0.149 NA 
HETATM    5  H   UNL     1     -10.479   6.678  68.443  1.00  0.00     0.000 HD 
BRANCH   4   6
HETATM    6  C   UNL     1      -8.517   6.834  69.055  1.00  0.00    -0.128 C  
BRANCH   6   7
HETATM    7  C   UNL     1      -8.160   6.658  67.570  1.00  0.00    -0.118 C  
HETATM    8  H   UNL     1      -7.742   5.163  66.351  1.00  0.00     0.000 HD 
HETATM    9  O   UNL     1      -7.962   5.271  67.269  1.00  0.00    -0.100 OA 
BRANCH   7  10
HETATM   10  C   UNL     1      -9.247   7.247  66.670  1.00  0.00    -0.157 C  
BRANCH  10  11
HETATM   11  O   UNL     1      -8.671   8.002  65.586  1.00  0.00    -0.154 OA 
BRANCH  11  12
HETATM   12  C   UNL     1      -9.247   9.238  65.400  1.00  0.00    -0.222 A  
HETATM   13  C   UNL     1      -9.214   9.941  64.202  1.00  0.00    -0.312 A  
HETATM   14  C   UNL     1      -9.756  11.218  64.103  1.00  0.00    -0.298 A  
HETATM   15  C   UNL     1     -10.370  11.823  65.199  1.00  0.00    -0.279 A  
HETATM   16  C   UNL     1      -9.890   9.816  66.498  1.00  0.00    -0.286 A  
HETATM   17  C   UNL     1     -10.445  11.105  66.401  1.00  0.00    -0.311 A  
BRANCH  15  18
HETATM   18  N   UNL     1     -10.873  13.142  65.140  1.00  0.00    -0.295 N  
HETATM   19  H   UNL     1     -10.315  13.874  65.577  1.00  0.00     0.000 HD 
HETATM   20  C   UNL     1     -12.062  13.527  64.537  1.00  0.00    -0.416 C  
HETATM   21  O   UNL     1     -12.950  12.791  64.123  1.00  0.00    -0.695 OA 
HETATM   22  C   UNL     1     -12.227  15.019  64.443  1.00  0.00    -0.353 C  
ENDBRANCH  15  18
ENDBRANCH  11  12
ENDBRANCH  10  11
ENDBRANCH   7  10
ENDBRANCH   6   7
ENDBRANCH   4   6
ENDBRANCH   2   4
TORSDOF 7
ENDMDL
MODEL      168
REMARK 921   NORMALIZED FREE ENERGY PREDICTED BY IDOCK:   -3.33 KCAL/MOL
REMARK 922        TOTAL FREE ENERGY PREDICTED BY IDOCK:   -5.53 KCAL/MOL
REMARK 923 INTER-LIGAND FREE ENERGY PREDICTED BY IDOCK:   -4.99 KCAL/MOL
REMARK 924 INTRA-LIGAND FREE ENERGY PREDICTED BY IDOCK:   -0.54 KCAL/MOL
REMARK 927      BINDING AFFINITY PREDICTED BY RF-SCORE:    0.00 PKD
ROOT
HETATM    1  C   UNL     1     -10.053   4.318  71.638  1.00  0.00    -0.216 C  
HETATM    2  C   UNL     1     -10.113   4.280  73.166  1.00  0.00    -0.148 C  
HETATM    3  C   UNL     1      -9.594   2.931  73.669  1.00  0.00    -0.126 C  
ENDROOT
BRANCH   2   4
HETATM    4  N   UNL     1      -9.313   5.394  73.678  1.00  0.00    -0.133 NA 
HETATM    5  H   UNL     1      -8.587   5.652  73.011  1.00  0.00     0.000 HD 
BRANCH   4   6
HETATM    6  C   UNL     1     -10.112   6.565  74.055  1.00  0.00    -0.326 C  
BRANCH   6   7
HETATM    7  C   UNL     1      -9.424   7.841  73.546  1.00  0.00    -0.284 C  
HETATM    8  H   UNL     1      -7.587   8.556  73.457  1.00  0.00     0.000 HD 
HETATM    9  O   UNL     1      -8.011   7.766  73.771  1.00  0.00    -0.138 OA 
BRANCH   7  10
HETATM   10  C   UNL     1      -9.714   8.068  72.062  1.00  0.00    -0.203 C  
BRANCH  10  11
HETATM   11  O   UNL     1     -11.094   8.424  71.851  1.00  0.00    -0.265 OA 
BRANCH  11  12
HETATM   12  C   UNL     1     -11.268   9.556  71.088  1.00  0.00    -0.376 A  
HETATM   13  C   UNL     1     -12.135  10.591  71.415  1.00  0.00    -0.380 A  
HETATM   14  C   UNL     1     -12.314  11.674  70.562  1.00  0.00    -0.410 A  
HETATM   15  C   UNL     1     -11.611  11.766  69.361  1.00  0.00    -0.322 A  
HETATM   16  C   UNL     1     -10.529   9.649  69.905  1.00  0.00    -0.285 A  
HETATM   17  C   UNL     1     -10.702  10.747  69.042  1.00  0.00    -0.265 A  
BRANCH  15  18
HETATM   18  N   UNL     1     -11.821  12.825  68.451  1.00  0.00    -0.327 N  
HETATM   19  H   UNL     1     -12.592  12.727  67.791  1.00  0.00     0.000 HD 
HETATM   20  C   UNL     1     -11.069  13.989  68.377  1.00  0.00    -0.253 C  
HETATM   21  O   UNL     1     -10.009  14.218  68.947  1.00  0.00    -0.221 OA 
HETATM   22  C   UNL     1     -11.660  15.024  67.460  1.00  0.00    -0.315 C  
ENDBRANCH  15  18
ENDBRANCH  11  12
ENDBRANCH  10  11
ENDBRANCH   7  10
ENDBRANCH   6   7
ENDBRANCH   4   6
ENDBRANCH   2   4
TORSDOF 7
ENDMDL
MODEL      169
REMARK 921   NORMALIZED FREE ENERGY PREDICTED BY IDOCK:   -3.32 KCAL/MOL
REMARK 922        TOTAL FREE ENERGY PREDICTED BY IDOCK:   -5.52 KCAL/MOL
REMARK 923 INTER-LIGAND FREE ENERGY PREDICTED BY IDOCK:   -4.93 KCAL/MOL
REMARK 924 INTRA-LIGAND FREE ENERGY PREDICTED BY IDOCK:   -0.59 KCAL/MOL
REMARK 927      BINDING AFFINITY PREDICTED BY RF-SCORE:    0.00 PKD
ROOT
HETATM    1  C   UNL     1     -10.343   9.316  67.389  1.00  0.00    -0.327 C  
HETATM    2  C   UNL     1     -10.785  10.708  67.845  1.00  0.00    -0.248 C  
HETATM    3  C   UNL     1     -11.087  11.579  66.623  1.00  0.00    -0.355 C  
ENDROOT
BRANCH   2   4
HETATM    4  N   UNL     1     -11.959  10.552  68.704  1.00  0.00    -0.769 NA 
HETATM    5  H   UNL     1     -12.304   9.593  68.671  1.00  0.00     0.000 HD 
BRANCH   4   6
HETATM    6  C   UNL     1     -11.733  10.975  70.089  1.00  0.00    -0.356 C  
BRANCH   6   7
HETATM    7  C   UNL     1     -12.744  12.070  70.464  1.00  0.00    -0.001 C  
HETATM    8  H   UNL     1     -13.197  13.133  72.064  1.00  0.00     0.000 HD 
HETATM    9  O   UNL     1     -12.572  12.456  71.833  1.00  0.00    -0.116 OA 
BRANCH   7  10
HETATM   10  C   UNL     1     -12.604  13.286  69.547  1.00  0.00     0.268 C  
BRANCH  10  11
HETATM   11  O   UNL     1     -11.879  14.346  70.197  1.00  0.00    -0.279 OA 
BRANCH  11  12
HETATM   12  C   UNL     1     -11.291  15.235  69.327  1.00  0.00    -0.298 A  
HETATM   13  C   UNL     1     -10.927  14.924  68.022  1.00  0.00    -0.282 A  
HETATM   14  C   UNL     1     -10.271  15.850  67.219  1.00  0.00    -0.278 A  
HETATM   15  C   UNL     1      -9.978  17.130  67.692  1.00  0.00    -0.283 A  
HETATM   16  C   UNL     1     -11.036  16.523  69.804  1.00  0.00    -0.292 A  
HETATM   17  C   UNL     1     -10.378  17.466  68.993  1.00  0.00    -0.319 A  
BRANCH  15  18
HETATM   18  N   UNL     1      -9.260  18.066  66.916  1.00  0.00    -0.262 N  
HETATM   19  H   UNL     1      -9.750  18.495  66.132  1.00  0.00     0.000 HD 
HETATM   20  C   UNL     1      -7.944  18.453  67.129  1.00  0.00    -0.231 C  
HETATM   21  O   UNL     1      -7.138  17.933  67.891  1.00  0.00    -0.202 OA 
HETATM   22  C   UNL     1      -7.521  19.620  66.281  1.00  0.00    -0.300 C  
ENDBRANCH  15  18
ENDBRANCH  11  12
ENDBRANCH  10  11
ENDBRANCH   7  10
ENDBRANCH   6   7
ENDBRANCH   4   6
ENDBRANCH   2   4
TORSDOF 7
ENDMDL
MODEL      170
REMARK 921   NORMALIZED FREE ENERGY PREDICTED BY IDOCK:   -3.32 KCAL/MOL
REMARK 922        TOTAL FREE ENERGY PREDICTED BY IDOCK:   -5.51 KCAL/MOL
REMARK 923 INTER-LIGAND FREE ENERGY PREDICTED BY IDOCK:   -5.02 KCAL/MOL
REMARK 924 INTRA-LIGAND FREE ENERGY PREDICTED BY IDOCK:   -0.50 KCAL/MOL
REMARK 927      BINDING AFFINITY PREDICTED BY RF-SCORE:    0.00 PKD
ROOT
HETATM    1  C   UNL     1      -8.221   4.855  66.505  1.00  0.00    -0.107 C  
HETATM    2  C   UNL     1      -7.750   5.672  67.709  1.00  0.00    -0.096 C  
HETATM    3  C   UNL     1      -6.661   6.654  67.270  1.00  0.00    -0.054 C  
ENDROOT
BRANCH   2   4
HETATM    4  N   UNL     1      -8.911   6.365  68.268  1.00  0.00    -0.116 NA 
HETATM    5  H   UNL     1      -8.993   6.180  69.268  1.00  0.00     0.000 HD 
BRANCH   4   6
HETATM    6  C   UNL     1      -8.916   7.807  68.005  1.00  0.00    -0.126 C  
BRANCH   6   7
HETATM    7  C   UNL     1     -10.078   8.153  67.059  1.00  0.00    -0.280 C  
HETATM    8  H   UNL     1     -11.876   7.444  66.660  1.00  0.00     0.000 HD 
HETATM    9  O   UNL     1     -11.158   7.231  67.245  1.00  0.00    -0.258 OA 
BRANCH   7  10
HETATM   10  C   UNL     1     -10.559   9.587  67.280  1.00  0.00    -0.248 C  
BRANCH  10  11
HETATM   11  O   UNL     1     -10.435  10.368  66.076  1.00  0.00    -0.219 OA 
BRANCH  11  12
HETATM   12  C   UNL     1     -10.402  11.726  66.293  1.00  0.00    -0.224 A  
HETATM   13  C   UNL     1      -9.247  12.440  66.591  1.00  0.00    -0.218 A  
HETATM   14  C   UNL     1      -9.296  13.802  66.869  1.00  0.00    -0.267 A  
HETATM   15  C   UNL     1     -10.505  14.498  66.836  1.00  0.00    -0.269 A  
HETATM   16  C   UNL     1     -11.616  12.415  66.222  1.00  0.00    -0.449 A  
HETATM   17  C   UNL     1     -11.669  13.794  66.496  1.00  0.00    -0.412 A  
BRANCH  15  18
HETATM   18  N   UNL     1     -10.588  15.866  67.174  1.00  0.00    -0.315 N  
HETATM   19  H   UNL     1     -10.703  16.097  68.160  1.00  0.00     0.000 HD 
HETATM   20  C   UNL     1     -10.527  16.925  66.279  1.00  0.00    -0.262 C  
HETATM   21  O   UNL     1     -10.573  16.860  65.056  1.00  0.00    -0.700 OA 
HETATM   22  C   UNL     1     -10.425  18.268  66.950  1.00  0.00    -0.396 C  
ENDBRANCH  15  18
ENDBRANCH  11  12
ENDBRANCH  10  11
ENDBRANCH   7  10
ENDBRANCH   6   7
ENDBRANCH   4   6
ENDBRANCH   2   4
TORSDOF 7
ENDMDL
MODEL      171
REMARK 921   NORMALIZED FREE ENERGY PREDICTED BY IDOCK:   -3.29 KCAL/MOL
REMARK 922        TOTAL FREE ENERGY PREDICTED BY IDOCK:   -5.48 KCAL/MOL
REMARK 923 INTER-LIGAND FREE ENERGY PREDICTED BY IDOCK:   -4.95 KCAL/MOL
REMARK 924 INTRA-LIGAND FREE ENERGY PREDICTED BY IDOCK:   -0.53 KCAL/MOL
REMARK 927      BINDING AFFINITY PREDICTED BY RF-SCORE:    0.00 PKD
ROOT
HETATM    1  C   UNL     1     -12.380  14.424  71.178  1.00  0.00    -0.428 C  
HETATM    2  C   UNL     1     -12.258  13.944  69.731  1.00  0.00    -0.332 C  
HETATM    3  C   UNL     1     -11.692  15.068  68.861  1.00  0.00    -0.354 C  
ENDROOT
BRANCH   2   4
HETATM    4  N   UNL     1     -11.395  12.761  69.718  1.00  0.00    -0.495 NA 
HETATM    5  H   UNL     1     -11.275  12.393  70.661  1.00  0.00     0.000 HD 
BRANCH   4   6
HETATM    6  C   UNL     1     -11.855  11.710  68.805  1.00  0.00    -0.325 C  
BRANCH   6   7
HETATM    7  C   UNL     1     -10.666  11.184  67.986  1.00  0.00    -0.211 C  
HETATM    8  H   UNL     1      -8.699  11.161  68.146  1.00  0.00     0.000 HD 
HETATM    9  O   UNL     1      -9.434  11.486  68.652  1.00  0.00    -0.188 OA 
BRANCH   7  10
HETATM   10  C   UNL     1     -10.785   9.678  67.747  1.00  0.00    -0.257 C  
BRANCH  10  11
HETATM   11  O   UNL     1      -9.541   9.008  68.023  1.00  0.00    -0.144 OA 
BRANCH  11  12
HETATM   12  C   UNL     1      -9.650   7.985  68.938  1.00  0.00    -0.152 A  
HETATM   13  C   UNL     1      -8.792   7.809  70.016  1.00  0.00    -0.142 A  
HETATM   14  C   UNL     1      -8.917   6.712  70.861  1.00  0.00    -0.147 A  
HETATM   15  C   UNL     1      -9.923   5.765  70.665  1.00  0.00    -0.194 A  
HETATM   16  C   UNL     1     -10.684   7.066  68.747  1.00  0.00    -0.226 A  
HETATM   17  C   UNL     1     -10.819   5.957  69.603  1.00  0.00    -0.444 A  
BRANCH  15  18
HETATM   18  N   UNL     1     -10.032   4.612  71.472  1.00  0.00    -0.189 N  
HETATM   19  H   UNL     1      -9.634   3.748  71.107  1.00  0.00     0.000 HD 
HETATM   20  C   UNL     1     -10.635   4.553  72.721  1.00  0.00    -0.195 C  
HETATM   21  O   UNL     1     -11.320   5.421  73.250  1.00  0.00    -0.289 OA 
HETATM   22  C   UNL     1     -10.407   3.248  73.432  1.00  0.00    -0.241 C  
ENDBRANCH  15  18
ENDBRANCH  11  12
ENDBRANCH  10  11
ENDBRANCH   7  10
ENDBRANCH   6   7
ENDBRANCH   4   6
ENDBRANCH   2   4
TORSDOF 7
ENDMDL
MODEL      172
REMARK 921   NORMALIZED FREE ENERGY PREDICTED BY IDOCK:   -3.28 KCAL/MOL
REMARK 922        TOTAL FREE ENERGY PREDICTED BY IDOCK:   -5.47 KCAL/MOL
REMARK 923 INTER-LIGAND FREE ENERGY PREDICTED BY IDOCK:   -4.79 KCAL/MOL
REMARK 924 INTRA-LIGAND FREE ENERGY PREDICTED BY IDOCK:   -0.67 KCAL/MOL
REMARK 927      BINDING AFFINITY PREDICTED BY RF-SCORE:    0.00 PKD
ROOT
HETATM    1  C   UNL     1      -9.873  18.346  69.319  1.00  0.00    -0.071 C  
HETATM    2  C   UNL     1     -10.168  16.857  69.130  1.00  0.00    -0.292 C  
HETATM    3  C   UNL     1     -10.864  16.307  70.377  1.00  0.00    -0.211 C  
ENDROOT
BRANCH   2   4
HETATM    4  N   UNL     1     -11.000  16.709  67.935  1.00  0.00    -0.318 NA 
HETATM    5  H   UNL     1     -11.949  16.434  68.188  1.00  0.00     0.000 HD 
BRANCH   4   6
HETATM    6  C   UNL     1     -11.017  17.900  67.080  1.00  0.00     0.006 C  
BRANCH   6   7
HETATM    7  C   UNL     1     -10.113  17.669  65.859  1.00  0.00    -0.181 C  
HETATM    8  H   UNL     1      -8.340  18.273  65.237  1.00  0.00     0.000 HD 
HETATM    9  O   UNL     1      -8.898  18.416  65.992  1.00  0.00    -0.498 OA 
BRANCH   7  10
HETATM   10  C   UNL     1      -9.804  16.182  65.676  1.00  0.00    -0.255 C  
BRANCH  10  11
HETATM   11  O   UNL     1     -10.980  15.453  65.276  1.00  0.00    -0.353 OA 
BRANCH  11  12
HETATM   12  C   UNL     1     -10.921  14.106  65.552  1.00  0.00    -0.310 A  
HETATM   13  C   UNL     1     -11.917  13.197  65.217  1.00  0.00    -0.437 A  
HETATM   14  C   UNL     1     -11.825  11.860  65.590  1.00  0.00    -0.117 A  
HETATM   15  C   UNL     1     -10.718  11.386  66.293  1.00  0.00    -0.270 A  
HETATM   16  C   UNL     1      -9.789  13.641  66.227  1.00  0.00    -0.310 A  
HETATM   17  C   UNL     1      -9.689  12.288  66.601  1.00  0.00    -0.229 A  
BRANCH  15  18
HETATM   18  N   UNL     1     -10.630  10.048  66.735  1.00  0.00    -0.194 N  
HETATM   19  H   UNL     1     -11.273   9.757  67.471  1.00  0.00     0.000 HD 
HETATM   20  C   UNL     1      -9.745   9.093  66.254  1.00  0.00    -0.274 C  
HETATM   21  O   UNL     1      -8.788   9.284  65.513  1.00  0.00    -0.162 OA 
HETATM   22  C   UNL     1     -10.031   7.706  66.759  1.00  0.00    -0.317 C  
ENDBRANCH  15  18
ENDBRANCH  11  12
ENDBRANCH  10  11
ENDBRANCH   7  10
ENDBRANCH   6   7
ENDBRANCH   4   6
ENDBRANCH   2   4
TORSDOF 7
ENDMDL
MODEL      173
REMARK 921   NORMALIZED FREE ENERGY PREDICTED BY IDOCK:   -3.28 KCAL/MOL
REMARK 922        TOTAL FREE ENERGY PREDICTED BY IDOCK:   -5.46 KCAL/MOL
REMARK 923 INTER-LIGAND FREE ENERGY PREDICTED BY IDOCK:   -5.35 KCAL/MOL
REMARK 924 INTRA-LIGAND FREE ENERGY PREDICTED BY IDOCK:   -0.11 KCAL/MOL
REMARK 927      BINDING AFFINITY PREDICTED BY RF-SCORE:    0.00 PKD
ROOT
HETATM    1  C   UNL     1      -8.682   6.985  74.541  1.00  0.00    -0.227 C  
HETATM    2  C   UNL     1      -8.474   8.135  73.553  1.00  0.00    -0.246 C  
HETATM    3  C   UNL     1      -7.008   8.177  73.113  1.00  0.00    -0.132 C  
ENDROOT
BRANCH   2   4
HETATM    4  N   UNL     1      -9.375   7.926  72.419  1.00  0.00    -0.168 NA 
HETATM    5  H   UNL     1      -9.181   7.034  71.965  1.00  0.00     0.000 HD 
BRANCH   4   6
HETATM    6  C   UNL     1     -10.794   8.031  72.771  1.00  0.00    -0.369 C  
BRANCH   6   7
HETATM    7  C   UNL     1     -11.654   7.713  71.537  1.00  0.00    -0.274 C  
HETATM    8  H   UNL     1     -13.388   6.845  71.169  1.00  0.00     0.000 HD 
HETATM    9  O   UNL     1     -12.857   7.041  71.932  1.00  0.00    -0.324 OA 
BRANCH   7  10
HETATM   10  C   UNL     1     -11.988   8.985  70.756  1.00  0.00    -0.170 C  
BRANCH  10  11
HETATM   11  O   UNL     1     -10.805   9.557  70.166  1.00  0.00    -0.227 OA 
BRANCH  11  12
HETATM   12  C   UNL     1     -11.055  10.644  69.360  1.00  0.00    -0.260 A  
HETATM   13  C   UNL     1     -11.309  11.925  69.834  1.00  0.00    -0.175 A  
HETATM   14  C   UNL     1     -11.623  12.963  68.964  1.00  0.00    -0.372 A  
HETATM   15  C   UNL     1     -11.671  12.755  67.585  1.00  0.00    -0.367 A  
HETATM   16  C   UNL     1     -11.065  10.426  67.979  1.00  0.00    -0.359 A  
HETATM   17  C   UNL     1     -11.377  11.475  67.095  1.00  0.00    -0.354 A  
BRANCH  15  18
HETATM   18  N   UNL     1     -12.048  13.779  66.688  1.00  0.00    -0.428 N  
HETATM   19  H   UNL     1     -12.607  14.544  67.062  1.00  0.00     0.000 HD 
HETATM   20  C   UNL     1     -11.722  13.833  65.340  1.00  0.00    -0.335 C  
HETATM   21  O   UNL     1     -11.221  12.940  64.667  1.00  0.00    -0.297 OA 
HETATM   22  C   UNL     1     -12.075  15.144  64.694  1.00  0.00    -0.262 C  
ENDBRANCH  15  18
ENDBRANCH  11  12
ENDBRANCH  10  11
ENDBRANCH   7  10
ENDBRANCH   6   7
ENDBRANCH   4   6
ENDBRANCH   2   4
TORSDOF 7
ENDMDL
MODEL      174
REMARK 921   NORMALIZED FREE ENERGY PREDICTED BY IDOCK:   -3.26 KCAL/MOL
REMARK 922        TOTAL FREE ENERGY PREDICTED BY IDOCK:   -5.43 KCAL/MOL
REMARK 923 INTER-LIGAND FREE ENERGY PREDICTED BY IDOCK:   -5.35 KCAL/MOL
REMARK 924 INTRA-LIGAND FREE ENERGY PREDICTED BY IDOCK:   -0.08 KCAL/MOL
REMARK 927      BINDING AFFINITY PREDICTED BY RF-SCORE:    0.00 PKD
ROOT
HETATM    1  C   UNL     1     -10.835  16.613  67.182  1.00  0.00    -0.126 C  
HETATM    2  C   UNL     1     -10.049  16.831  65.889  1.00  0.00    -0.304 C  
HETATM    3  C   UNL     1      -8.601  16.374  66.083  1.00  0.00    -0.343 C  
ENDROOT
BRANCH   2   4
HETATM    4  N   UNL     1     -10.716  16.084  64.822  1.00  0.00    -0.768 NA 
HETATM    5  H   UNL     1     -10.497  16.485  63.910  1.00  0.00     0.000 HD 
BRANCH   4   6
HETATM    6  C   UNL     1     -10.422  14.647  64.840  1.00  0.00    -0.387 C  
BRANCH   6   7
HETATM    7  C   UNL     1     -11.738  13.853  64.822  1.00  0.00    -0.386 C  
HETATM    8  H   UNL     1     -13.412  13.855  63.778  1.00  0.00     0.000 HD 
HETATM    9  O   UNL     1     -12.599  14.346  63.789  1.00  0.00    -0.829 OA 
BRANCH   7  10
HETATM   10  C   UNL     1     -11.476  12.359  64.629  1.00  0.00    -0.331 C  
BRANCH  10  11
HETATM   11  O   UNL     1     -11.351  11.685  65.895  1.00  0.00    -0.298 OA 
BRANCH  11  12
HETATM   12  C   UNL     1     -10.635  10.511  65.834  1.00  0.00    -0.078 A  
HETATM   13  C   UNL     1     -10.702   9.506  66.790  1.00  0.00    -0.136 A  
HETATM   14  C   UNL     1      -9.897   8.376  66.702  1.00  0.00    -0.343 A  
HETATM   15  C   UNL     1      -9.012   8.206  65.637  1.00  0.00    -0.080 A  
HETATM   16  C   UNL     1      -9.780  10.341  64.742  1.00  0.00    -0.397 A  
HETATM   17  C   UNL     1      -8.967   9.196  64.645  1.00  0.00    -0.159 A  
BRANCH  15  18
HETATM   18  N   UNL     1      -8.142   7.097  65.558  1.00  0.00    -0.129 N  
HETATM   19  H   UNL     1      -7.888   6.769  64.627  1.00  0.00     0.000 HD 
HETATM   20  C   UNL     1      -7.602   6.414  66.639  1.00  0.00    -0.094 C  
HETATM   21  O   UNL     1      -7.918   6.532  67.817  1.00  0.00    -0.112 OA 
HETATM   22  C   UNL     1      -6.544   5.420  66.248  1.00  0.00    -0.052 C  
ENDBRANCH  15  18
ENDBRANCH  11  12
ENDBRANCH  10  11
ENDBRANCH   7  10
ENDBRANCH   6   7
ENDBRANCH   4   6
ENDBRANCH   2   4
TORSDOF 7
ENDMDL
MODEL      175
REMARK 921   NORMALIZED FREE ENERGY PREDICTED BY IDOCK:   -3.26 KCAL/MOL
REMARK 922        TOTAL FREE ENERGY PREDICTED BY IDOCK:   -5.43 KCAL/MOL
REMARK 923 INTER-LIGAND FREE ENERGY PREDICTED BY IDOCK:   -5.19 KCAL/MOL
REMARK 924 INTRA-LIGAND FREE ENERGY PREDICTED BY IDOCK:   -0.24 KCAL/MOL
REMARK 927      BINDING AFFINITY PREDICTED BY RF-SCORE:    0.00 PKD
ROOT
HETATM    1  C   UNL     1     -10.386  10.847  64.162  1.00  0.00    -0.432 C  
HETATM    2  C   UNL     1     -10.915  12.150  63.562  1.00  0.00    -0.453 C  
HETATM    3  C   UNL     1     -12.421  12.259  63.815  1.00  0.00    -0.619 C  
ENDROOT
BRANCH   2   4
HETATM    4  N   UNL     1     -10.181  13.260  64.171  1.00  0.00    -0.724 NA 
HETATM    5  H   UNL     1      -9.732  13.830  63.456  1.00  0.00     0.000 HD 
BRANCH   4   6
HETATM    6  C   UNL     1     -11.004  14.091  65.056  1.00  0.00    -0.375 C  
BRANCH   6   7
HETATM    7  C   UNL     1     -10.393  14.099  66.467  1.00  0.00    -0.284 C  
HETATM    8  H   UNL     1      -9.963  15.442  67.848  1.00  0.00     0.000 HD 
HETATM    9  O   UNL     1     -10.340  15.437  66.976  1.00  0.00    -0.268 OA 
BRANCH   7  10
HETATM   10  C   UNL     1     -11.188  13.200  67.416  1.00  0.00    -0.287 C  
BRANCH  10  11
HETATM   11  O   UNL     1     -10.481  12.999  68.654  1.00  0.00    -0.249 OA 
BRANCH  11  12
HETATM   12  C   UNL     1     -10.007  11.718  68.823  1.00  0.00    -0.115 A  
HETATM   13  C   UNL     1      -8.782  11.270  68.343  1.00  0.00    -0.159 A  
HETATM   14  C   UNL     1      -8.396   9.942  68.488  1.00  0.00    -0.108 A  
HETATM   15  C   UNL     1      -9.218   9.022  69.139  1.00  0.00    -0.144 A  
HETATM   16  C   UNL     1     -10.828  10.818  69.508  1.00  0.00    -0.288 A  
HETATM   17  C   UNL     1     -10.438   9.474  69.662  1.00  0.00    -0.239 A  
BRANCH  15  18
HETATM   18  N   UNL     1      -8.875   7.657  69.245  1.00  0.00    -0.136 N  
HETATM   19  H   UNL     1      -9.275   7.134  70.023  1.00  0.00     0.000 HD 
HETATM   20  C   UNL     1      -8.040   6.964  68.380  1.00  0.00    -0.120 C  
HETATM   21  O   UNL     1      -7.327   7.441  67.504  1.00  0.00    -0.096 OA 
HETATM   22  C   UNL     1      -8.034   5.479  68.618  1.00  0.00    -0.092 C  
ENDBRANCH  15  18
ENDBRANCH  11  12
ENDBRANCH  10  11
ENDBRANCH   7  10
ENDBRANCH   6   7
ENDBRANCH   4   6
ENDBRANCH   2   4
TORSDOF 7
ENDMDL
MODEL      176
REMARK 921   NORMALIZED FREE ENERGY PREDICTED BY IDOCK:   -3.25 KCAL/MOL
REMARK 922        TOTAL FREE ENERGY PREDICTED BY IDOCK:   -5.42 KCAL/MOL
REMARK 923 INTER-LIGAND FREE ENERGY PREDICTED BY IDOCK:   -5.45 KCAL/MOL
REMARK 924 INTRA-LIGAND FREE ENERGY PREDICTED BY IDOCK:    0.03 KCAL/MOL
REMARK 927      BINDING AFFINITY PREDICTED BY RF-SCORE:    0.00 PKD
ROOT
HETATM    1  C   UNL     1      -7.007   3.012  71.975  1.00  0.00    -0.034 C  
HETATM    2  C   UNL     1      -7.601   4.322  71.455  1.00  0.00    -0.068 C  
HETATM    3  C   UNL     1      -7.791   4.235  69.939  1.00  0.00    -0.052 C  
ENDROOT
BRANCH   2   4
HETATM    4  N   UNL     1      -8.869   4.551  72.149  1.00  0.00    -0.120 NA 
HETATM    5  H   UNL     1      -8.750   4.458  73.157  1.00  0.00     0.000 HD 
BRANCH   4   6
HETATM    6  C   UNL     1      -9.495   5.835  71.817  1.00  0.00    -0.148 C  
BRANCH   6   7
HETATM    7  C   UNL     1     -10.817   5.976  72.589  1.00  0.00    -0.244 C  
HETATM    8  H   UNL     1     -11.452   6.904  74.210  1.00  0.00     0.000 HD 
HETATM    9  O   UNL     1     -10.635   6.817  73.734  1.00  0.00    -0.337 OA 
BRANCH   7  10
HETATM   10  C   UNL     1     -11.922   6.533  71.690  1.00  0.00    -0.335 C  
BRANCH  10  11
HETATM   11  O   UNL     1     -11.410   7.548  70.806  1.00  0.00    -0.273 OA 
BRANCH  11  12
HETATM   12  C   UNL     1     -11.949   8.797  71.020  1.00  0.00    -0.251 A  
HETATM   13  C   UNL     1     -11.664   9.912  70.243  1.00  0.00    -0.286 A  
HETATM   14  C   UNL     1     -12.189  11.161  70.558  1.00  0.00    -0.475 A  
HETATM   15  C   UNL     1     -13.036  11.327  71.654  1.00  0.00    -0.408 A  
HETATM   16  C   UNL     1     -12.823   8.939  72.101  1.00  0.00    -0.471 A  
HETATM   17  C   UNL     1     -13.361  10.199  72.421  1.00  0.00    -0.201 A  
BRANCH  15  18
HETATM   18  N   UNL     1     -13.532  12.595  72.030  1.00  0.00    -0.484 N  
HETATM   19  H   UNL     1     -14.330  12.614  72.664  1.00  0.00     0.000 HD 
HETATM   20  C   UNL     1     -13.027  13.817  71.610  1.00  0.00    -0.364 C  
HETATM   21  O   UNL     1     -12.204  14.008  70.722  1.00  0.00    -0.329 OA 
HETATM   22  C   UNL     1     -13.618  14.990  72.343  1.00  0.00    -0.565 C  
ENDBRANCH  15  18
ENDBRANCH  11  12
ENDBRANCH  10  11
ENDBRANCH   7  10
ENDBRANCH   6   7
ENDBRANCH   4   6
ENDBRANCH   2   4
TORSDOF 7
ENDMDL
MODEL      177
REMARK 921   NORMALIZED FREE ENERGY PREDICTED BY IDOCK:   -3.23 KCAL/MOL
REMARK 922        TOTAL FREE ENERGY PREDICTED BY IDOCK:   -5.40 KCAL/MOL
REMARK 923 INTER-LIGAND FREE ENERGY PREDICTED BY IDOCK:   -4.70 KCAL/MOL
REMARK 924 INTRA-LIGAND FREE ENERGY PREDICTED BY IDOCK:   -0.70 KCAL/MOL
REMARK 927      BINDING AFFINITY PREDICTED BY RF-SCORE:    0.00 PKD
ROOT
HETATM    1  C   UNL     1     -10.138  17.902  69.541  1.00  0.00     0.150 C  
HETATM    2  C   UNL     1     -10.392  16.394  69.551  1.00  0.00    -0.278 C  
HETATM    3  C   UNL     1     -11.451  16.057  70.603  1.00  0.00    -0.427 C  
ENDROOT
BRANCH   2   4
HETATM    4  N   UNL     1     -10.816  15.998  68.207  1.00  0.00    -0.304 NA 
HETATM    5  H   UNL     1     -11.716  15.519  68.240  1.00  0.00     0.000 HD 
BRANCH   4   6
HETATM    6  C   UNL     1     -10.854  17.110  67.253  1.00  0.00    -0.118 C  
BRANCH   6   7
HETATM    7  C   UNL     1      -9.884  16.827  66.095  1.00  0.00    -0.309 C  
HETATM    8  H   UNL     1      -8.426  17.779  65.166  1.00  0.00     0.000 HD 
HETATM    9  O   UNL     1      -9.026  17.954  65.881  1.00  0.00    -0.512 OA 
BRANCH   7  10
HETATM   10  C   UNL     1      -9.055  15.571  66.366  1.00  0.00    -0.316 C  
BRANCH  10  11
HETATM   11  O   UNL     1      -9.668  14.407  65.780  1.00  0.00    -0.304 OA 
BRANCH  11  12
HETATM   12  C   UNL     1      -9.552  13.271  66.547  1.00  0.00    -0.264 A  
HETATM   13  C   UNL     1     -10.465  12.223  66.533  1.00  0.00    -0.254 A  
HETATM   14  C   UNL     1     -10.324  11.135  67.387  1.00  0.00    -0.231 A  
HETATM   15  C   UNL     1      -9.247  11.051  68.270  1.00  0.00    -0.165 A  
HETATM   16  C   UNL     1      -8.449  13.186  67.401  1.00  0.00    -0.201 A  
HETATM   17  C   UNL     1      -8.299  12.083  68.263  1.00  0.00    -0.163 A  
BRANCH  15  18
HETATM   18  N   UNL     1      -9.116   9.986  69.188  1.00  0.00    -0.172 N  
HETATM   19  H   UNL     1      -8.329   9.351  69.056  1.00  0.00     0.000 HD 
HETATM   20  C   UNL     1      -9.965   9.729  70.255  1.00  0.00    -0.253 C  
HETATM   21  O   UNL     1     -11.051  10.254  70.476  1.00  0.00    -0.302 OA 
HETATM   22  C   UNL     1      -9.453   8.661  71.182  1.00  0.00    -0.274 C  
ENDBRANCH  15  18
ENDBRANCH  11  12
ENDBRANCH  10  11
ENDBRANCH   7  10
ENDBRANCH   6   7
ENDBRANCH   4   6
ENDBRANCH   2   4
TORSDOF 7
ENDMDL
MODEL      178
REMARK 921   NORMALIZED FREE ENERGY PREDICTED BY IDOCK:   -3.22 KCAL/MOL
REMARK 922        TOTAL FREE ENERGY PREDICTED BY IDOCK:   -5.38 KCAL/MOL
REMARK 923 INTER-LIGAND FREE ENERGY PREDICTED BY IDOCK:   -4.88 KCAL/MOL
REMARK 924 INTRA-LIGAND FREE ENERGY PREDICTED BY IDOCK:   -0.50 KCAL/MOL
REMARK 927      BINDING AFFINITY PREDICTED BY RF-SCORE:    0.00 PKD
ROOT
HETATM    1  C   UNL     1     -10.689  15.655  66.866  1.00  0.00    -0.307 C  
HETATM    2  C   UNL     1     -11.599  14.468  67.185  1.00  0.00    -0.388 C  
HETATM    3  C   UNL     1     -12.405  14.088  65.940  1.00  0.00    -0.515 C  
ENDROOT
BRANCH   2   4
HETATM    4  N   UNL     1     -10.756  13.363  67.643  1.00  0.00    -0.245 NA 
HETATM    5  H   UNL     1      -9.835  13.702  67.918  1.00  0.00     0.000 HD 
BRANCH   4   6
HETATM    6  C   UNL     1     -11.360  12.573  68.721  1.00  0.00    -0.293 C  
BRANCH   6   7
HETATM    7  C   UNL     1     -11.304  11.081  68.359  1.00  0.00    -0.295 C  
HETATM    8  H   UNL     1     -10.898   9.996  66.761  1.00  0.00     0.000 HD 
HETATM    9  O   UNL     1     -10.933  10.918  66.984  1.00  0.00    -0.273 OA 
BRANCH   7  10
HETATM   10  C   UNL     1     -10.327  10.330  69.265  1.00  0.00    -0.231 C  
BRANCH  10  11
HETATM   11  O   UNL     1      -9.727   9.218  68.574  1.00  0.00    -0.146 OA 
BRANCH  11  12
HETATM   12  C   UNL     1      -9.842   8.020  69.242  1.00  0.00    -0.178 A  
HETATM   13  C   UNL     1     -10.875   7.112  69.043  1.00  0.00    -0.172 A  
HETATM   14  C   UNL     1     -10.968   5.951  69.804  1.00  0.00    -0.452 A  
HETATM   15  C   UNL     1     -10.013   5.653  70.777  1.00  0.00    -0.195 A  
HETATM   16  C   UNL     1      -8.859   7.720  70.189  1.00  0.00    -0.145 A  
HETATM   17  C   UNL     1      -8.945   6.544  70.957  1.00  0.00    -0.146 A  
BRANCH  15  18
HETATM   18  N   UNL     1     -10.120   4.513  71.603  1.00  0.00    -0.193 N  
HETATM   19  H   UNL     1      -9.912   3.609  71.179  1.00  0.00     0.000 HD 
HETATM   20  C   UNL     1     -10.484   4.515  72.942  1.00  0.00    -0.190 C  
HETATM   21  O   UNL     1     -10.941   5.456  73.579  1.00  0.00    -0.285 OA 
HETATM   22  C   UNL     1     -10.301   3.181  73.612  1.00  0.00    -0.229 C  
ENDBRANCH  15  18
ENDBRANCH  11  12
ENDBRANCH  10  11
ENDBRANCH   7  10
ENDBRANCH   6   7
ENDBRANCH   4   6
ENDBRANCH   2   4
TORSDOF 7
ENDMDL
MODEL      179
REMARK 921   NORMALIZED FREE ENERGY PREDICTED BY IDOCK:   -3.20 KCAL/MOL
REMARK 922        TOTAL FREE ENERGY PREDICTED BY IDOCK:   -5.34 KCAL/MOL
REMARK 923 INTER-LIGAND FREE ENERGY PREDICTED BY IDOCK:   -4.82 KCAL/MOL
REMARK 924 INTRA-LIGAND FREE ENERGY PREDICTED BY IDOCK:   -0.52 KCAL/MOL
REMARK 927      BINDING AFFINITY PREDICTED BY RF-SCORE:    0.00 PKD
ROOT
HETATM    1  C   UNL     1     -11.018  16.187  70.028  1.00  0.00    -0.364 C  
HETATM    2  C   UNL     1     -11.837  15.078  70.690  1.00  0.00    -0.313 C  
HETATM    3  C   UNL     1     -12.890  15.697  71.613  1.00  0.00    -0.533 C  
ENDROOT
BRANCH   2   4
HETATM    4  N   UNL     1     -12.449  14.274  69.631  1.00  0.00    -0.500 NA 
HETATM    5  H   UNL     1     -13.460  14.226  69.755  1.00  0.00     0.000 HD 
BRANCH   4   6
HETATM    6  C   UNL     1     -12.112  14.730  68.279  1.00  0.00    -0.144 C  
BRANCH   6   7
HETATM    7  C   UNL     1     -11.886  13.513  67.368  1.00  0.00    -0.384 C  
HETATM    8  H   UNL     1     -12.152  13.064  65.465  1.00  0.00     0.000 HD 
HETATM    9  O   UNL     1     -12.292  13.816  66.028  1.00  0.00    -0.434 OA 
BRANCH   7  10
HETATM   10  C   UNL     1     -10.422  13.072  67.393  1.00  0.00    -0.234 C  
BRANCH  10  11
HETATM   11  O   UNL     1      -9.902  12.923  66.058  1.00  0.00    -0.267 OA 
BRANCH  11  12
HETATM   12  C   UNL     1      -9.455  11.653  65.772  1.00  0.00    -0.226 A  
HETATM   13  C   UNL     1      -8.623  10.913  66.604  1.00  0.00    -0.148 A  
HETATM   14  C   UNL     1      -8.152   9.663  66.221  1.00  0.00    -0.112 A  
HETATM   15  C   UNL     1      -8.519   9.101  64.997  1.00  0.00    -0.171 A  
HETATM   16  C   UNL     1      -9.860  11.091  64.559  1.00  0.00    -0.343 A  
HETATM   17  C   UNL     1      -9.391   9.822  64.169  1.00  0.00    -0.237 A  
BRANCH  15  18
HETATM   18  N   UNL     1      -8.005   7.861  64.560  1.00  0.00    -0.141 N  
HETATM   19  H   UNL     1      -7.332   7.878  63.794  1.00  0.00     0.000 HD 
HETATM   20  C   UNL     1      -8.336   6.619  65.083  1.00  0.00    -0.088 C  
HETATM   21  O   UNL     1      -9.242   6.369  65.870  1.00  0.00    -0.116 OA 
HETATM   22  C   UNL     1      -7.471   5.503  64.565  1.00  0.00    -0.068 C  
ENDBRANCH  15  18
ENDBRANCH  11  12
ENDBRANCH  10  11
ENDBRANCH   7  10
ENDBRANCH   6   7
ENDBRANCH   4   6
ENDBRANCH   2   4
TORSDOF 7
ENDMDL
MODEL      180
REMARK 921   NORMALIZED FREE ENERGY PREDICTED BY IDOCK:   -3.19 KCAL/MOL
REMARK 922        TOTAL FREE ENERGY PREDICTED BY IDOCK:   -5.34 KCAL/MOL
REMARK 923 INTER-LIGAND FREE ENERGY PREDICTED BY IDOCK:   -4.61 KCAL/MOL
REMARK 924 INTRA-LIGAND FREE ENERGY PREDICTED BY IDOCK:   -0.73 KCAL/MOL
REMARK 927      BINDING AFFINITY PREDICTED BY RF-SCORE:    0.00 PKD
ROOT
HETATM    1  C   UNL     1     -10.738  19.755  65.566  1.00  0.00    -0.329 C  
HETATM    2  C   UNL     1     -10.397  19.956  67.043  1.00  0.00    -0.461 C  
HETATM    3  C   UNL     1     -10.653  18.658  67.812  1.00  0.00    -0.433 C  
ENDROOT
BRANCH   2   4
HETATM    4  N   UNL     1      -8.996  20.372  67.131  1.00  0.00    -0.451 NA 
HETATM    5  H   UNL     1      -8.803  20.796  68.038  1.00  0.00     0.000 HD 
BRANCH   4   6
HETATM    6  C   UNL     1      -8.045  19.292  66.850  1.00  0.00    -0.267 C  
BRANCH   6   7
HETATM    7  C   UNL     1      -6.975  19.251  67.952  1.00  0.00    -0.237 C  
HETATM    8  H   UNL     1      -6.904  19.498  69.909  1.00  0.00     0.000 HD 
HETATM    9  O   UNL     1      -7.566  19.524  69.228  1.00  0.00    -0.343 OA 
BRANCH   7  10
HETATM   10  C   UNL     1      -6.261  17.898  67.976  1.00  0.00    -0.169 C  
BRANCH  10  11
HETATM   11  O   UNL     1      -6.816  17.035  68.986  1.00  0.00    -0.207 OA 
BRANCH  11  12
HETATM   12  C   UNL     1      -7.311  15.849  68.494  1.00  0.00    -0.127 A  
HETATM   13  C   UNL     1      -8.388  15.755  67.621  1.00  0.00    -0.170 A  
HETATM   14  C   UNL     1      -8.881  14.519  67.219  1.00  0.00    -0.221 A  
HETATM   15  C   UNL     1      -8.296  13.333  67.664  1.00  0.00    -0.181 A  
HETATM   16  C   UNL     1      -6.692  14.672  68.922  1.00  0.00    -0.096 A  
HETATM   17  C   UNL     1      -7.184  13.418  68.514  1.00  0.00    -0.110 A  
BRANCH  15  18
HETATM   18  N   UNL     1      -8.817  12.067  67.319  1.00  0.00    -0.175 N  
HETATM   19  H   UNL     1      -8.416  11.605  66.504  1.00  0.00     0.000 HD 
HETATM   20  C   UNL     1      -9.829  11.398  67.992  1.00  0.00    -0.184 C  
HETATM   21  O   UNL     1     -10.554  11.851  68.870  1.00  0.00    -0.217 OA 
HETATM   22  C   UNL     1     -10.021   9.981  67.525  1.00  0.00    -0.232 C  
ENDBRANCH  15  18
ENDBRANCH  11  12
ENDBRANCH  10  11
ENDBRANCH   7  10
ENDBRANCH   6   7
ENDBRANCH   4   6
ENDBRANCH   2   4
TORSDOF 7
ENDMDL
MODEL      181
REMARK 921   NORMALIZED FREE ENERGY PREDICTED BY IDOCK:   -3.19 KCAL/MOL
REMARK 922        TOTAL FREE ENERGY PREDICTED BY IDOCK:   -5.33 KCAL/MOL
REMARK 923 INTER-LIGAND FREE ENERGY PREDICTED BY IDOCK:   -4.83 KCAL/MOL
REMARK 924 INTRA-LIGAND FREE ENERGY PREDICTED BY IDOCK:   -0.50 KCAL/MOL
REMARK 927      BINDING AFFINITY PREDICTED BY RF-SCORE:    0.00 PKD
ROOT
HETATM    1  C   UNL     1     -10.552  12.157  65.382  1.00  0.00    -0.309 C  
HETATM    2  C   UNL     1     -11.193  13.494  65.755  1.00  0.00    -0.297 C  
HETATM    3  C   UNL     1     -12.691  13.453  65.440  1.00  0.00    -0.484 C  
ENDROOT
BRANCH   2   4
HETATM    4  N   UNL     1     -10.945  13.735  67.177  1.00  0.00    -0.286 NA 
HETATM    5  H   UNL     1     -10.530  14.655  67.320  1.00  0.00     0.000 HD 
BRANCH   4   6
HETATM    6  C   UNL     1     -12.134  13.566  68.017  1.00  0.00    -0.262 C  
BRANCH   6   7
HETATM    7  C   UNL     1     -11.720  13.008  69.388  1.00  0.00    -0.326 C  
HETATM    8  H   UNL     1     -12.175  13.338  71.280  1.00  0.00     0.000 HD 
HETATM    9  O   UNL     1     -12.431  13.683  70.433  1.00  0.00    -0.326 OA 
BRANCH   7  10
HETATM   10  C   UNL     1     -11.967  11.500  69.466  1.00  0.00    -0.335 C  
BRANCH  10  11
HETATM   11  O   UNL     1     -11.350  10.933  70.637  1.00  0.00    -0.256 OA 
BRANCH  11  12
HETATM   12  C   UNL     1     -10.897   9.645  70.461  1.00  0.00    -0.309 A  
HETATM   13  C   UNL     1     -10.767   9.027  69.223  1.00  0.00    -0.189 A  
HETATM   14  C   UNL     1     -10.370   7.699  69.122  1.00  0.00    -0.217 A  
HETATM   15  C   UNL     1     -10.069   6.951  70.261  1.00  0.00    -0.183 A  
HETATM   16  C   UNL     1     -10.566   8.922  71.609  1.00  0.00    -0.422 A  
HETATM   17  C   UNL     1     -10.158   7.578  71.511  1.00  0.00    -0.201 A  
BRANCH  15  18
HETATM   18  N   UNL     1      -9.723   5.584  70.187  1.00  0.00    -0.171 N  
HETATM   19  H   UNL     1     -10.441   4.907  70.441  1.00  0.00     0.000 HD 
HETATM   20  C   UNL     1      -8.489   5.082  69.798  1.00  0.00    -0.088 C  
HETATM   21  O   UNL     1      -7.454   5.718  69.631  1.00  0.00    -0.072 OA 
HETATM   22  C   UNL     1      -8.484   3.590  69.609  1.00  0.00    -0.096 C  
ENDBRANCH  15  18
ENDBRANCH  11  12
ENDBRANCH  10  11
ENDBRANCH   7  10
ENDBRANCH   6   7
ENDBRANCH   4   6
ENDBRANCH   2   4
TORSDOF 7
ENDMDL
MODEL      182
REMARK 921   NORMALIZED FREE ENERGY PREDICTED BY IDOCK:   -3.19 KCAL/MOL
REMARK 922        TOTAL FREE ENERGY PREDICTED BY IDOCK:   -5.33 KCAL/MOL
REMARK 923 INTER-LIGAND FREE ENERGY PREDICTED BY IDOCK:   -4.79 KCAL/MOL
REMARK 924 INTRA-LIGAND FREE ENERGY PREDICTED BY IDOCK:   -0.54 KCAL/MOL
REMARK 927      BINDING AFFINITY PREDICTED BY RF-SCORE:    0.00 PKD
ROOT
HETATM    1  C   UNL     1     -11.949  11.872  70.064  1.00  0.00    -0.409 C  
HETATM    2  C   UNL     1     -11.833  13.007  69.045  1.00  0.00    -0.316 C  
HETATM    3  C   UNL     1     -11.814  14.353  69.773  1.00  0.00    -0.375 C  
ENDROOT
BRANCH   2   4
HETATM    4  N   UNL     1     -10.612  12.794  68.267  1.00  0.00    -0.232 NA 
HETATM    5  H   UNL     1     -10.165  11.916  68.531  1.00  0.00     0.000 HD 
BRANCH   4   6
HETATM    6  C   UNL     1     -10.822  12.854  66.817  1.00  0.00    -0.267 C  
BRANCH   6   7
HETATM    7  C   UNL     1     -11.024  11.432  66.268  1.00  0.00    -0.247 C  
HETATM    8  H   UNL     1     -10.975  10.543  64.507  1.00  0.00     0.000 HD 
HETATM    9  O   UNL     1     -10.849  11.421  64.846  1.00  0.00    -0.297 OA 
BRANCH   7  10
HETATM   10  C   UNL     1     -10.063  10.444  66.930  1.00  0.00    -0.219 C  
BRANCH  10  11
HETATM   11  O   UNL     1     -10.051   9.185  66.233  1.00  0.00    -0.286 OA 
BRANCH  11  12
HETATM   12  C   UNL     1      -9.896   8.093  67.056  1.00  0.00    -0.232 A  
HETATM   13  C   UNL     1      -8.735   7.809  67.764  1.00  0.00    -0.123 A  
HETATM   14  C   UNL     1      -8.622   6.649  68.523  1.00  0.00    -0.124 A  
HETATM   15  C   UNL     1      -9.681   5.745  68.615  1.00  0.00    -0.131 A  
HETATM   16  C   UNL     1     -10.979   7.216  67.165  1.00  0.00    -0.342 A  
HETATM   17  C   UNL     1     -10.871   6.044  67.937  1.00  0.00    -0.378 A  
BRANCH  15  18
HETATM   18  N   UNL     1      -9.568   4.533  69.330  1.00  0.00    -0.173 N  
HETATM   19  H   UNL     1      -9.270   3.710  68.807  1.00  0.00     0.000 HD 
HETATM   20  C   UNL     1      -9.828   4.364  70.682  1.00  0.00    -0.210 C  
HETATM   21  O   UNL     1     -10.361   5.170  71.436  1.00  0.00    -0.210 OA 
HETATM   22  C   UNL     1      -9.414   3.016  71.206  1.00  0.00    -0.220 C  
ENDBRANCH  15  18
ENDBRANCH  11  12
ENDBRANCH  10  11
ENDBRANCH   7  10
ENDBRANCH   6   7
ENDBRANCH   4   6
ENDBRANCH   2   4
TORSDOF 7
ENDMDL
MODEL      183
REMARK 921   NORMALIZED FREE ENERGY PREDICTED BY IDOCK:   -3.19 KCAL/MOL
REMARK 922        TOTAL FREE ENERGY PREDICTED BY IDOCK:   -5.33 KCAL/MOL
REMARK 923 INTER-LIGAND FREE ENERGY PREDICTED BY IDOCK:   -5.45 KCAL/MOL
REMARK 924 INTRA-LIGAND FREE ENERGY PREDICTED BY IDOCK:    0.12 KCAL/MOL
REMARK 927      BINDING AFFINITY PREDICTED BY RF-SCORE:    0.00 PKD
ROOT
HETATM    1  C   UNL     1      -8.210   8.502  71.634  1.00  0.00    -0.209 C  
HETATM    2  C   UNL     1      -7.031   9.063  70.837  1.00  0.00    -0.093 C  
HETATM    3  C   UNL     1      -5.943   7.995  70.707  1.00  0.00    -0.033 C  
ENDROOT
BRANCH   2   4
HETATM    4  N   UNL     1      -7.530   9.492  69.530  1.00  0.00    -0.084 NA 
HETATM    5  H   UNL     1      -7.199   8.867  68.796  1.00  0.00     0.000 HD 
BRANCH   4   6
HETATM    6  C   UNL     1      -8.989   9.628  69.476  1.00  0.00    -0.194 C  
BRANCH   6   7
HETATM    7  C   UNL     1      -9.356  11.049  69.019  1.00  0.00    -0.091 C  
HETATM    8  H   UNL     1      -8.396  12.699  68.519  1.00  0.00     0.000 HD 
HETATM    9  O   UNL     1      -8.169  11.821  68.801  1.00  0.00    -0.121 OA 
BRANCH   7  10
HETATM   10  C   UNL     1     -10.209  11.016  67.750  1.00  0.00    -0.183 C  
BRANCH  10  11
HETATM   11  O   UNL     1     -11.613  11.007  68.067  1.00  0.00    -0.452 OA 
BRANCH  11  12
HETATM   12  C   UNL     1     -11.961  11.868  69.083  1.00  0.00    -0.276 A  
HETATM   13  C   UNL     1     -11.869  13.252  68.997  1.00  0.00    -0.365 A  
HETATM   14  C   UNL     1     -12.170  14.060  70.088  1.00  0.00    -0.425 A  
HETATM   15  C   UNL     1     -12.596  13.507  71.296  1.00  0.00    -0.341 A  
HETATM   16  C   UNL     1     -12.419  11.299  70.275  1.00  0.00    -0.330 A  
HETATM   17  C   UNL     1     -12.731  12.114  71.379  1.00  0.00    -0.368 A  
BRANCH  15  18
HETATM   18  N   UNL     1     -12.849  14.304  72.434  1.00  0.00    -0.353 N  
HETATM   19  H   UNL     1     -13.549  13.965  73.093  1.00  0.00     0.000 HD 
HETATM   20  C   UNL     1     -12.227  15.507  72.733  1.00  0.00    -0.432 C  
HETATM   21  O   UNL     1     -11.503  16.166  71.995  1.00  0.00    -0.391 OA 
HETATM   22  C   UNL     1     -12.542  16.015  74.113  1.00  0.00    -0.714 C  
ENDBRANCH  15  18
ENDBRANCH  11  12
ENDBRANCH  10  11
ENDBRANCH   7  10
ENDBRANCH   6   7
ENDBRANCH   4   6
ENDBRANCH   2   4
TORSDOF 7
ENDMDL
MODEL      184
REMARK 921   NORMALIZED FREE ENERGY PREDICTED BY IDOCK:   -3.17 KCAL/MOL
REMARK 922        TOTAL FREE ENERGY PREDICTED BY IDOCK:   -5.31 KCAL/MOL
REMARK 923 INTER-LIGAND FREE ENERGY PREDICTED BY IDOCK:   -4.97 KCAL/MOL
REMARK 924 INTRA-LIGAND FREE ENERGY PREDICTED BY IDOCK:   -0.34 KCAL/MOL
REMARK 927      BINDING AFFINITY PREDICTED BY RF-SCORE:    0.00 PKD
ROOT
HETATM    1  C   UNL     1     -11.132  16.241  69.481  1.00  0.00    -0.330 C  
HETATM    2  C   UNL     1     -11.834  14.953  69.916  1.00  0.00    -0.311 C  
HETATM    3  C   UNL     1     -12.975  15.288  70.879  1.00  0.00    -0.522 C  
ENDROOT
BRANCH   2   4
HETATM    4  N   UNL     1     -12.321  14.275  68.713  1.00  0.00    -0.573 NA 
HETATM    5  H   UNL     1     -13.332  14.377  68.627  1.00  0.00     0.000 HD 
BRANCH   4   6
HETATM    6  C   UNL     1     -11.649  14.708  67.484  1.00  0.00    -0.375 C  
BRANCH   6   7
HETATM    7  C   UNL     1     -11.077  13.483  66.753  1.00  0.00    -0.299 C  
HETATM    8  H   UNL     1      -9.770  13.140  65.314  1.00  0.00     0.000 HD 
HETATM    9  O   UNL     1     -10.124  13.897  65.765  1.00  0.00    -0.307 OA 
BRANCH   7  10
HETATM   10  C   UNL     1     -10.432  12.507  67.737  1.00  0.00    -0.220 C  
BRANCH  10  11
HETATM   11  O   UNL     1      -9.629  11.529  67.048  1.00  0.00    -0.182 OA 
BRANCH  11  12
HETATM   12  C   UNL     1      -9.623  10.290  67.647  1.00  0.00    -0.152 A  
HETATM   13  C   UNL     1     -10.423   9.227  67.247  1.00  0.00    -0.334 A  
HETATM   14  C   UNL     1     -10.418   8.023  67.943  1.00  0.00    -0.259 A  
HETATM   15  C   UNL     1      -9.592   7.838  69.052  1.00  0.00    -0.155 A  
HETATM   16  C   UNL     1      -8.765  10.111  68.735  1.00  0.00    -0.138 A  
HETATM   17  C   UNL     1      -8.752   8.892  69.439  1.00  0.00    -0.142 A  
BRANCH  15  18
HETATM   18  N   UNL     1      -9.615   6.647  69.810  1.00  0.00    -0.150 N  
HETATM   19  H   UNL     1      -9.774   6.736  70.813  1.00  0.00     0.000 HD 
HETATM   20  C   UNL     1      -9.439   5.366  69.308  1.00  0.00    -0.133 C  
HETATM   21  O   UNL     1      -9.061   5.061  68.182  1.00  0.00    -0.109 OA 
HETATM   22  C   UNL     1      -9.730   4.286  70.313  1.00  0.00    -0.280 C  
ENDBRANCH  15  18
ENDBRANCH  11  12
ENDBRANCH  10  11
ENDBRANCH   7  10
ENDBRANCH   6   7
ENDBRANCH   4   6
ENDBRANCH   2   4
TORSDOF 7
ENDMDL
MODEL      185
REMARK 921   NORMALIZED FREE ENERGY PREDICTED BY IDOCK:   -3.16 KCAL/MOL
REMARK 922        TOTAL FREE ENERGY PREDICTED BY IDOCK:   -5.30 KCAL/MOL
REMARK 923 INTER-LIGAND FREE ENERGY PREDICTED BY IDOCK:   -4.86 KCAL/MOL
REMARK 924 INTRA-LIGAND FREE ENERGY PREDICTED BY IDOCK:   -0.44 KCAL/MOL
REMARK 927      BINDING AFFINITY PREDICTED BY RF-SCORE:    0.00 PKD
ROOT
HETATM    1  C   UNL     1     -12.525  14.639  70.459  1.00  0.00    -0.408 C  
HETATM    2  C   UNL     1     -12.157  13.846  69.204  1.00  0.00    -0.338 C  
HETATM    3  C   UNL     1     -11.358  14.736  68.249  1.00  0.00    -0.319 C  
ENDROOT
BRANCH   2   4
HETATM    4  N   UNL     1     -11.391  12.671  69.620  1.00  0.00    -0.479 NA 
HETATM    5  H   UNL     1     -11.310  12.635  70.636  1.00  0.00     0.000 HD 
BRANCH   4   6
HETATM    6  C   UNL     1     -11.924  11.409  69.098  1.00  0.00    -0.328 C  
BRANCH   6   7
HETATM    7  C   UNL     1     -10.995  10.252  69.501  1.00  0.00    -0.258 C  
HETATM    8  H   UNL     1      -9.051   9.925  69.592  1.00  0.00     0.000 HD 
HETATM    9  O   UNL     1      -9.625  10.640  69.343  1.00  0.00    -0.187 OA 
BRANCH   7  10
HETATM   10  C   UNL     1     -11.259   9.811  70.941  1.00  0.00    -0.359 C  
BRANCH  10  11
HETATM   11  O   UNL     1     -12.055   8.611  70.979  1.00  0.00    -0.287 OA 
BRANCH  11  12
HETATM   12  C   UNL     1     -11.317   7.451  70.941  1.00  0.00    -0.276 A  
HETATM   13  C   UNL     1     -10.536   6.988  71.994  1.00  0.00    -0.237 A  
HETATM   14  C   UNL     1      -9.758   5.843  71.862  1.00  0.00    -0.173 A  
HETATM   15  C   UNL     1      -9.755   5.110  70.675  1.00  0.00    -0.192 A  
HETATM   16  C   UNL     1     -11.352   6.710  69.757  1.00  0.00    -0.412 A  
HETATM   17  C   UNL     1     -10.571   5.547  69.622  1.00  0.00    -0.375 A  
BRANCH  15  18
HETATM   18  N   UNL     1      -8.928   3.980  70.498  1.00  0.00    -0.090 N  
HETATM   19  H   UNL     1      -9.296   3.080  70.805  1.00  0.00     0.000 HD 
HETATM   20  C   UNL     1      -7.657   3.987  69.941  1.00  0.00    -0.052 C  
HETATM   21  O   UNL     1      -6.973   4.970  69.681  1.00  0.00    -0.051 OA 
HETATM   22  C   UNL     1      -7.110   2.610  69.685  1.00  0.00    -0.040 C  
ENDBRANCH  15  18
ENDBRANCH  11  12
ENDBRANCH  10  11
ENDBRANCH   7  10
ENDBRANCH   6   7
ENDBRANCH   4   6
ENDBRANCH   2   4
TORSDOF 7
ENDMDL
MODEL      186
REMARK 921   NORMALIZED FREE ENERGY PREDICTED BY IDOCK:   -3.15 KCAL/MOL
REMARK 922        TOTAL FREE ENERGY PREDICTED BY IDOCK:   -5.27 KCAL/MOL
REMARK 923 INTER-LIGAND FREE ENERGY PREDICTED BY IDOCK:   -5.16 KCAL/MOL
REMARK 924 INTRA-LIGAND FREE ENERGY PREDICTED BY IDOCK:   -0.11 KCAL/MOL
REMARK 927      BINDING AFFINITY PREDICTED BY RF-SCORE:    0.00 PKD
ROOT
HETATM    1  C   UNL     1      -9.813  13.273  66.131  1.00  0.00    -0.286 C  
HETATM    2  C   UNL     1     -10.001  14.741  65.747  1.00  0.00    -0.347 C  
HETATM    3  C   UNL     1     -11.308  14.908  64.970  1.00  0.00    -0.398 C  
ENDROOT
BRANCH   2   4
HETATM    4  N   UNL     1      -9.997  15.534  66.977  1.00  0.00    -0.236 NA 
HETATM    5  H   UNL     1      -9.414  16.364  66.869  1.00  0.00     0.000 HD 
BRANCH   4   6
HETATM    6  C   UNL     1     -11.338  15.900  67.444  1.00  0.00    -0.048 C  
BRANCH   6   7
HETATM    7  C   UNL     1     -11.434  15.670  68.961  1.00  0.00    -0.363 C  
HETATM    8  H   UNL     1     -12.749  16.011  70.393  1.00  0.00     0.000 HD 
HETATM    9  O   UNL     1     -12.689  16.153  69.456  1.00  0.00     0.103 OA 
BRANCH   7  10
HETATM   10  C   UNL     1     -11.260  14.191  69.306  1.00  0.00    -0.269 C  
BRANCH  10  11
HETATM   11  O   UNL     1     -12.489  13.624  69.797  1.00  0.00    -0.265 OA 
BRANCH  11  12
HETATM   12  C   UNL     1     -12.340  12.383  70.373  1.00  0.00    -0.227 A  
HETATM   13  C   UNL     1     -11.535  11.375  69.856  1.00  0.00    -0.353 A  
HETATM   14  C   UNL     1     -11.486  10.119  70.450  1.00  0.00    -0.400 A  
HETATM   15  C   UNL     1     -12.226   9.839  71.599  1.00  0.00    -0.404 A  
HETATM   16  C   UNL     1     -13.062  12.130  71.542  1.00  0.00    -0.357 A  
HETATM   17  C   UNL     1     -13.010  10.862  72.151  1.00  0.00    -0.273 A  
BRANCH  15  18
HETATM   18  N   UNL     1     -12.239   8.554  72.185  1.00  0.00    -0.358 N  
HETATM   19  H   UNL     1     -12.411   8.501  73.189  1.00  0.00     0.000 HD 
HETATM   20  C   UNL     1     -12.038   7.357  71.513  1.00  0.00    -0.327 C  
HETATM   21  O   UNL     1     -11.644   7.216  70.361  1.00  0.00    -0.295 OA 
HETATM   22  C   UNL     1     -12.323   6.145  72.356  1.00  0.00    -0.059 C  
ENDBRANCH  15  18
ENDBRANCH  11  12
ENDBRANCH  10  11
ENDBRANCH   7  10
ENDBRANCH   6   7
ENDBRANCH   4   6
ENDBRANCH   2   4
TORSDOF 7
ENDMDL
MODEL      187
REMARK 921   NORMALIZED FREE ENERGY PREDICTED BY IDOCK:   -3.14 KCAL/MOL
REMARK 922        TOTAL FREE ENERGY PREDICTED BY IDOCK:   -5.27 KCAL/MOL
REMARK 923 INTER-LIGAND FREE ENERGY PREDICTED BY IDOCK:   -4.76 KCAL/MOL
REMARK 924 INTRA-LIGAND FREE ENERGY PREDICTED BY IDOCK:   -0.51 KCAL/MOL
REMARK 927      BINDING AFFINITY PREDICTED BY RF-SCORE:    0.00 PKD
ROOT
HETATM    1  C   UNL     1      -6.603   6.861  73.615  1.00  0.00    -0.067 C  
HETATM    2  C   UNL     1      -6.680   8.376  73.421  1.00  0.00    -0.097 C  
HETATM    3  C   UNL     1      -5.289   8.989  73.599  1.00  0.00    -0.106 C  
ENDROOT
BRANCH   2   4
HETATM    4  N   UNL     1      -7.219   8.635  72.086  1.00  0.00    -0.252 NA 
HETATM    5  H   UNL     1      -6.868   7.951  71.416  1.00  0.00     0.000 HD 
BRANCH   4   6
HETATM    6  C   UNL     1      -8.684   8.694  72.046  1.00  0.00    -0.165 C  
BRANCH   6   7
HETATM    7  C   UNL     1      -9.187   8.103  70.719  1.00  0.00    -0.150 C  
HETATM    8  H   UNL     1      -9.534   6.308  69.977  1.00  0.00     0.000 HD 
HETATM    9  O   UNL     1      -9.223   6.673  70.797  1.00  0.00    -0.154 OA 
BRANCH   7  10
HETATM   10  C   UNL     1     -10.568   8.651  70.361  1.00  0.00    -0.220 C  
BRANCH  10  11
HETATM   11  O   UNL     1     -10.854   8.464  68.962  1.00  0.00    -0.133 OA 
BRANCH  11  12
HETATM   12  C   UNL     1     -10.878   9.634  68.236  1.00  0.00    -0.182 A  
HETATM   13  C   UNL     1     -10.451   9.743  66.918  1.00  0.00    -0.281 A  
HETATM   14  C   UNL     1     -10.436  10.971  66.268  1.00  0.00    -0.310 A  
HETATM   15  C   UNL     1     -10.870  12.130  66.912  1.00  0.00    -0.250 A  
HETATM   16  C   UNL     1     -11.348  10.779  68.885  1.00  0.00    -0.349 A  
HETATM   17  C   UNL     1     -11.341  12.023  68.228  1.00  0.00    -0.342 A  
BRANCH  15  18
HETATM   18  N   UNL     1     -10.807  13.397  66.292  1.00  0.00    -0.287 N  
HETATM   19  H   UNL     1      -9.965  13.951  66.447  1.00  0.00     0.000 HD 
HETATM   20  C   UNL     1     -11.792  13.956  65.490  1.00  0.00    -0.362 C  
HETATM   21  O   UNL     1     -12.934  13.541  65.331  1.00  0.00    -0.656 OA 
HETATM   22  C   UNL     1     -11.355  15.217  64.798  1.00  0.00    -0.399 C  
ENDBRANCH  15  18
ENDBRANCH  11  12
ENDBRANCH  10  11
ENDBRANCH   7  10
ENDBRANCH   6   7
ENDBRANCH   4   6
ENDBRANCH   2   4
TORSDOF 7
ENDMDL
MODEL      188
REMARK 921   NORMALIZED FREE ENERGY PREDICTED BY IDOCK:   -3.12 KCAL/MOL
REMARK 922        TOTAL FREE ENERGY PREDICTED BY IDOCK:   -5.24 KCAL/MOL
REMARK 923 INTER-LIGAND FREE ENERGY PREDICTED BY IDOCK:   -4.72 KCAL/MOL
REMARK 924 INTRA-LIGAND FREE ENERGY PREDICTED BY IDOCK:   -0.52 KCAL/MOL
REMARK 927      BINDING AFFINITY PREDICTED BY RF-SCORE:    0.00 PKD
ROOT
HETATM    1  C   UNL     1      -7.947   6.028  67.659  1.00  0.00    -0.102 C  
HETATM    2  C   UNL     1      -8.919   6.701  66.688  1.00  0.00    -0.142 C  
HETATM    3  C   UNL     1     -10.176   5.841  66.538  1.00  0.00    -0.241 C  
ENDROOT
BRANCH   2   4
HETATM    4  N   UNL     1      -9.231   8.032  67.209  1.00  0.00    -0.136 NA 
HETATM    5  H   UNL     1      -9.288   8.711  66.451  1.00  0.00     0.000 HD 
BRANCH   4   6
HETATM    6  C   UNL     1     -10.444   8.070  68.032  1.00  0.00    -0.184 C  
BRANCH   6   7
HETATM    7  C   UNL     1     -10.182   8.905  69.295  1.00  0.00    -0.209 C  
HETATM    8  H   UNL     1      -8.966   8.832  70.848  1.00  0.00     0.000 HD 
HETATM    9  O   UNL     1      -9.128   8.317  70.067  1.00  0.00    -0.148 OA 
BRANCH   7  10
HETATM   10  C   UNL     1      -9.836  10.351  68.938  1.00  0.00    -0.200 C  
BRANCH  10  11
HETATM   11  O   UNL     1     -10.982  11.210  69.084  1.00  0.00    -0.214 OA 
BRANCH  11  12
HETATM   12  C   UNL     1     -10.822  12.454  68.517  1.00  0.00    -0.242 A  
HETATM   13  C   UNL     1      -9.592  13.070  68.323  1.00  0.00    -0.213 A  
HETATM   14  C   UNL     1      -9.507  14.359  67.809  1.00  0.00    -0.211 A  
HETATM   15  C   UNL     1     -10.655  15.066  67.451  1.00  0.00    -0.271 A  
HETATM   16  C   UNL     1     -11.980  13.134  68.132  1.00  0.00    -0.333 A  
HETATM   17  C   UNL     1     -11.899  14.437  67.605  1.00  0.00    -0.412 A  
BRANCH  15  18
HETATM   18  N   UNL     1     -10.598  16.398  66.984  1.00  0.00    -0.292 N  
HETATM   19  H   UNL     1     -10.597  16.538  65.975  1.00  0.00     0.000 HD 
HETATM   20  C   UNL     1     -10.543  17.532  67.781  1.00  0.00    -0.375 C  
HETATM   21  O   UNL     1     -10.355  17.574  68.991  1.00  0.00    -0.356 OA 
HETATM   22  C   UNL     1     -10.709  18.812  67.009  1.00  0.00    -0.435 C  
ENDBRANCH  15  18
ENDBRANCH  11  12
ENDBRANCH  10  11
ENDBRANCH   7  10
ENDBRANCH   6   7
ENDBRANCH   4   6
ENDBRANCH   2   4
TORSDOF 7
ENDMDL
MODEL      189
REMARK 921   NORMALIZED FREE ENERGY PREDICTED BY IDOCK:   -3.11 KCAL/MOL
REMARK 922        TOTAL FREE ENERGY PREDICTED BY IDOCK:   -5.22 KCAL/MOL
REMARK 923 INTER-LIGAND FREE ENERGY PREDICTED BY IDOCK:   -4.88 KCAL/MOL
REMARK 924 INTRA-LIGAND FREE ENERGY PREDICTED BY IDOCK:   -0.34 KCAL/MOL
REMARK 927      BINDING AFFINITY PREDICTED BY RF-SCORE:    0.00 PKD
ROOT
HETATM    1  C   UNL     1      -8.887  15.386  66.428  1.00  0.00    -0.340 C  
HETATM    2  C   UNL     1     -10.234  16.050  66.716  1.00  0.00    -0.274 C  
HETATM    3  C   UNL     1     -10.175  17.528  66.320  1.00  0.00    -0.356 C  
ENDROOT
BRANCH   2   4
HETATM    4  N   UNL     1     -11.263  15.329  65.966  1.00  0.00    -0.284 NA 
HETATM    5  H   UNL     1     -10.928  15.088  65.034  1.00  0.00     0.000 HD 
BRANCH   4   6
HETATM    6  C   UNL     1     -11.767  14.139  66.659  1.00  0.00    -0.403 C  
BRANCH   6   7
HETATM    7  C   UNL     1     -12.056  13.031  65.634  1.00  0.00    -0.454 C  
HETATM    8  H   UNL     1     -12.867  12.898  63.840  1.00  0.00     0.000 HD 
HETATM    9  O   UNL     1     -12.688  13.583  64.473  1.00  0.00    -0.635 OA 
BRANCH   7  10
HETATM   10  C   UNL     1     -10.774  12.295  65.242  1.00  0.00    -0.292 C  
BRANCH  10  11
HETATM   11  O   UNL     1     -11.012  10.883  65.087  1.00  0.00    -0.125 OA 
BRANCH  11  12
HETATM   12  C   UNL     1     -10.324  10.101  65.987  1.00  0.00    -0.164 A  
HETATM   13  C   UNL     1      -9.452   9.081  65.626  1.00  0.00    -0.273 A  
HETATM   14  C   UNL     1      -8.844   8.282  66.588  1.00  0.00    -0.166 A  
HETATM   15  C   UNL     1      -9.074   8.494  67.948  1.00  0.00    -0.140 A  
HETATM   16  C   UNL     1     -10.539  10.349  67.345  1.00  0.00    -0.321 A  
HETATM   17  C   UNL     1      -9.921   9.547  68.323  1.00  0.00    -0.184 A  
BRANCH  15  18
HETATM   18  N   UNL     1      -8.517   7.658  68.939  1.00  0.00    -0.129 N  
HETATM   19  H   UNL     1      -7.902   8.094  69.626  1.00  0.00     0.000 HD 
HETATM   20  C   UNL     1      -8.733   6.293  69.061  1.00  0.00    -0.125 C  
HETATM   21  O   UNL     1      -9.281   5.559  68.247  1.00  0.00    -0.108 OA 
HETATM   22  C   UNL     1      -8.183   5.713  70.335  1.00  0.00    -0.105 C  
ENDBRANCH  15  18
ENDBRANCH  11  12
ENDBRANCH  10  11
ENDBRANCH   7  10
ENDBRANCH   6   7
ENDBRANCH   4   6
ENDBRANCH   2   4
TORSDOF 7
ENDMDL
MODEL      190
REMARK 921   NORMALIZED FREE ENERGY PREDICTED BY IDOCK:   -3.10 KCAL/MOL
REMARK 922        TOTAL FREE ENERGY PREDICTED BY IDOCK:   -5.21 KCAL/MOL
REMARK 923 INTER-LIGAND FREE ENERGY PREDICTED BY IDOCK:   -4.92 KCAL/MOL
REMARK 924 INTRA-LIGAND FREE ENERGY PREDICTED BY IDOCK:   -0.29 KCAL/MOL
REMARK 927      BINDING AFFINITY PREDICTED BY RF-SCORE:    0.00 PKD
ROOT
HETATM    1  C   UNL     1      -9.934  20.228  66.736  1.00  0.00    -0.587 C  
HETATM    2  C   UNL     1      -8.985  19.143  66.223  1.00  0.00    -0.309 C  
HETATM    3  C   UNL     1      -7.559  19.694  66.160  1.00  0.00    -0.326 C  
ENDROOT
BRANCH   2   4
HETATM    4  N   UNL     1      -9.083  17.994  67.124  1.00  0.00    -0.251 NA 
HETATM    5  H   UNL     1      -8.597  18.181  68.001  1.00  0.00     0.000 HD 
BRANCH   4   6
HETATM    6  C   UNL     1     -10.462  17.564  67.378  1.00  0.00    -0.342 C  
BRANCH   6   7
HETATM    7  C   UNL     1     -10.747  16.268  66.601  1.00  0.00    -0.197 C  
HETATM    8  H   UNL     1     -10.730  15.679  64.718  1.00  0.00     0.000 HD 
HETATM    9  O   UNL     1     -10.554  16.480  65.197  1.00  0.00    -0.632 OA 
BRANCH   7  10
HETATM   10  C   UNL     1      -9.858  15.125  67.093  1.00  0.00    -0.228 C  
BRANCH  10  11
HETATM   11  O   UNL     1     -10.596  13.890  67.171  1.00  0.00    -0.274 OA 
BRANCH  11  12
HETATM   12  C   UNL     1      -9.988  12.836  66.529  1.00  0.00    -0.253 A  
HETATM   13  C   UNL     1      -8.812  12.234  66.960  1.00  0.00    -0.205 A  
HETATM   14  C   UNL     1      -8.213  11.218  66.223  1.00  0.00    -0.126 A  
HETATM   15  C   UNL     1      -8.788  10.756  65.039  1.00  0.00    -0.177 A  
HETATM   16  C   UNL     1     -10.595  12.362  65.363  1.00  0.00    -0.316 A  
HETATM   17  C   UNL     1      -9.996  11.330  64.617  1.00  0.00    -0.331 A  
BRANCH  15  18
HETATM   18  N   UNL     1      -8.167   9.768  64.243  1.00  0.00    -0.148 N  
HETATM   19  H   UNL     1      -8.671   8.893  64.110  1.00  0.00     0.000 HD 
HETATM   20  C   UNL     1      -6.929   9.887  63.627  1.00  0.00    -0.123 C  
HETATM   21  O   UNL     1      -6.098  10.769  63.807  1.00  0.00    -0.001 OA 
HETATM   22  C   UNL     1      -6.628   8.764  62.673  1.00  0.00    -0.095 C  
ENDBRANCH  15  18
ENDBRANCH  11  12
ENDBRANCH  10  11
ENDBRANCH   7  10
ENDBRANCH   6   7
ENDBRANCH   4   6
ENDBRANCH   2   4
TORSDOF 7
ENDMDL
MODEL      191
REMARK 921   NORMALIZED FREE ENERGY PREDICTED BY IDOCK:   -3.07 KCAL/MOL
REMARK 922        TOTAL FREE ENERGY PREDICTED BY IDOCK:   -5.17 KCAL/MOL
REMARK 923 INTER-LIGAND FREE ENERGY PREDICTED BY IDOCK:   -4.47 KCAL/MOL
REMARK 924 INTRA-LIGAND FREE ENERGY PREDICTED BY IDOCK:   -0.71 KCAL/MOL
REMARK 927      BINDING AFFINITY PREDICTED BY RF-SCORE:    0.00 PKD
ROOT
HETATM    1  C   UNL     1      -7.025  10.327  65.433  1.00  0.00    -0.139 C  
HETATM    2  C   UNL     1      -7.352   8.853  65.187  1.00  0.00    -0.092 C  
HETATM    3  C   UNL     1      -6.269   8.225  64.306  1.00  0.00    -0.066 C  
ENDROOT
BRANCH   2   4
HETATM    4  N   UNL     1      -7.447   8.187  66.487  1.00  0.00    -0.087 NA 
HETATM    5  H   UNL     1      -8.251   8.534  67.011  1.00  0.00     0.000 HD 
BRANCH   4   6
HETATM    6  C   UNL     1      -7.480   6.724  66.395  1.00  0.00    -0.074 C  
BRANCH   6   7
HETATM    7  C   UNL     1      -8.900   6.264  66.030  1.00  0.00    -0.151 C  
HETATM    8  H   UNL     1      -9.909   4.567  66.008  1.00  0.00     0.000 HD 
HETATM    9  O   UNL     1      -9.031   4.852  66.234  1.00  0.00    -0.117 OA 
BRANCH   7  10
HETATM   10  C   UNL     1      -9.950   7.018  66.847  1.00  0.00    -0.217 C  
BRANCH  10  11
HETATM   11  O   UNL     1      -9.616   7.020  68.248  1.00  0.00    -0.134 OA 
BRANCH  11  12
HETATM   12  C   UNL     1     -10.079   8.121  68.930  1.00  0.00    -0.202 A  
HETATM   13  C   UNL     1     -10.067   8.243  70.314  1.00  0.00    -0.195 A  
HETATM   14  C   UNL     1     -10.617   9.355  70.942  1.00  0.00    -0.390 A  
HETATM   15  C   UNL     1     -11.179  10.395  70.200  1.00  0.00    -0.321 A  
HETATM   16  C   UNL     1     -10.606   9.169  68.170  1.00  0.00    -0.235 A  
HETATM   17  C   UNL     1     -11.158  10.299  68.801  1.00  0.00    -0.276 A  
BRANCH  15  18
HETATM   18  N   UNL     1     -11.797  11.504  70.816  1.00  0.00    -0.416 N  
HETATM   19  H   UNL     1     -11.381  12.420  70.652  1.00  0.00     0.000 HD 
HETATM   20  C   UNL     1     -12.922  11.456  71.627  1.00  0.00    -0.418 C  
HETATM   21  O   UNL     1     -13.455  10.454  72.087  1.00  0.00    -0.396 OA 
HETATM   22  C   UNL     1     -13.475  12.814  71.961  1.00  0.00    -0.540 C  
ENDBRANCH  15  18
ENDBRANCH  11  12
ENDBRANCH  10  11
ENDBRANCH   7  10
ENDBRANCH   6   7
ENDBRANCH   4   6
ENDBRANCH   2   4
TORSDOF 7
ENDMDL
MODEL      192
REMARK 921   NORMALIZED FREE ENERGY PREDICTED BY IDOCK:   -3.06 KCAL/MOL
REMARK 922        TOTAL FREE ENERGY PREDICTED BY IDOCK:   -5.16 KCAL/MOL
REMARK 923 INTER-LIGAND FREE ENERGY PREDICTED BY IDOCK:   -4.65 KCAL/MOL
REMARK 924 INTRA-LIGAND FREE ENERGY PREDICTED BY IDOCK:   -0.51 KCAL/MOL
REMARK 927      BINDING AFFINITY PREDICTED BY RF-SCORE:    0.00 PKD
ROOT
HETATM    1  C   UNL     1     -10.395   3.869  64.179  1.00  0.00    -0.238 C  
HETATM    2  C   UNL     1      -9.539   4.270  65.381  1.00  0.00    -0.187 C  
HETATM    3  C   UNL     1      -8.076   4.400  64.952  1.00  0.00    -0.099 C  
ENDROOT
BRANCH   2   4
HETATM    4  N   UNL     1     -10.063   5.531  65.910  1.00  0.00    -0.397 NA 
HETATM    5  H   UNL     1     -11.044   5.431  66.171  1.00  0.00     0.000 HD 
BRANCH   4   6
HETATM    6  C   UNL     1      -9.280   6.069  67.027  1.00  0.00    -0.121 C  
BRANCH   6   7
HETATM    7  C   UNL     1      -9.138   7.591  66.869  1.00  0.00    -0.141 C  
HETATM    8  H   UNL     1      -8.345   8.840  65.563  1.00  0.00     0.000 HD 
HETATM    9  O   UNL     1      -8.433   7.900  65.661  1.00  0.00    -0.138 OA 
BRANCH   7  10
HETATM   10  C   UNL     1     -10.506   8.275  66.875  1.00  0.00    -0.295 C  
BRANCH  10  11
HETATM   11  O   UNL     1     -10.649   9.139  68.018  1.00  0.00    -0.229 OA 
BRANCH  11  12
HETATM   12  C   UNL     1     -10.487  10.475  67.731  1.00  0.00    -0.224 A  
HETATM   13  C   UNL     1      -9.262  11.071  67.455  1.00  0.00    -0.149 A  
HETATM   14  C   UNL     1      -9.162  12.441  67.243  1.00  0.00    -0.187 A  
HETATM   15  C   UNL     1     -10.292  13.258  67.277  1.00  0.00    -0.247 A  
HETATM   16  C   UNL     1     -11.635  11.273  67.735  1.00  0.00    -0.307 A  
HETATM   17  C   UNL     1     -11.538  12.660  67.514  1.00  0.00    -0.418 A  
BRANCH  15  18
HETATM   18  N   UNL     1     -10.207  14.659  67.125  1.00  0.00    -0.254 N  
HETATM   19  H   UNL     1     -10.189  15.220  67.975  1.00  0.00     0.000 HD 
HETATM   20  C   UNL     1     -10.144  15.339  65.916  1.00  0.00    -0.334 C  
HETATM   21  O   UNL     1     -10.331  14.872  64.799  1.00  0.00    -0.368 OA 
HETATM   22  C   UNL     1      -9.841  16.804  66.071  1.00  0.00    -0.311 C  
ENDBRANCH  15  18
ENDBRANCH  11  12
ENDBRANCH  10  11
ENDBRANCH   7  10
ENDBRANCH   6   7
ENDBRANCH   4   6
ENDBRANCH   2   4
TORSDOF 7
ENDMDL
MODEL      193
REMARK 921   NORMALIZED FREE ENERGY PREDICTED BY IDOCK:   -3.03 KCAL/MOL
REMARK 922        TOTAL FREE ENERGY PREDICTED BY IDOCK:   -5.12 KCAL/MOL
REMARK 923 INTER-LIGAND FREE ENERGY PREDICTED BY IDOCK:   -4.62 KCAL/MOL
REMARK 924 INTRA-LIGAND FREE ENERGY PREDICTED BY IDOCK:   -0.50 KCAL/MOL
REMARK 927      BINDING AFFINITY PREDICTED BY RF-SCORE:    0.00 PKD
ROOT
HETATM    1  C   UNL     1      -9.016   4.107  71.562  1.00  0.00    -0.163 C  
HETATM    2  C   UNL     1      -8.929   3.307  70.261  1.00  0.00    -0.102 C  
HETATM    3  C   UNL     1      -9.551   1.923  70.465  1.00  0.00    -0.129 C  
ENDROOT
BRANCH   2   4
HETATM    4  N   UNL     1      -9.622   4.064  69.217  1.00  0.00    -0.189 NA 
HETATM    5  H   UNL     1     -10.447   3.560  68.895  1.00  0.00     0.000 HD 
BRANCH   4   6
HETATM    6  C   UNL     1      -9.972   5.430  69.618  1.00  0.00    -0.227 C  
BRANCH   6   7
HETATM    7  C   UNL     1     -10.110   6.313  68.368  1.00  0.00    -0.157 C  
HETATM    8  H   UNL     1     -11.577   7.110  67.316  1.00  0.00     0.000 HD 
HETATM    9  O   UNL     1     -11.492   6.564  68.088  1.00  0.00    -0.146 OA 
BRANCH   7  10
HETATM   10  C   UNL     1      -9.354   7.632  68.540  1.00  0.00    -0.147 C  
BRANCH  10  11
HETATM   11  O   UNL     1      -8.822   8.093  67.283  1.00  0.00    -0.128 OA 
BRANCH  11  12
HETATM   12  C   UNL     1      -9.467   9.198  66.777  1.00  0.00    -0.175 A  
HETATM   13  C   UNL     1     -10.271  10.045  67.530  1.00  0.00    -0.260 A  
HETATM   14  C   UNL     1     -10.951  11.104  66.939  1.00  0.00    -0.333 A  
HETATM   15  C   UNL     1     -10.827  11.364  65.573  1.00  0.00    -0.220 A  
HETATM   16  C   UNL     1      -9.305   9.465  65.415  1.00  0.00    -0.311 A  
HETATM   17  C   UNL     1      -9.985  10.539  64.813  1.00  0.00    -0.412 A  
BRANCH  15  18
HETATM   18  N   UNL     1     -11.554  12.395  64.940  1.00  0.00    -0.331 N  
HETATM   19  H   UNL     1     -12.430  12.138  64.487  1.00  0.00     0.000 HD 
HETATM   20  C   UNL     1     -11.179  13.730  64.881  1.00  0.00    -0.349 C  
HETATM   21  O   UNL     1     -10.095  14.205  65.199  1.00  0.00    -0.364 OA 
HETATM   22  C   UNL     1     -12.253  14.628  64.332  1.00  0.00    -0.473 C  
ENDBRANCH  15  18
ENDBRANCH  11  12
ENDBRANCH  10  11
ENDBRANCH   7  10
ENDBRANCH   6   7
ENDBRANCH   4   6
ENDBRANCH   2   4
TORSDOF 7
ENDMDL
MODEL      194
REMARK 921   NORMALIZED FREE ENERGY PREDICTED BY IDOCK:   -2.99 KCAL/MOL
REMARK 922        TOTAL FREE ENERGY PREDICTED BY IDOCK:   -5.06 KCAL/MOL
REMARK 923 INTER-LIGAND FREE ENERGY PREDICTED BY IDOCK:   -4.55 KCAL/MOL
REMARK 924 INTRA-LIGAND FREE ENERGY PREDICTED BY IDOCK:   -0.51 KCAL/MOL
REMARK 927      BINDING AFFINITY PREDICTED BY RF-SCORE:    0.00 PKD
ROOT
HETATM    1  C   UNL     1     -12.445  10.650  70.965  1.00  0.00    -0.515 C  
HETATM    2  C   UNL     1     -12.779  12.134  70.805  1.00  0.00    -0.132 C  
HETATM    3  C   UNL     1     -12.923  12.782  72.184  1.00  0.00    -0.344 C  
ENDROOT
BRANCH   2   4
HETATM    4  N   UNL     1     -11.711  12.756  70.022  1.00  0.00    -0.513 NA 
HETATM    5  H   UNL     1     -10.914  12.126  69.935  1.00  0.00     0.000 HD 
BRANCH   4   6
HETATM    6  C   UNL     1     -12.148  13.224  68.703  1.00  0.00    -0.222 C  
BRANCH   6   7
HETATM    7  C   UNL     1     -11.968  12.098  67.672  1.00  0.00    -0.120 C  
HETATM    8  H   UNL     1     -12.030  11.913  65.709  1.00  0.00     0.000 HD 
HETATM    9  O   UNL     1     -12.141  12.609  66.345  1.00  0.00    -0.530 OA 
BRANCH   7  10
HETATM   10  C   UNL     1     -10.596  11.438  67.813  1.00  0.00    -0.195 C  
BRANCH  10  11
HETATM   11  O   UNL     1     -10.233  10.734  66.610  1.00  0.00    -0.217 OA 
BRANCH  11  12
HETATM   12  C   UNL     1     -10.033   9.385  66.792  1.00  0.00    -0.239 A  
HETATM   13  C   UNL     1      -9.318   8.577  65.916  1.00  0.00    -0.231 A  
HETATM   14  C   UNL     1      -9.215   7.206  66.125  1.00  0.00    -0.126 A  
HETATM   15  C   UNL     1      -9.809   6.602  67.234  1.00  0.00    -0.146 A  
HETATM   16  C   UNL     1     -10.604   8.802  67.926  1.00  0.00    -0.236 A  
HETATM   17  C   UNL     1     -10.498   7.416  68.145  1.00  0.00    -0.241 A  
BRANCH  15  18
HETATM   18  N   UNL     1      -9.769   5.205  67.435  1.00  0.00    -0.143 N  
HETATM   19  H   UNL     1     -10.306   4.626  66.790  1.00  0.00     0.000 HD 
HETATM   20  C   UNL     1      -9.062   4.551  68.434  1.00  0.00    -0.124 C  
HETATM   21  O   UNL     1      -8.511   5.063  69.402  1.00  0.00    -0.084 OA 
HETATM   22  C   UNL     1      -9.035   3.057  68.265  1.00  0.00    -0.190 C  
ENDBRANCH  15  18
ENDBRANCH  11  12
ENDBRANCH  10  11
ENDBRANCH   7  10
ENDBRANCH   6   7
ENDBRANCH   4   6
ENDBRANCH   2   4
TORSDOF 7
ENDMDL
MODEL      195
REMARK 921   NORMALIZED FREE ENERGY PREDICTED BY IDOCK:   -2.98 KCAL/MOL
REMARK 922        TOTAL FREE ENERGY PREDICTED BY IDOCK:   -5.04 KCAL/MOL
REMARK 923 INTER-LIGAND FREE ENERGY PREDICTED BY IDOCK:   -4.53 KCAL/MOL
REMARK 924 INTRA-LIGAND FREE ENERGY PREDICTED BY IDOCK:   -0.52 KCAL/MOL
REMARK 927      BINDING AFFINITY PREDICTED BY RF-SCORE:    0.00 PKD
ROOT
HETATM    1  C   UNL     1     -11.135   7.071  69.565  1.00  0.00    -0.221 C  
HETATM    2  C   UNL     1      -9.808   7.515  70.184  1.00  0.00    -0.180 C  
HETATM    3  C   UNL     1      -9.657   6.898  71.576  1.00  0.00    -0.162 C  
ENDROOT
BRANCH   2   4
HETATM    4  N   UNL     1      -8.729   7.100  69.286  1.00  0.00    -0.136 NA 
HETATM    5  H   UNL     1      -9.089   6.502  68.542  1.00  0.00     0.000 HD 
BRANCH   4   6
HETATM    6  C   UNL     1      -7.967   8.221  68.728  1.00  0.00    -0.114 C  
BRANCH   6   7
HETATM    7  C   UNL     1      -8.280   8.359  67.229  1.00  0.00    -0.112 C  
HETATM    8  H   UNL     1      -8.874   7.180  65.762  1.00  0.00     0.000 HD 
HETATM    9  O   UNL     1      -8.681   7.094  66.688  1.00  0.00    -0.118 OA 
BRANCH   7  10
HETATM   10  C   UNL     1      -9.366   9.409  66.988  1.00  0.00    -0.148 C  
BRANCH  10  11
HETATM   11  O   UNL     1      -8.885  10.732  67.290  1.00  0.00    -0.133 OA 
BRANCH  11  12
HETATM   12  C   UNL     1      -9.833  11.553  67.858  1.00  0.00    -0.185 A  
HETATM   13  C   UNL     1      -9.755  12.940  67.873  1.00  0.00    -0.218 A  
HETATM   14  C   UNL     1     -10.713  13.706  68.528  1.00  0.00    -0.269 A  
HETATM   15  C   UNL     1     -11.795  13.105  69.172  1.00  0.00    -0.314 A  
HETATM   16  C   UNL     1     -10.928  10.937  68.469  1.00  0.00    -0.278 A  
HETATM   17  C   UNL     1     -11.903  11.708  69.128  1.00  0.00    -0.390 A  
BRANCH  15  18
HETATM   18  N   UNL     1     -12.746  13.859  69.895  1.00  0.00    -0.291 N  
HETATM   19  H   UNL     1     -13.729  13.634  69.746  1.00  0.00     0.000 HD 
HETATM   20  C   UNL     1     -12.458  14.879  70.790  1.00  0.00    -0.339 C  
HETATM   21  O   UNL     1     -11.371  15.416  70.971  1.00  0.00    -0.315 OA 
HETATM   22  C   UNL     1     -13.658  15.348  71.566  1.00  0.00    -0.604 C  
ENDBRANCH  15  18
ENDBRANCH  11  12
ENDBRANCH  10  11
ENDBRANCH   7  10
ENDBRANCH   6   7
ENDBRANCH   4   6
ENDBRANCH   2   4
TORSDOF 7
ENDMDL
MODEL      196
REMARK 921   NORMALIZED FREE ENERGY PREDICTED BY IDOCK:   -2.96 KCAL/MOL
REMARK 922        TOTAL FREE ENERGY PREDICTED BY IDOCK:   -5.01 KCAL/MOL
REMARK 923 INTER-LIGAND FREE ENERGY PREDICTED BY IDOCK:   -4.70 KCAL/MOL
REMARK 924 INTRA-LIGAND FREE ENERGY PREDICTED BY IDOCK:   -0.32 KCAL/MOL
REMARK 927      BINDING AFFINITY PREDICTED BY RF-SCORE:    0.00 PKD
ROOT
HETATM    1  C   UNL     1     -13.965   7.427  71.217  1.00  0.00    -0.374 C  
HETATM    2  C   UNL     1     -12.717   8.130  71.753  1.00  0.00    -0.330 C  
HETATM    3  C   UNL     1     -13.128   9.357  72.570  1.00  0.00    -0.374 C  
ENDROOT
BRANCH   2   4
HETATM    4  N   UNL     1     -11.966   7.167  72.560  1.00  0.00    -0.500 NA 
HETATM    5  H   UNL     1     -12.047   6.229  72.169  1.00  0.00     0.000 HD 
BRANCH   4   6
HETATM    6  C   UNL     1     -10.559   7.532  72.749  1.00  0.00    -0.313 C  
BRANCH   6   7
HETATM    7  C   UNL     1     -10.098   8.424  71.586  1.00  0.00    -0.239 C  
HETATM    8  H   UNL     1      -8.689   9.769  71.265  1.00  0.00     0.000 HD 
HETATM    9  O   UNL     1      -8.974   9.217  71.984  1.00  0.00    -0.337 OA 
BRANCH   7  10
HETATM   10  C   UNL     1      -9.749   7.587  70.354  1.00  0.00    -0.179 C  
BRANCH  10  11
HETATM   11  O   UNL     1     -10.777   7.685  69.351  1.00  0.00    -0.230 OA 
BRANCH  11  12
HETATM   12  C   UNL     1     -10.627   8.758  68.502  1.00  0.00    -0.129 A  
HETATM   13  C   UNL     1      -9.544   8.933  67.650  1.00  0.00    -0.181 A  
HETATM   14  C   UNL     1      -9.421  10.077  66.869  1.00  0.00    -0.203 A  
HETATM   15  C   UNL     1     -10.394  11.076  66.902  1.00  0.00    -0.235 A  
HETATM   16  C   UNL     1     -11.629   9.732  68.521  1.00  0.00     0.322 A  
HETATM   17  C   UNL     1     -11.512  10.889  67.728  1.00  0.00    -0.323 A  
BRANCH  15  18
HETATM   18  N   UNL     1     -10.261  12.273  66.165  1.00  0.00    -0.234 N  
HETATM   19  H   UNL     1     -10.572  12.260  65.194  1.00  0.00     0.000 HD 
HETATM   20  C   UNL     1      -9.743  13.466  66.647  1.00  0.00    -0.275 C  
HETATM   21  O   UNL     1      -9.157  13.639  67.710  1.00  0.00    -0.181 OA 
HETATM   22  C   UNL     1      -9.927  14.622  65.703  1.00  0.00    -0.381 C  
ENDBRANCH  15  18
ENDBRANCH  11  12
ENDBRANCH  10  11
ENDBRANCH   7  10
ENDBRANCH   6   7
ENDBRANCH   4   6
ENDBRANCH   2   4
TORSDOF 7
ENDMDL
MODEL      197
REMARK 921   NORMALIZED FREE ENERGY PREDICTED BY IDOCK:   -2.95 KCAL/MOL
REMARK 922        TOTAL FREE ENERGY PREDICTED BY IDOCK:   -4.99 KCAL/MOL
REMARK 923 INTER-LIGAND FREE ENERGY PREDICTED BY IDOCK:   -4.79 KCAL/MOL
REMARK 924 INTRA-LIGAND FREE ENERGY PREDICTED BY IDOCK:   -0.21 KCAL/MOL
REMARK 927      BINDING AFFINITY PREDICTED BY RF-SCORE:    0.00 PKD
ROOT
HETATM    1  C   UNL     1     -10.335  19.724  67.309  1.00  0.00    -0.581 C  
HETATM    2  C   UNL     1      -9.506  18.443  67.404  1.00  0.00    -0.273 C  
HETATM    3  C   UNL     1      -8.521  18.552  68.571  1.00  0.00    -0.354 C  
ENDROOT
BRANCH   2   4
HETATM    4  N   UNL     1     -10.427  17.319  67.575  1.00  0.00    -0.356 NA 
HETATM    5  H   UNL     1      -9.947  16.433  67.419  1.00  0.00     0.000 HD 
BRANCH   4   6
HETATM    6  C   UNL     1     -11.114  17.315  68.871  1.00  0.00     0.177 C  
BRANCH   6   7
HETATM    7  C   UNL     1     -10.890  15.964  69.567  1.00  0.00    -0.305 C  
HETATM    8  H   UNL     1     -11.369  15.129  71.291  1.00  0.00     0.000 HD 
HETATM    9  O   UNL     1     -11.508  15.965  70.860  1.00  0.00    -0.352 OA 
BRANCH   7  10
HETATM   10  C   UNL     1     -11.432  14.811  68.721  1.00  0.00    -0.301 C  
BRANCH  10  11
HETATM   11  O   UNL     1     -10.381  13.899  68.352  1.00  0.00    -0.237 OA 
BRANCH  11  12
HETATM   12  C   UNL     1     -10.605  12.600  68.750  1.00  0.00    -0.186 A  
HETATM   13  C   UNL     1     -11.865  12.024  68.856  1.00  0.00    -0.356 A  
HETATM   14  C   UNL     1     -12.023  10.727  69.334  1.00  0.00    -0.353 A  
HETATM   15  C   UNL     1     -10.919   9.957  69.700  1.00  0.00    -0.252 A  
HETATM   16  C   UNL     1      -9.486  11.831  69.081  1.00  0.00     0.314 A  
HETATM   17  C   UNL     1      -9.641  10.517  69.558  1.00  0.00    -0.125 A  
BRANCH  15  18
HETATM   18  N   UNL     1     -11.059   8.662  70.244  1.00  0.00    -0.299 N  
HETATM   19  H   UNL     1     -10.449   7.933  69.875  1.00  0.00     0.000 HD 
HETATM   20  C   UNL     1     -11.955   8.295  71.238  1.00  0.00    -0.287 C  
HETATM   21  O   UNL     1     -12.882   8.965  71.679  1.00  0.00    -0.321 OA 
HETATM   22  C   UNL     1     -11.726   6.904  71.764  1.00  0.00    -0.338 C  
ENDBRANCH  15  18
ENDBRANCH  11  12
ENDBRANCH  10  11
ENDBRANCH   7  10
ENDBRANCH   6   7
ENDBRANCH   4   6
ENDBRANCH   2   4
TORSDOF 7
ENDMDL
MODEL      198
REMARK 921   NORMALIZED FREE ENERGY PREDICTED BY IDOCK:   -2.94 KCAL/MOL
REMARK 922        TOTAL FREE ENERGY PREDICTED BY IDOCK:   -4.99 KCAL/MOL
REMARK 923 INTER-LIGAND FREE ENERGY PREDICTED BY IDOCK:   -4.55 KCAL/MOL
REMARK 924 INTRA-LIGAND FREE ENERGY PREDICTED BY IDOCK:   -0.44 KCAL/MOL
REMARK 927      BINDING AFFINITY PREDICTED BY RF-SCORE:    0.00 PKD
ROOT
HETATM    1  C   UNL     1     -12.231  15.015  71.166  1.00  0.00    -0.381 C  
HETATM    2  C   UNL     1     -11.848  14.306  69.867  1.00  0.00    -0.322 C  
HETATM    3  C   UNL     1     -10.727  15.079  69.168  1.00  0.00    -0.249 C  
ENDROOT
BRANCH   2   4
HETATM    4  N   UNL     1     -11.440  12.941  70.199  1.00  0.00    -0.519 NA 
HETATM    5  H   UNL     1     -11.842  12.652  71.091  1.00  0.00     0.000 HD 
BRANCH   4   6
HETATM    6  C   UNL     1     -11.748  11.964  69.150  1.00  0.00    -0.319 C  
BRANCH   6   7
HETATM    7  C   UNL     1     -11.071  10.624  69.481  1.00  0.00    -0.274 C  
HETATM    8  H   UNL     1     -11.489   9.019  70.550  1.00  0.00     0.000 HD 
HETATM    9  O   UNL     1     -11.907   9.847  70.345  1.00  0.00    -0.267 OA 
BRANCH   7  10
HETATM   10  C   UNL     1     -10.749   9.841  68.207  1.00  0.00    -0.233 C  
BRANCH  10  11
HETATM   11  O   UNL     1      -9.438   9.250  68.278  1.00  0.00    -0.138 OA 
BRANCH  11  12
HETATM   12  C   UNL     1      -9.387   7.950  67.830  1.00  0.00    -0.140 A  
HETATM   13  C   UNL     1      -8.230   7.182  67.794  1.00  0.00    -0.115 A  
HETATM   14  C   UNL     1      -8.237   5.897  67.262  1.00  0.00    -0.105 A  
HETATM   15  C   UNL     1      -9.413   5.330  66.768  1.00  0.00    -0.140 A  
HETATM   16  C   UNL     1     -10.581   7.385  67.371  1.00  0.00    -0.371 A  
HETATM   17  C   UNL     1     -10.594   6.083  66.838  1.00  0.00    -0.384 A  
BRANCH  15  18
HETATM   18  N   UNL     1      -9.432   4.052  66.169  1.00  0.00    -0.174 N  
HETATM   19  H   UNL     1      -9.603   3.254  66.779  1.00  0.00     0.000 HD 
HETATM   20  C   UNL     1      -9.237   3.788  64.821  1.00  0.00    -0.146 C  
HETATM   21  O   UNL     1      -8.844   4.573  63.966  1.00  0.00    -0.138 OA 
HETATM   22  C   UNL     1      -9.529   2.362  64.444  1.00  0.00    -0.139 C  
ENDBRANCH  15  18
ENDBRANCH  11  12
ENDBRANCH  10  11
ENDBRANCH   7  10
ENDBRANCH   6   7
ENDBRANCH   4   6
ENDBRANCH   2   4
TORSDOF 7
ENDMDL
MODEL      199
REMARK 921   NORMALIZED FREE ENERGY PREDICTED BY IDOCK:   -2.91 KCAL/MOL
REMARK 922        TOTAL FREE ENERGY PREDICTED BY IDOCK:   -4.95 KCAL/MOL
REMARK 923 INTER-LIGAND FREE ENERGY PREDICTED BY IDOCK:   -4.41 KCAL/MOL
REMARK 924 INTRA-LIGAND FREE ENERGY PREDICTED BY IDOCK:   -0.54 KCAL/MOL
REMARK 927      BINDING AFFINITY PREDICTED BY RF-SCORE:    0.00 PKD
ROOT
HETATM    1  C   UNL     1     -12.110  14.317  70.998  1.00  0.00    -0.416 C  
HETATM    2  C   UNL     1     -12.215  13.641  69.630  1.00  0.00    -0.270 C  
HETATM    3  C   UNL     1     -11.573  14.532  68.564  1.00  0.00    -0.344 C  
ENDROOT
BRANCH   2   4
HETATM    4  N   UNL     1     -11.555  12.338  69.717  1.00  0.00    -0.462 NA 
HETATM    5  H   UNL     1     -12.244  11.585  69.727  1.00  0.00     0.000 HD 
BRANCH   4   6
HETATM    6  C   UNL     1     -10.559  12.114  68.665  1.00  0.00    -0.223 C  
BRANCH   6   7
HETATM    7  C   UNL     1     -10.107  10.645  68.689  1.00  0.00    -0.183 C  
HETATM    8  H   UNL     1     -10.157   9.139  69.964  1.00  0.00     0.000 HD 
HETATM    9  O   UNL     1     -10.437  10.046  69.949  1.00  0.00    -0.240 OA 
BRANCH   7  10
HETATM   10  C   UNL     1     -10.740   9.854  67.544  1.00  0.00    -0.272 C  
BRANCH  10  11
HETATM   11  O   UNL     1      -9.762   9.035  66.875  1.00  0.00    -0.168 OA 
BRANCH  11  12
HETATM   12  C   UNL     1      -9.701   7.743  67.347  1.00  0.00    -0.163 A  
HETATM   13  C   UNL     1     -10.791   6.884  67.411  1.00  0.00    -0.396 A  
HETATM   14  C   UNL     1     -10.674   5.614  67.966  1.00  0.00    -0.235 A  
HETATM   15  C   UNL     1      -9.450   5.155  68.454  1.00  0.00    -0.129 A  
HETATM   16  C   UNL     1      -8.461   7.287  67.800  1.00  0.00    -0.121 A  
HETATM   17  C   UNL     1      -8.335   6.000  68.357  1.00  0.00    -0.113 A  
BRANCH  15  18
HETATM   18  N   UNL     1      -9.320   3.894  69.076  1.00  0.00    -0.157 N  
HETATM   19  H   UNL     1      -8.968   3.127  68.505  1.00  0.00     0.000 HD 
HETATM   20  C   UNL     1      -9.630   3.608  70.398  1.00  0.00    -0.184 C  
HETATM   21  O   UNL     1     -10.227   4.332  71.188  1.00  0.00    -0.140 OA 
HETATM   22  C   UNL     1      -9.186   2.239  70.833  1.00  0.00    -0.192 C  
ENDBRANCH  15  18
ENDBRANCH  11  12
ENDBRANCH  10  11
ENDBRANCH   7  10
ENDBRANCH   6   7
ENDBRANCH   4   6
ENDBRANCH   2   4
TORSDOF 7
ENDMDL
MODEL      200
REMARK 921   NORMALIZED FREE ENERGY PREDICTED BY IDOCK:   -2.84 KCAL/MOL
REMARK 922        TOTAL FREE ENERGY PREDICTED BY IDOCK:   -4.85 KCAL/MOL
REMARK 923 INTER-LIGAND FREE ENERGY PREDICTED BY IDOCK:   -4.11 KCAL/MOL
REMARK 924 INTRA-LIGAND FREE ENERGY PREDICTED BY IDOCK:   -0.74 KCAL/MOL
REMARK 927      BINDING AFFINITY PREDICTED BY RF-SCORE:    0.00 PKD
ROOT
HETATM    1  C   UNL     1      -9.894   3.544  65.019  1.00  0.00    -0.111 C  
HETATM    2  C   UNL     1      -8.998   4.462  65.852  1.00  0.00    -0.124 C  
HETATM    3  C   UNL     1      -7.559   4.385  65.335  1.00  0.00    -0.085 C  
ENDROOT
BRANCH   2   4
HETATM    4  N   UNL     1      -9.534   5.821  65.762  1.00  0.00    -0.352 NA 
HETATM    5  H   UNL     1      -9.516   6.152  64.798  1.00  0.00     0.000 HD 
BRANCH   4   6
HETATM    6  C   UNL     1     -10.877   5.960  66.334  1.00  0.00    -0.037 C  
BRANCH   6   7
HETATM    7  C   UNL     1     -10.795   6.735  67.658  1.00  0.00    -0.289 C  
HETATM    8  H   UNL     1     -10.905   6.320  69.584  1.00  0.00     0.000 HD 
HETATM    9  O   UNL     1     -10.956   5.841  68.766  1.00  0.00    -0.271 OA 
BRANCH   7  10
HETATM   10  C   UNL     1      -9.469   7.489  67.773  1.00  0.00    -0.141 C  
BRANCH  10  11
HETATM   11  O   UNL     1      -9.377   8.531  66.783  1.00  0.00    -0.158 OA 
BRANCH  11  12
HETATM   12  C   UNL     1      -9.851   9.750  67.210  1.00  0.00    -0.181 A  
HETATM   13  C   UNL     1      -9.766  10.205  68.520  1.00  0.00    -0.161 A  
HETATM   14  C   UNL     1     -10.330  11.418  68.898  1.00  0.00    -0.203 A  
HETATM   15  C   UNL     1     -10.981  12.228  67.966  1.00  0.00    -0.225 A  
HETATM   16  C   UNL     1     -10.469  10.564  66.257  1.00  0.00    -0.250 A  
HETATM   17  C   UNL     1     -11.036  11.796  66.633  1.00  0.00    -0.364 A  
BRANCH  15  18
HETATM   18  N   UNL     1     -11.613  13.434  68.338  1.00  0.00    -0.310 N  
HETATM   19  H   UNL     1     -12.633  13.445  68.339  1.00  0.00     0.000 HD 
HETATM   20  C   UNL     1     -10.968  14.607  68.703  1.00  0.00    -0.256 C  
HETATM   21  O   UNL     1      -9.772  14.854  68.594  1.00  0.00    -0.212 OA 
HETATM   22  C   UNL     1     -11.897  15.653  69.253  1.00  0.00    -0.378 C  
ENDBRANCH  15  18
ENDBRANCH  11  12
ENDBRANCH  10  11
ENDBRANCH   7  10
ENDBRANCH   6   7
ENDBRANCH   4   6
ENDBRANCH   2   4
TORSDOF 7
ENDMDL
MODEL      201
REMARK 921   NORMALIZED FREE ENERGY PREDICTED BY IDOCK:   -2.83 KCAL/MOL
REMARK 922        TOTAL FREE ENERGY PREDICTED BY IDOCK:   -4.83 KCAL/MOL
REMARK 923 INTER-LIGAND FREE ENERGY PREDICTED BY IDOCK:   -4.40 KCAL/MOL
REMARK 924 INTRA-LIGAND FREE ENERGY PREDICTED BY IDOCK:   -0.43 KCAL/MOL
REMARK 927      BINDING AFFINITY PREDICTED BY RF-SCORE:    0.00 PKD
ROOT
HETATM    1  C   UNL     1     -10.809   5.438  66.401  1.00  0.00    -0.202 C  
HETATM    2  C   UNL     1      -9.897   6.269  67.305  1.00  0.00    -0.137 C  
HETATM    3  C   UNL     1      -8.521   5.605  67.398  1.00  0.00    -0.106 C  
ENDROOT
BRANCH   2   4
HETATM    4  N   UNL     1      -9.811   7.618  66.744  1.00  0.00    -0.225 NA 
HETATM    5  H   UNL     1     -10.106   7.621  65.768  1.00  0.00     0.000 HD 
BRANCH   4   6
HETATM    6  C   UNL     1     -10.552   8.621  67.514  1.00  0.00    -0.222 C  
BRANCH   6   7
HETATM    7  C   UNL     1      -9.851   8.857  68.861  1.00  0.00    -0.177 C  
HETATM    8  H   UNL     1      -8.000   9.096  69.504  1.00  0.00     0.000 HD 
HETATM    9  O   UNL     1      -8.434   8.951  68.672  1.00  0.00    -0.126 OA 
BRANCH   7  10
HETATM   10  C   UNL     1     -10.380  10.118  69.544  1.00  0.00    -0.240 C  
BRANCH  10  11
HETATM   11  O   UNL     1     -11.619   9.856  70.230  1.00  0.00    -0.254 OA 
BRANCH  11  12
HETATM   12  C   UNL     1     -11.579   8.751  71.050  1.00  0.00    -0.288 A  
HETATM   13  C   UNL     1     -10.699   8.602  72.115  1.00  0.00    -0.417 A  
HETATM   14  C   UNL     1     -10.665   7.428  72.859  1.00  0.00    -0.387 A  
HETATM   15  C   UNL     1     -11.530   6.372  72.574  1.00  0.00    -0.247 A  
HETATM   16  C   UNL     1     -12.477   7.717  70.773  1.00  0.00    -0.020 A  
HETATM   17  C   UNL     1     -12.450   6.529  71.527  1.00  0.00    -0.228 A  
BRANCH  15  18
HETATM   18  N   UNL     1     -11.473   5.148  73.276  1.00  0.00    -0.494 N  
HETATM   19  H   UNL     1     -12.114   5.030  74.060  1.00  0.00     0.000 HD 
HETATM   20  C   UNL     1     -10.619   4.092  72.992  1.00  0.00    -0.174 C  
HETATM   21  O   UNL     1      -9.666   4.102  72.222  1.00  0.00    -0.140 OA 
HETATM   22  C   UNL     1     -10.935   2.844  73.770  1.00  0.00    -0.313 C  
ENDBRANCH  15  18
ENDBRANCH  11  12
ENDBRANCH  10  11
ENDBRANCH   7  10
ENDBRANCH   6   7
ENDBRANCH   4   6
ENDBRANCH   2   4
TORSDOF 7
ENDMDL
MODEL      202
REMARK 921   NORMALIZED FREE ENERGY PREDICTED BY IDOCK:   -2.81 KCAL/MOL
REMARK 922        TOTAL FREE ENERGY PREDICTED BY IDOCK:   -4.80 KCAL/MOL
REMARK 923 INTER-LIGAND FREE ENERGY PREDICTED BY IDOCK:   -4.04 KCAL/MOL
REMARK 924 INTRA-LIGAND FREE ENERGY PREDICTED BY IDOCK:   -0.75 KCAL/MOL
REMARK 927      BINDING AFFINITY PREDICTED BY RF-SCORE:    0.00 PKD
ROOT
HETATM    1  C   UNL     1     -10.856   7.358  69.489  1.00  0.00    -0.201 C  
HETATM    2  C   UNL     1     -10.074   8.520  70.102  1.00  0.00    -0.190 C  
HETATM    3  C   UNL     1     -10.941   9.233  71.143  1.00  0.00    -0.409 C  
ENDROOT
BRANCH   2   4
HETATM    4  N   UNL     1      -8.850   7.980  70.695  1.00  0.00    -0.141 NA 
HETATM    5  H   UNL     1      -8.435   7.276  70.085  1.00  0.00     0.000 HD 
BRANCH   4   6
HETATM    6  C   UNL     1      -7.864   9.008  71.045  1.00  0.00    -0.142 C  
BRANCH   6   7
HETATM    7  C   UNL     1      -6.540   8.718  70.322  1.00  0.00    -0.040 C  
HETATM    8  H   UNL     1      -5.211   7.260  70.269  1.00  0.00     0.000 HD 
HETATM    9  O   UNL     1      -6.030   7.439  70.716  1.00  0.00    -0.034 OA 
BRANCH   7  10
HETATM   10  C   UNL     1      -6.718   8.774  68.804  1.00  0.00    -0.054 C  
BRANCH  10  11
HETATM   11  O   UNL     1      -6.686  10.132  68.327  1.00  0.00    -0.054 OA 
BRANCH  11  12
HETATM   12  C   UNL     1      -7.812  10.504  67.628  1.00  0.00    -0.105 A  
HETATM   13  C   UNL     1      -8.652   9.613  66.971  1.00  0.00    -0.131 A  
HETATM   14  C   UNL     1      -9.735  10.065  66.224  1.00  0.00    -0.272 A  
HETATM   15  C   UNL     1     -10.024  11.426  66.130  1.00  0.00    -0.227 A  
HETATM   16  C   UNL     1      -8.108  11.869  67.573  1.00  0.00    -0.156 A  
HETATM   17  C   UNL     1      -9.207  12.330  66.824  1.00  0.00    -0.210 A  
BRANCH  15  18
HETATM   18  N   UNL     1     -11.081  11.912  65.329  1.00  0.00    -0.306 N  
HETATM   19  H   UNL     1     -11.968  12.102  65.793  1.00  0.00     0.000 HD 
HETATM   20  C   UNL     1     -11.016  12.152  63.964  1.00  0.00    -0.380 C  
HETATM   21  O   UNL     1     -10.116  11.823  63.200  1.00  0.00    -0.418 OA 
HETATM   22  C   UNL     1     -12.224  12.868  63.426  1.00  0.00    -0.574 C  
ENDBRANCH  15  18
ENDBRANCH  11  12
ENDBRANCH  10  11
ENDBRANCH   7  10
ENDBRANCH   6   7
ENDBRANCH   4   6
ENDBRANCH   2   4
TORSDOF 7
ENDMDL
MODEL      203
REMARK 921   NORMALIZED FREE ENERGY PREDICTED BY IDOCK:   -2.80 KCAL/MOL
REMARK 922        TOTAL FREE ENERGY PREDICTED BY IDOCK:   -4.79 KCAL/MOL
REMARK 923 INTER-LIGAND FREE ENERGY PREDICTED BY IDOCK:   -4.57 KCAL/MOL
REMARK 924 INTRA-LIGAND FREE ENERGY PREDICTED BY IDOCK:   -0.22 KCAL/MOL
REMARK 927      BINDING AFFINITY PREDICTED BY RF-SCORE:    0.00 PKD
ROOT
HETATM    1  C   UNL     1     -10.419  10.740  64.497  1.00  0.00    -0.351 C  
HETATM    2  C   UNL     1     -10.823  11.838  63.512  1.00  0.00    -0.426 C  
HETATM    3  C   UNL     1     -12.342  12.029  63.549  1.00  0.00    -0.661 C  
ENDROOT
BRANCH   2   4
HETATM    4  N   UNL     1     -10.114  13.063  63.884  1.00  0.00    -0.757 NA 
HETATM    5  H   UNL     1      -9.869  13.603  63.054  1.00  0.00     0.000 HD 
BRANCH   4   6
HETATM    6  C   UNL     1     -10.843  13.895  64.846  1.00  0.00    -0.405 C  
BRANCH   6   7
HETATM    7  C   UNL     1      -9.862  14.455  65.888  1.00  0.00    -0.310 C  
HETATM    8  H   UNL     1      -9.799  15.978  67.142  1.00  0.00     0.000 HD 
HETATM    9  O   UNL     1     -10.406  15.631  66.499  1.00  0.00    -0.275 OA 
BRANCH   7  10
HETATM   10  C   UNL     1      -9.532  13.408  66.953  1.00  0.00    -0.253 C  
BRANCH  10  11
HETATM   11  O   UNL     1      -8.108  13.245  67.097  1.00  0.00    -0.164 OA 
BRANCH  11  12
HETATM   12  C   UNL     1      -7.707  11.934  67.217  1.00  0.00    -0.164 A  
HETATM   13  C   UNL     1      -8.015  10.937  66.299  1.00  0.00    -0.161 A  
HETATM   14  C   UNL     1      -7.636   9.617  66.518  1.00  0.00    -0.098 A  
HETATM   15  C   UNL     1      -6.916   9.257  67.657  1.00  0.00    -0.078 A  
HETATM   16  C   UNL     1      -6.955  11.596  68.345  1.00  0.00    -0.079 A  
HETATM   17  C   UNL     1      -6.565  10.263  68.568  1.00  0.00    -0.052 A  
BRANCH  15  18
HETATM   18  N   UNL     1      -6.573   7.914  67.930  1.00  0.00    -0.055 N  
HETATM   19  H   UNL     1      -5.600   7.645  67.796  1.00  0.00     0.000 HD 
HETATM   20  C   UNL     1      -7.448   6.929  68.367  1.00  0.00    -0.098 C  
HETATM   21  O   UNL     1      -8.671   6.999  68.415  1.00  0.00    -0.125 OA 
HETATM   22  C   UNL     1      -6.758   5.659  68.780  1.00  0.00    -0.053 C  
ENDBRANCH  15  18
ENDBRANCH  11  12
ENDBRANCH  10  11
ENDBRANCH   7  10
ENDBRANCH   6   7
ENDBRANCH   4   6
ENDBRANCH   2   4
TORSDOF 7
ENDMDL
MODEL      204
REMARK 921   NORMALIZED FREE ENERGY PREDICTED BY IDOCK:   -2.78 KCAL/MOL
REMARK 922        TOTAL FREE ENERGY PREDICTED BY IDOCK:   -4.76 KCAL/MOL
REMARK 923 INTER-LIGAND FREE ENERGY PREDICTED BY IDOCK:   -4.73 KCAL/MOL
REMARK 924 INTRA-LIGAND FREE ENERGY PREDICTED BY IDOCK:   -0.03 KCAL/MOL
REMARK 927      BINDING AFFINITY PREDICTED BY RF-SCORE:    0.00 PKD
ROOT
HETATM    1  C   UNL     1      -8.102  11.884  67.100  1.00  0.00    -0.172 C  
HETATM    2  C   UNL     1      -9.139  12.998  67.254  1.00  0.00    -0.209 C  
HETATM    3  C   UNL     1     -10.177  12.893  66.134  1.00  0.00    -0.286 C  
ENDROOT
BRANCH   2   4
HETATM    4  N   UNL     1      -9.752  12.866  68.576  1.00  0.00    -0.370 NA 
HETATM    5  H   UNL     1     -10.569  13.470  68.655  1.00  0.00     0.000 HD 
BRANCH   4   6
HETATM    6  C   UNL     1     -10.093  11.484  68.929  1.00  0.00    -0.127 C  
BRANCH   6   7
HETATM    7  C   UNL     1     -11.578  11.403  69.314  1.00  0.00    -0.317 C  
HETATM    8  H   UNL     1     -13.312  11.328  68.375  1.00  0.00     0.000 HD 
HETATM    9  O   UNL     1     -12.394  11.377  68.136  1.00  0.00    -0.502 OA 
BRANCH   7  10
HETATM   10  C   UNL     1     -11.857  10.174  70.180  1.00  0.00    -0.222 C  
BRANCH  10  11
HETATM   11  O   UNL     1     -10.723   9.856  71.010  1.00  0.00    -0.309 OA 
BRANCH  11  12
HETATM   12  C   UNL     1     -10.613   8.518  71.313  1.00  0.00    -0.234 A  
HETATM   13  C   UNL     1     -10.360   8.026  72.588  1.00  0.00    -0.398 A  
HETATM   14  C   UNL     1     -10.190   6.664  72.812  1.00  0.00    -0.208 A  
HETATM   15  C   UNL     1     -10.291   5.747  71.765  1.00  0.00    -0.221 A  
HETATM   16  C   UNL     1     -10.751   7.610  70.260  1.00  0.00    -0.244 A  
HETATM   17  C   UNL     1     -10.586   6.230  70.483  1.00  0.00    -0.305 A  
BRANCH  15  18
HETATM   18  N   UNL     1     -10.063   4.367  71.957  1.00  0.00    -0.187 N  
HETATM   19  H   UNL     1     -10.097   4.017  72.914  1.00  0.00     0.000 HD 
HETATM   20  C   UNL     1      -9.795   3.444  70.956  1.00  0.00    -0.066 C  
HETATM   21  O   UNL     1      -9.535   3.685  69.783  1.00  0.00    -0.168 OA 
HETATM   22  C   UNL     1      -9.811   2.020  71.437  1.00  0.00    -0.184 C  
ENDBRANCH  15  18
ENDBRANCH  11  12
ENDBRANCH  10  11
ENDBRANCH   7  10
ENDBRANCH   6   7
ENDBRANCH   4   6
ENDBRANCH   2   4
TORSDOF 7
ENDMDL
MODEL      205
REMARK 921   NORMALIZED FREE ENERGY PREDICTED BY IDOCK:   -2.77 KCAL/MOL
REMARK 922        TOTAL FREE ENERGY PREDICTED BY IDOCK:   -4.74 KCAL/MOL
REMARK 923 INTER-LIGAND FREE ENERGY PREDICTED BY IDOCK:   -4.61 KCAL/MOL
REMARK 924 INTRA-LIGAND FREE ENERGY PREDICTED BY IDOCK:   -0.14 KCAL/MOL
REMARK 927      BINDING AFFINITY PREDICTED BY RF-SCORE:    0.00 PKD
ROOT
HETATM    1  C   UNL     1     -12.221  13.737  70.345  1.00  0.00    -0.433 C  
HETATM    2  C   UNL     1     -11.837  13.233  68.953  1.00  0.00    -0.327 C  
HETATM    3  C   UNL     1     -11.739  14.415  67.986  1.00  0.00    -0.374 C  
ENDROOT
BRANCH   2   4
HETATM    4  N   UNL     1     -10.565  12.517  69.065  1.00  0.00    -0.419 NA 
HETATM    5  H   UNL     1     -10.313  12.382  70.044  1.00  0.00     0.000 HD 
BRANCH   4   6
HETATM    6  C   UNL     1     -10.544  11.241  68.344  1.00  0.00    -0.197 C  
BRANCH   6   7
HETATM    7  C   UNL     1     -10.172  10.108  69.314  1.00  0.00    -0.223 C  
HETATM    8  H   UNL     1     -10.529   8.175  69.483  1.00  0.00     0.000 HD 
HETATM    9  O   UNL     1     -10.759   8.874  68.883  1.00  0.00    -0.197 OA 
BRANCH   7  10
HETATM   10  C   UNL     1      -8.655   9.962  69.434  1.00  0.00    -0.174 C  
BRANCH  10  11
HETATM   11  O   UNL     1      -8.254   9.811  70.809  1.00  0.00    -0.251 OA 
BRANCH  11  12
HETATM   12  C   UNL     1      -8.473   8.552  71.319  1.00  0.00    -0.163 A  
HETATM   13  C   UNL     1      -7.807   7.410  70.890  1.00  0.00    -0.096 A  
HETATM   14  C   UNL     1      -8.128   6.157  71.399  1.00  0.00    -0.118 A  
HETATM   15  C   UNL     1      -9.115   6.010  72.375  1.00  0.00    -0.136 A  
HETATM   16  C   UNL     1      -9.440   8.427  72.320  1.00  0.00    -0.367 A  
HETATM   17  C   UNL     1      -9.763   7.162  72.843  1.00  0.00    -0.200 A  
BRANCH  15  18
HETATM   18  N   UNL     1      -9.500   4.742  72.863  1.00  0.00    -0.130 N  
HETATM   19  H   UNL     1      -8.765   4.046  72.982  1.00  0.00     0.000 HD 
HETATM   20  C   UNL     1     -10.792   4.362  73.194  1.00  0.00    -0.240 C  
HETATM   21  O   UNL     1     -11.825   4.978  72.957  1.00  0.00    -0.269 OA 
HETATM   22  C   UNL     1     -10.862   3.030  73.888  1.00  0.00    -0.293 C  
ENDBRANCH  15  18
ENDBRANCH  11  12
ENDBRANCH  10  11
ENDBRANCH   7  10
ENDBRANCH   6   7
ENDBRANCH   4   6
ENDBRANCH   2   4
TORSDOF 7
ENDMDL
MODEL      206
REMARK 921   NORMALIZED FREE ENERGY PREDICTED BY IDOCK:   -2.76 KCAL/MOL
REMARK 922        TOTAL FREE ENERGY PREDICTED BY IDOCK:   -4.73 KCAL/MOL
REMARK 923 INTER-LIGAND FREE ENERGY PREDICTED BY IDOCK:   -4.16 KCAL/MOL
REMARK 924 INTRA-LIGAND FREE ENERGY PREDICTED BY IDOCK:   -0.57 KCAL/MOL
REMARK 927      BINDING AFFINITY PREDICTED BY RF-SCORE:    0.00 PKD
ROOT
HETATM    1  C   UNL     1      -9.902   4.630  69.855  1.00  0.00    -0.296 C  
HETATM    2  C   UNL     1      -9.904   6.068  69.333  1.00  0.00    -0.163 C  
HETATM    3  C   UNL     1     -11.217   6.349  68.599  1.00  0.00    -0.338 C  
ENDROOT
BRANCH   2   4
HETATM    4  N   UNL     1      -9.719   6.964  70.476  1.00  0.00    -0.173 NA 
HETATM    5  H   UNL     1      -8.736   7.215  70.582  1.00  0.00     0.000 HD 
BRANCH   4   6
HETATM    6  C   UNL     1     -10.557   8.166  70.420  1.00  0.00    -0.224 C  
BRANCH   6   7
HETATM    7  C   UNL     1      -9.664   9.410  70.295  1.00  0.00    -0.246 C  
HETATM    8  H   UNL     1      -7.867   9.966  70.893  1.00  0.00     0.000 HD 
HETATM    9  O   UNL     1      -8.419   9.196  70.970  1.00  0.00    -0.194 OA 
BRANCH   7  10
HETATM   10  C   UNL     1      -9.418   9.766  68.828  1.00  0.00    -0.154 C  
BRANCH  10  11
HETATM   11  O   UNL     1     -10.412  10.690  68.344  1.00  0.00    -0.170 OA 
BRANCH  11  12
HETATM   12  C   UNL     1      -9.955  11.981  68.212  1.00  0.00    -0.203 A  
HETATM   13  C   UNL     1     -10.737  13.110  68.424  1.00  0.00    -0.270 A  
HETATM   14  C   UNL     1     -10.230  14.386  68.203  1.00  0.00    -0.232 A  
HETATM   15  C   UNL     1      -8.913  14.573  67.783  1.00  0.00    -0.190 A  
HETATM   16  C   UNL     1      -8.623  12.151  67.824  1.00  0.00    -0.164 A  
HETATM   17  C   UNL     1      -8.105  13.441  67.606  1.00  0.00    -0.175 A  
BRANCH  15  18
HETATM   18  N   UNL     1      -8.396  15.855  67.495  1.00  0.00    -0.158 N  
HETATM   19  H   UNL     1      -7.910  16.342  68.247  1.00  0.00     0.000 HD 
HETATM   20  C   UNL     1      -8.491  16.509  66.275  1.00  0.00    -0.328 C  
HETATM   21  O   UNL     1      -9.178  16.181  65.314  1.00  0.00    -0.179 OA 
HETATM   22  C   UNL     1      -7.661  17.761  66.204  1.00  0.00    -0.302 C  
ENDBRANCH  15  18
ENDBRANCH  11  12
ENDBRANCH  10  11
ENDBRANCH   7  10
ENDBRANCH   6   7
ENDBRANCH   4   6
ENDBRANCH   2   4
TORSDOF 7
ENDMDL
MODEL      207
REMARK 921   NORMALIZED FREE ENERGY PREDICTED BY IDOCK:   -2.75 KCAL/MOL
REMARK 922        TOTAL FREE ENERGY PREDICTED BY IDOCK:   -4.72 KCAL/MOL
REMARK 923 INTER-LIGAND FREE ENERGY PREDICTED BY IDOCK:   -4.01 KCAL/MOL
REMARK 924 INTRA-LIGAND FREE ENERGY PREDICTED BY IDOCK:   -0.71 KCAL/MOL
REMARK 927      BINDING AFFINITY PREDICTED BY RF-SCORE:    0.00 PKD
ROOT
HETATM    1  C   UNL     1      -9.318   3.612  66.909  1.00  0.00    -0.217 C  
HETATM    2  C   UNL     1      -9.757   4.662  67.931  1.00  0.00    -0.143 C  
HETATM    3  C   UNL     1      -9.423   4.178  69.344  1.00  0.00    -0.260 C  
ENDROOT
BRANCH   2   4
HETATM    4  N   UNL     1      -9.075   5.917  67.612  1.00  0.00    -0.107 NA 
HETATM    5  H   UNL     1      -8.728   6.364  68.460  1.00  0.00     0.000 HD 
BRANCH   4   6
HETATM    6  C   UNL     1      -7.998   5.765  66.629  1.00  0.00    -0.102 C  
BRANCH   6   7
HETATM    7  C   UNL     1      -7.659   7.136  66.022  1.00  0.00    -0.089 C  
HETATM    8  H   UNL     1      -8.000   8.092  64.330  1.00  0.00     0.000 HD 
HETATM    9  O   UNL     1      -8.210   7.245  64.704  1.00  0.00    -0.113 OA 
BRANCH   7  10
HETATM   10  C   UNL     1      -8.172   8.272  66.908  1.00  0.00    -0.103 C  
BRANCH  10  11
HETATM   11  O   UNL     1      -9.513   8.650  66.543  1.00  0.00    -0.180 OA 
BRANCH  11  12
HETATM   12  C   UNL     1      -9.911   9.862  67.060  1.00  0.00    -0.200 A  
HETATM   13  C   UNL     1      -9.377  11.086  66.678  1.00  0.00    -0.196 A  
HETATM   14  C   UNL     1      -9.777  12.268  67.294  1.00  0.00    -0.195 A  
HETATM   15  C   UNL     1     -10.743  12.261  68.300  1.00  0.00    -0.221 A  
HETATM   16  C   UNL     1     -10.905   9.841  68.043  1.00  0.00    -0.276 A  
HETATM   17  C   UNL     1     -11.317  11.035  68.664  1.00  0.00    -0.346 A  
BRANCH  15  18
HETATM   18  N   UNL     1     -11.120  13.440  68.981  1.00  0.00    -0.295 N  
HETATM   19  H   UNL     1     -10.849  13.519  69.961  1.00  0.00     0.000 HD 
HETATM   20  C   UNL     1     -11.827  14.500  68.432  1.00  0.00    -0.316 C  
HETATM   21  O   UNL     1     -12.392  14.524  67.345  1.00  0.00    -0.260 OA 
HETATM   22  C   UNL     1     -11.892  15.703  69.332  1.00  0.00    -0.391 C  
ENDBRANCH  15  18
ENDBRANCH  11  12
ENDBRANCH  10  11
ENDBRANCH   7  10
ENDBRANCH   6   7
ENDBRANCH   4   6
ENDBRANCH   2   4
TORSDOF 7
ENDMDL
MODEL      208
REMARK 921   NORMALIZED FREE ENERGY PREDICTED BY IDOCK:   -2.71 KCAL/MOL
REMARK 922        TOTAL FREE ENERGY PREDICTED BY IDOCK:   -4.65 KCAL/MOL
REMARK 923 INTER-LIGAND FREE ENERGY PREDICTED BY IDOCK:   -4.22 KCAL/MOL
REMARK 924 INTRA-LIGAND FREE ENERGY PREDICTED BY IDOCK:   -0.43 KCAL/MOL
REMARK 927      BINDING AFFINITY PREDICTED BY RF-SCORE:    0.00 PKD
ROOT
HETATM    1  C   UNL     1      -7.282   6.371  74.274  1.00  0.00    -0.089 C  
HETATM    2  C   UNL     1      -7.953   7.743  74.192  1.00  0.00    -0.206 C  
HETATM    3  C   UNL     1      -6.941   8.833  74.554  1.00  0.00    -0.117 C  
ENDROOT
BRANCH   2   4
HETATM    4  N   UNL     1      -8.471   7.913  72.834  1.00  0.00    -0.150 NA 
HETATM    5  H   UNL     1      -8.001   7.281  72.187  1.00  0.00     0.000 HD 
BRANCH   4   6
HETATM    6  C   UNL     1      -9.927   7.765  72.739  1.00  0.00    -0.260 C  
BRANCH   6   7
HETATM    7  C   UNL     1     -10.273   6.306  72.400  1.00  0.00    -0.187 C  
HETATM    8  H   UNL     1     -11.015   4.740  73.343  1.00  0.00     0.000 HD 
HETATM    9  O   UNL     1     -10.801   5.641  73.553  1.00  0.00    -0.267 OA 
BRANCH   7  10
HETATM   10  C   UNL     1     -11.269   6.232  71.241  1.00  0.00    -0.297 C  
BRANCH  10  11
HETATM   11  O   UNL     1     -10.832   5.295  70.240  1.00  0.00    -0.225 OA 
BRANCH  11  12
HETATM   12  C   UNL     1     -10.326   5.886  69.105  1.00  0.00    -0.238 A  
HETATM   13  C   UNL     1      -8.970   6.051  68.850  1.00  0.00    -0.123 A  
HETATM   14  C   UNL     1      -8.529   6.722  67.714  1.00  0.00    -0.122 A  
HETATM   15  C   UNL     1      -9.436   7.232  66.785  1.00  0.00    -0.171 A  
HETATM   16  C   UNL     1     -11.247   6.361  68.167  1.00  0.00    -0.270 A  
HETATM   17  C   UNL     1     -10.805   7.035  67.013  1.00  0.00    -0.413 A  
BRANCH  15  18
HETATM   18  N   UNL     1      -9.014   7.969  65.657  1.00  0.00    -0.355 N  
HETATM   19  H   UNL     1      -8.392   7.500  64.999  1.00  0.00     0.000 HD 
HETATM   20  C   UNL     1      -9.372   9.278  65.365  1.00  0.00    -0.226 C  
HETATM   21  O   UNL     1      -9.953  10.064  66.104  1.00  0.00    -0.229 OA 
HETATM   22  C   UNL     1      -8.946   9.722  63.993  1.00  0.00    -0.275 C  
ENDBRANCH  15  18
ENDBRANCH  11  12
ENDBRANCH  10  11
ENDBRANCH   7  10
ENDBRANCH   6   7
ENDBRANCH   4   6
ENDBRANCH   2   4
TORSDOF 7
ENDMDL
MODEL      209
REMARK 921   NORMALIZED FREE ENERGY PREDICTED BY IDOCK:   -2.70 KCAL/MOL
REMARK 922        TOTAL FREE ENERGY PREDICTED BY IDOCK:   -4.65 KCAL/MOL
REMARK 923 INTER-LIGAND FREE ENERGY PREDICTED BY IDOCK:   -4.52 KCAL/MOL
REMARK 924 INTRA-LIGAND FREE ENERGY PREDICTED BY IDOCK:   -0.14 KCAL/MOL
REMARK 927      BINDING AFFINITY PREDICTED BY RF-SCORE:    0.00 PKD
ROOT
HETATM    1  C   UNL     1      -9.976   4.990  66.848  1.00  0.00    -0.238 C  
HETATM    2  C   UNL     1      -9.502   3.561  67.115  1.00  0.00    -0.183 C  
HETATM    3  C   UNL     1      -8.129   3.346  66.473  1.00  0.00    -0.091 C  
ENDROOT
BRANCH   2   4
HETATM    4  N   UNL     1      -9.460   3.361  68.564  1.00  0.00    -0.168 NA 
HETATM    5  H   UNL     1      -8.905   2.538  68.798  1.00  0.00     0.000 HD 
BRANCH   4   6
HETATM    6  C   UNL     1      -8.985   4.534  69.304  1.00  0.00    -0.096 C  
BRANCH   6   7
HETATM    7  C   UNL     1      -9.760   4.656  70.626  1.00  0.00    -0.207 C  
HETATM    8  H   UNL     1      -9.362   5.155  72.493  1.00  0.00     0.000 HD 
HETATM    9  O   UNL     1      -8.883   5.080  71.677  1.00  0.00    -0.129 OA 
BRANCH   7  10
HETATM   10  C   UNL     1     -10.933   5.627  70.488  1.00  0.00    -0.197 C  
BRANCH  10  11
HETATM   11  O   UNL     1     -10.882   6.650  71.501  1.00  0.00    -0.230 OA 
BRANCH  11  12
HETATM   12  C   UNL     1     -10.846   7.931  70.998  1.00  0.00    -0.235 A  
HETATM   13  C   UNL     1     -11.695   8.953  71.405  1.00  0.00    -0.385 A  
HETATM   14  C   UNL     1     -11.650  10.206  70.804  1.00  0.00    -0.445 A  
HETATM   15  C   UNL     1     -10.734  10.482  69.788  1.00  0.00    -0.264 A  
HETATM   16  C   UNL     1      -9.899   8.201  70.006  1.00  0.00    -0.182 A  
HETATM   17  C   UNL     1      -9.846   9.469  69.399  1.00  0.00    -0.194 A  
BRANCH  15  18
HETATM   18  N   UNL     1     -10.711  11.727  69.122  1.00  0.00    -0.382 N  
HETATM   19  H   UNL     1     -10.111  11.805  68.301  1.00  0.00     0.000 HD 
HETATM   20  C   UNL     1     -11.432  12.854  69.488  1.00  0.00    -0.225 C  
HETATM   21  O   UNL     1     -12.058  13.022  70.528  1.00  0.00    -0.355 OA 
HETATM   22  C   UNL     1     -11.372  13.958  68.469  1.00  0.00    -0.311 C  
ENDBRANCH  15  18
ENDBRANCH  11  12
ENDBRANCH  10  11
ENDBRANCH   7  10
ENDBRANCH   6   7
ENDBRANCH   4   6
ENDBRANCH   2   4
TORSDOF 7
ENDMDL
MODEL      210
REMARK 921   NORMALIZED FREE ENERGY PREDICTED BY IDOCK:   -2.67 KCAL/MOL
REMARK 922        TOTAL FREE ENERGY PREDICTED BY IDOCK:   -4.60 KCAL/MOL
REMARK 923 INTER-LIGAND FREE ENERGY PREDICTED BY IDOCK:   -4.05 KCAL/MOL
REMARK 924 INTRA-LIGAND FREE ENERGY PREDICTED BY IDOCK:   -0.56 KCAL/MOL
REMARK 927      BINDING AFFINITY PREDICTED BY RF-SCORE:    0.00 PKD
ROOT
HETATM    1  C   UNL     1     -12.627  12.770  63.123  1.00  0.00    -0.080 C  
HETATM    2  C   UNL     1     -11.786  12.240  64.286  1.00  0.00    -0.403 C  
HETATM    3  C   UNL     1     -10.341  12.035  63.824  1.00  0.00    -0.457 C  
ENDROOT
BRANCH   2   4
HETATM    4  N   UNL     1     -11.874  13.204  65.383  1.00  0.00    -0.351 NA 
HETATM    5  H   UNL     1     -11.387  12.854  66.209  1.00  0.00     0.000 HD 
BRANCH   4   6
HETATM    6  C   UNL     1     -11.395  14.543  65.027  1.00  0.00    -0.377 C  
BRANCH   6   7
HETATM    7  C   UNL     1     -10.837  15.239  66.279  1.00  0.00    -0.312 C  
HETATM    8  H   UNL     1     -11.537  15.881  68.009  1.00  0.00     0.000 HD 
HETATM    9  O   UNL     1     -11.882  15.451  67.236  1.00  0.00    -0.109 OA 
BRANCH   7  10
HETATM   10  C   UNL     1      -9.703  14.424  66.903  1.00  0.00    -0.262 C  
BRANCH  10  11
HETATM   11  O   UNL     1     -10.219  13.387  67.759  1.00  0.00    -0.227 OA 
BRANCH  11  12
HETATM   12  C   UNL     1      -9.704  12.139  67.496  1.00  0.00    -0.185 A  
HETATM   13  C   UNL     1      -8.409  11.908  67.049  1.00  0.00    -0.178 A  
HETATM   14  C   UNL     1      -7.975  10.625  66.734  1.00  0.00    -0.132 A  
HETATM   15  C   UNL     1      -8.821   9.526  66.880  1.00  0.00    -0.127 A  
HETATM   16  C   UNL     1     -10.554  11.045  67.680  1.00  0.00    -0.255 A  
HETATM   17  C   UNL     1     -10.117   9.743  67.369  1.00  0.00    -0.259 A  
BRANCH  15  18
HETATM   18  N   UNL     1      -8.423   8.222  66.509  1.00  0.00    -0.114 N  
HETATM   19  H   UNL     1      -8.912   7.443  66.949  1.00  0.00     0.000 HD 
HETATM   20  C   UNL     1      -7.424   7.910  65.598  1.00  0.00    -0.081 C  
HETATM   21  O   UNL     1      -6.610   8.682  65.105  1.00  0.00    -0.063 OA 
HETATM   22  C   UNL     1      -7.373   6.449  65.247  1.00  0.00    -0.077 C  
ENDBRANCH  15  18
ENDBRANCH  11  12
ENDBRANCH  10  11
ENDBRANCH   7  10
ENDBRANCH   6   7
ENDBRANCH   4   6
ENDBRANCH   2   4
TORSDOF 7
ENDMDL
MODEL      211
REMARK 921   NORMALIZED FREE ENERGY PREDICTED BY IDOCK:   -2.64 KCAL/MOL
REMARK 922        TOTAL FREE ENERGY PREDICTED BY IDOCK:   -4.57 KCAL/MOL
REMARK 923 INTER-LIGAND FREE ENERGY PREDICTED BY IDOCK:   -4.35 KCAL/MOL
REMARK 924 INTRA-LIGAND FREE ENERGY PREDICTED BY IDOCK:   -0.22 KCAL/MOL
REMARK 927      BINDING AFFINITY PREDICTED BY RF-SCORE:    0.00 PKD
ROOT
HETATM    1  C   UNL     1      -8.263  12.412  66.934  1.00  0.00    -0.089 C  
HETATM    2  C   UNL     1      -9.554  13.121  67.349  1.00  0.00    -0.219 C  
HETATM    3  C   UNL     1     -10.543  13.116  66.181  1.00  0.00    -0.288 C  
ENDROOT
BRANCH   2   4
HETATM    4  N   UNL     1     -10.094  12.428  68.520  1.00  0.00    -0.302 NA 
HETATM    5  H   UNL     1     -11.113  12.418  68.494  1.00  0.00     0.000 HD 
BRANCH   4   6
HETATM    6  C   UNL     1      -9.566  11.071  68.694  1.00  0.00    -0.195 C  
BRANCH   6   7
HETATM    7  C   UNL     1     -10.702  10.051  68.522  1.00  0.00    -0.231 C  
HETATM    8  H   UNL     1     -12.672  10.047  68.654  1.00  0.00     0.000 HD 
HETATM    9  O   UNL     1     -11.969  10.677  68.760  1.00  0.00    -0.366 OA 
BRANCH   7  10
HETATM   10  C   UNL     1     -10.673   9.424  67.128  1.00  0.00    -0.163 C  
BRANCH  10  11
HETATM   11  O   UNL     1      -9.799   8.280  67.091  1.00  0.00    -0.177 OA 
BRANCH  11  12
HETATM   12  C   UNL     1      -9.834   7.515  68.235  1.00  0.00    -0.163 A  
HETATM   13  C   UNL     1      -8.766   7.375  69.112  1.00  0.00    -0.136 A  
HETATM   14  C   UNL     1      -8.846   6.529  70.212  1.00  0.00    -0.151 A  
HETATM   15  C   UNL     1     -10.012   5.811  70.482  1.00  0.00    -0.195 A  
HETATM   16  C   UNL     1     -11.021   6.831  68.510  1.00  0.00    -0.258 A  
HETATM   17  C   UNL     1     -11.109   5.978  69.626  1.00  0.00    -0.474 A  
BRANCH  15  18
HETATM   18  N   UNL     1     -10.096   4.901  71.558  1.00  0.00    -0.192 N  
HETATM   19  H   UNL     1      -9.484   4.087  71.529  1.00  0.00     0.000 HD 
HETATM   20  C   UNL     1     -10.942   5.018  72.652  1.00  0.00    -0.216 C  
HETATM   21  O   UNL     1     -11.867   5.810  72.787  1.00  0.00    -0.237 OA 
HETATM   22  C   UNL     1     -10.656   4.017  73.737  1.00  0.00    -0.292 C  
ENDBRANCH  15  18
ENDBRANCH  11  12
ENDBRANCH  10  11
ENDBRANCH   7  10
ENDBRANCH   6   7
ENDBRANCH   4   6
ENDBRANCH   2   4
TORSDOF 7
ENDMDL
MODEL      212
REMARK 921   NORMALIZED FREE ENERGY PREDICTED BY IDOCK:   -2.59 KCAL/MOL
REMARK 922        TOTAL FREE ENERGY PREDICTED BY IDOCK:   -4.49 KCAL/MOL
REMARK 923 INTER-LIGAND FREE ENERGY PREDICTED BY IDOCK:   -3.90 KCAL/MOL
REMARK 924 INTRA-LIGAND FREE ENERGY PREDICTED BY IDOCK:   -0.59 KCAL/MOL
REMARK 927      BINDING AFFINITY PREDICTED BY RF-SCORE:    0.00 PKD
ROOT
HETATM    1  C   UNL     1      -7.149   4.256  71.706  1.00  0.00    -0.050 C  
HETATM    2  C   UNL     1      -7.715   4.763  70.378  1.00  0.00    -0.058 C  
HETATM    3  C   UNL     1      -7.734   3.622  69.358  1.00  0.00    -0.052 C  
ENDROOT
BRANCH   2   4
HETATM    4  N   UNL     1      -9.057   5.289  70.629  1.00  0.00    -0.139 NA 
HETATM    5  H   UNL     1      -9.219   5.400  71.630  1.00  0.00     0.000 HD 
BRANCH   4   6
HETATM    6  C   UNL     1      -9.340   6.538  69.916  1.00  0.00    -0.152 C  
BRANCH   6   7
HETATM    7  C   UNL     1      -9.337   7.710  70.910  1.00  0.00    -0.157 C  
HETATM    8  H   UNL     1      -8.078   9.118  71.482  1.00  0.00     0.000 HD 
HETATM    9  O   UNL     1      -8.079   8.394  70.867  1.00  0.00    -0.092 OA 
BRANCH   7  10
HETATM   10  C   UNL     1     -10.481   8.682  70.619  1.00  0.00    -0.204 C  
BRANCH  10  11
HETATM   11  O   UNL     1     -10.758   8.751  69.207  1.00  0.00    -0.221 OA 
BRANCH  11  12
HETATM   12  C   UNL     1     -10.538   9.993  68.656  1.00  0.00    -0.212 A  
HETATM   13  C   UNL     1      -9.342  10.383  68.066  1.00  0.00    -0.145 A  
HETATM   14  C   UNL     1      -9.164  11.679  67.592  1.00  0.00    -0.178 A  
HETATM   15  C   UNL     1     -10.191  12.620  67.674  1.00  0.00    -0.217 A  
HETATM   16  C   UNL     1     -11.588  10.913  68.715  1.00  0.00    -0.378 A  
HETATM   17  C   UNL     1     -11.415  12.223  68.231  1.00  0.00    -0.367 A  
BRANCH  15  18
HETATM   18  N   UNL     1     -10.013  13.957  67.255  1.00  0.00    -0.240 N  
HETATM   19  H   UNL     1      -9.767  14.641  67.970  1.00  0.00     0.000 HD 
HETATM   20  C   UNL     1     -10.146  14.421  65.954  1.00  0.00    -0.325 C  
HETATM   21  O   UNL     1     -10.606  13.809  64.997  1.00  0.00    -0.341 OA 
HETATM   22  C   UNL     1      -9.687  15.842  65.778  1.00  0.00    -0.372 C  
ENDBRANCH  15  18
ENDBRANCH  11  12
ENDBRANCH  10  11
ENDBRANCH   7  10
ENDBRANCH   6   7
ENDBRANCH   4   6
ENDBRANCH   2   4
TORSDOF 7
ENDMDL
MODEL      213
REMARK 921   NORMALIZED FREE ENERGY PREDICTED BY IDOCK:   -2.58 KCAL/MOL
REMARK 922        TOTAL FREE ENERGY PREDICTED BY IDOCK:   -4.48 KCAL/MOL
REMARK 923 INTER-LIGAND FREE ENERGY PREDICTED BY IDOCK:   -3.78 KCAL/MOL
REMARK 924 INTRA-LIGAND FREE ENERGY PREDICTED BY IDOCK:   -0.70 KCAL/MOL
REMARK 927      BINDING AFFINITY PREDICTED BY RF-SCORE:    0.00 PKD
ROOT
HETATM    1  C   UNL     1      -8.518   3.557  66.449  1.00  0.00    -0.108 C  
HETATM    2  C   UNL     1      -8.826   4.760  67.342  1.00  0.00    -0.104 C  
HETATM    3  C   UNL     1      -8.884   4.314  68.805  1.00  0.00    -0.138 C  
ENDROOT
BRANCH   2   4
HETATM    4  N   UNL     1      -7.786   5.765  67.123  1.00  0.00    -0.100 NA 
HETATM    5  H   UNL     1      -7.456   6.142  68.011  1.00  0.00     0.000 HD 
BRANCH   4   6
HETATM    6  C   UNL     1      -6.662   5.279  66.316  1.00  0.00    -0.057 C  
BRANCH   6   7
HETATM    7  C   UNL     1      -5.938   6.472  65.672  1.00  0.00    -0.033 C  
HETATM    8  H   UNL     1      -5.243   6.948  63.887  1.00  0.00     0.000 HD 
HETATM    9  O   UNL     1      -5.690   6.211  64.285  1.00  0.00    -0.021 OA 
BRANCH   7  10
HETATM   10  C   UNL     1      -6.747   7.760  65.834  1.00  0.00    -0.046 C  
BRANCH  10  11
HETATM   11  O   UNL     1      -7.693   7.917  64.760  1.00  0.00    -0.102 OA 
BRANCH  11  12
HETATM   12  C   UNL     1      -8.600   8.933  64.960  1.00  0.00    -0.176 A  
HETATM   13  C   UNL     1      -9.175   9.234  66.188  1.00  0.00    -0.249 A  
HETATM   14  C   UNL     1     -10.138  10.230  66.306  1.00  0.00    -0.300 A  
HETATM   15  C   UNL     1     -10.541  10.973  65.196  1.00  0.00    -0.226 A  
HETATM   16  C   UNL     1      -8.967   9.691  63.844  1.00  0.00    -0.254 A  
HETATM   17  C   UNL     1      -9.937  10.704  63.959  1.00  0.00    -0.401 A  
BRANCH  15  18
HETATM   18  N   UNL     1     -11.560  11.947  65.278  1.00  0.00    -0.269 N  
HETATM   19  H   UNL     1     -12.513  11.614  65.420  1.00  0.00     0.000 HD 
HETATM   20  C   UNL     1     -11.377  13.319  65.184  1.00  0.00    -0.297 C  
HETATM   21  O   UNL     1     -10.357  13.904  64.840  1.00  0.00    -0.397 OA 
HETATM   22  C   UNL     1     -12.610  14.111  65.526  1.00  0.00    -0.501 C  
ENDBRANCH  15  18
ENDBRANCH  11  12
ENDBRANCH  10  11
ENDBRANCH   7  10
ENDBRANCH   6   7
ENDBRANCH   4   6
ENDBRANCH   2   4
TORSDOF 7
ENDMDL
MODEL      214
REMARK 921   NORMALIZED FREE ENERGY PREDICTED BY IDOCK:   -2.57 KCAL/MOL
REMARK 922        TOTAL FREE ENERGY PREDICTED BY IDOCK:   -4.47 KCAL/MOL
REMARK 923 INTER-LIGAND FREE ENERGY PREDICTED BY IDOCK:   -3.88 KCAL/MOL
REMARK 924 INTRA-LIGAND FREE ENERGY PREDICTED BY IDOCK:   -0.59 KCAL/MOL
REMARK 927      BINDING AFFINITY PREDICTED BY RF-SCORE:    0.00 PKD
ROOT
HETATM    1  C   UNL     1      -6.423  10.340  70.182  1.00  0.00    -0.128 C  
HETATM    2  C   UNL     1      -6.703   8.853  70.406  1.00  0.00    -0.047 C  
HETATM    3  C   UNL     1      -7.602   8.678  71.632  1.00  0.00    -0.139 C  
ENDROOT
BRANCH   2   4
HETATM    4  N   UNL     1      -7.328   8.322  69.195  1.00  0.00    -0.079 NA 
HETATM    5  H   UNL     1      -8.041   8.963  68.847  1.00  0.00     0.000 HD 
BRANCH   4   6
HETATM    6  C   UNL     1      -6.369   7.991  68.136  1.00  0.00    -0.054 C  
BRANCH   6   7
HETATM    7  C   UNL     1      -7.125   7.496  66.893  1.00  0.00    -0.084 C  
HETATM    8  H   UNL     1      -6.916   6.068  65.548  1.00  0.00     0.000 HD 
HETATM    9  O   UNL     1      -6.448   6.373  66.316  1.00  0.00    -0.040 OA 
BRANCH   7  10
HETATM   10  C   UNL     1      -8.569   7.126  67.238  1.00  0.00    -0.121 C  
BRANCH  10  11
HETATM   11  O   UNL     1      -9.489   7.671  66.275  1.00  0.00    -0.176 OA 
BRANCH  11  12
HETATM   12  C   UNL     1      -9.988   8.908  66.617  1.00  0.00    -0.276 A  
HETATM   13  C   UNL     1     -10.596   9.193  67.834  1.00  0.00    -0.272 A  
HETATM   14  C   UNL     1     -11.142  10.447  68.087  1.00  0.00    -0.344 A  
HETATM   15  C   UNL     1     -11.076  11.464  67.134  1.00  0.00    -0.305 A  
HETATM   16  C   UNL     1      -9.882   9.925  65.666  1.00  0.00    -0.368 A  
HETATM   17  C   UNL     1     -10.428  11.198  65.920  1.00  0.00    -0.310 A  
BRANCH  15  18
HETATM   18  N   UNL     1     -11.676  12.725  67.345  1.00  0.00    -0.358 N  
HETATM   19  H   UNL     1     -12.688  12.746  67.462  1.00  0.00     0.000 HD 
HETATM   20  C   UNL     1     -11.007  13.939  67.407  1.00  0.00    -0.288 C  
HETATM   21  O   UNL     1      -9.835  14.150  67.116  1.00  0.00    -0.243 OA 
HETATM   22  C   UNL     1     -11.878  15.079  67.857  1.00  0.00    -0.243 C  
ENDBRANCH  15  18
ENDBRANCH  11  12
ENDBRANCH  10  11
ENDBRANCH   7  10
ENDBRANCH   6   7
ENDBRANCH   4   6
ENDBRANCH   2   4
TORSDOF 7
ENDMDL
MODEL      215
REMARK 921   NORMALIZED FREE ENERGY PREDICTED BY IDOCK:   -2.57 KCAL/MOL
REMARK 922        TOTAL FREE ENERGY PREDICTED BY IDOCK:   -4.47 KCAL/MOL
REMARK 923 INTER-LIGAND FREE ENERGY PREDICTED BY IDOCK:   -3.86 KCAL/MOL
REMARK 924 INTRA-LIGAND FREE ENERGY PREDICTED BY IDOCK:   -0.61 KCAL/MOL
REMARK 927      BINDING AFFINITY PREDICTED BY RF-SCORE:    0.00 PKD
ROOT
HETATM    1  C   UNL     1      -8.841  11.655  67.564  1.00  0.00    -0.158 C  
HETATM    2  C   UNL     1     -10.182  12.224  68.029  1.00  0.00    -0.206 C  
HETATM    3  C   UNL     1     -11.291  11.777  67.073  1.00  0.00    -0.387 C  
ENDROOT
BRANCH   2   4
HETATM    4  N   UNL     1     -10.423  11.758  69.395  1.00  0.00    -0.428 NA 
HETATM    5  H   UNL     1     -11.375  11.975  69.687  1.00  0.00     0.000 HD 
BRANCH   4   6
HETATM    6  C   UNL     1     -10.133  10.333  69.588  1.00  0.00    -0.224 C  
BRANCH   6   7
HETATM    7  C   UNL     1     -11.065   9.761  70.668  1.00  0.00    -0.332 C  
HETATM    8  H   UNL     1     -12.986   9.848  71.113  1.00  0.00     0.000 HD 
HETATM    9  O   UNL     1     -12.410  10.201  70.445  1.00  0.00    -0.257 OA 
BRANCH   7  10
HETATM   10  C   UNL     1     -11.003   8.234  70.696  1.00  0.00    -0.240 C  
BRANCH  10  11
HETATM   11  O   UNL     1      -9.648   7.772  70.849  1.00  0.00    -0.167 OA 
BRANCH  11  12
HETATM   12  C   UNL     1      -9.303   6.759  69.982  1.00  0.00    -0.158 A  
HETATM   13  C   UNL     1      -8.097   6.697  69.296  1.00  0.00    -0.116 A  
HETATM   14  C   UNL     1      -7.843   5.681  68.381  1.00  0.00    -0.092 A  
HETATM   15  C   UNL     1      -8.784   4.679  68.141  1.00  0.00    -0.103 A  
HETATM   16  C   UNL     1     -10.243   5.744  69.780  1.00  0.00    -0.303 A  
HETATM   17  C   UNL     1      -9.988   4.711  68.859  1.00  0.00    -0.168 A  
BRANCH  15  18
HETATM   18  N   UNL     1      -8.573   3.673  67.173  1.00  0.00    -0.104 N  
HETATM   19  H   UNL     1      -8.079   2.833  67.473  1.00  0.00     0.000 HD 
HETATM   20  C   UNL     1      -8.980   3.727  65.847  1.00  0.00    -0.135 C  
HETATM   21  O   UNL     1      -9.419   4.704  65.252  1.00  0.00    -0.161 OA 
HETATM   22  C   UNL     1      -8.809   2.424  65.117  1.00  0.00    -0.120 C  
ENDBRANCH  15  18
ENDBRANCH  11  12
ENDBRANCH  10  11
ENDBRANCH   7  10
ENDBRANCH   6   7
ENDBRANCH   4   6
ENDBRANCH   2   4
TORSDOF 7
ENDMDL
MODEL      216
REMARK 921   NORMALIZED FREE ENERGY PREDICTED BY IDOCK:   -2.54 KCAL/MOL
REMARK 922        TOTAL FREE ENERGY PREDICTED BY IDOCK:   -4.41 KCAL/MOL
REMARK 923 INTER-LIGAND FREE ENERGY PREDICTED BY IDOCK:   -4.24 KCAL/MOL
REMARK 924 INTRA-LIGAND FREE ENERGY PREDICTED BY IDOCK:   -0.17 KCAL/MOL
REMARK 927      BINDING AFFINITY PREDICTED BY RF-SCORE:    0.00 PKD
ROOT
HETATM    1  C   UNL     1      -5.727   9.926  70.546  1.00  0.00    -0.062 C  
HETATM    2  C   UNL     1      -6.431   8.583  70.341  1.00  0.00    -0.036 C  
HETATM    3  C   UNL     1      -7.049   8.119  71.662  1.00  0.00    -0.075 C  
ENDROOT
BRANCH   2   4
HETATM    4  N   UNL     1      -7.444   8.758  69.299  1.00  0.00    -0.077 NA 
HETATM    5  H   UNL     1      -7.983   9.609  69.460  1.00  0.00     0.000 HD 
BRANCH   4   6
HETATM    6  C   UNL     1      -6.896   8.740  67.939  1.00  0.00    -0.070 C  
BRANCH   6   7
HETATM    7  C   UNL     1      -8.047   8.779  66.921  1.00  0.00    -0.101 C  
HETATM    8  H   UNL     1      -8.394   8.089  65.105  1.00  0.00     0.000 HD 
HETATM    9  O   UNL     1      -7.683   8.064  65.734  1.00  0.00    -0.086 OA 
BRANCH   7  10
HETATM   10  C   UNL     1      -9.330   8.201  67.518  1.00  0.00    -0.140 C  
BRANCH  10  11
HETATM   11  O   UNL     1     -10.490   8.905  67.037  1.00  0.00    -0.274 OA 
BRANCH  11  12
HETATM   12  C   UNL     1     -10.755  10.073  67.717  1.00  0.00    -0.280 A  
HETATM   13  C   UNL     1     -11.021  10.139  69.079  1.00  0.00    -0.265 A  
HETATM   14  C   UNL     1     -11.351  11.344  69.689  1.00  0.00    -0.347 A  
HETATM   15  C   UNL     1     -11.402  12.529  68.955  1.00  0.00    -0.290 A  
HETATM   16  C   UNL     1     -10.768  11.256  66.974  1.00  0.00    -0.305 A  
HETATM   17  C   UNL     1     -11.095  12.479  67.588  1.00  0.00    -0.301 A  
BRANCH  15  18
HETATM   18  N   UNL     1     -11.793  13.754  69.540  1.00  0.00    -0.318 N  
HETATM   19  H   UNL     1     -11.503  14.609  69.068  1.00  0.00     0.000 HD 
HETATM   20  C   UNL     1     -12.538  13.893  70.703  1.00  0.00    -0.335 C  
HETATM   21  O   UNL     1     -12.824  13.012  71.504  1.00  0.00    -0.355 OA 
HETATM   22  C   UNL     1     -12.982  15.307  70.960  1.00  0.00    -0.526 C  
ENDBRANCH  15  18
ENDBRANCH  11  12
ENDBRANCH  10  11
ENDBRANCH   7  10
ENDBRANCH   6   7
ENDBRANCH   4   6
ENDBRANCH   2   4
TORSDOF 7
ENDMDL
MODEL      217
REMARK 921   NORMALIZED FREE ENERGY PREDICTED BY IDOCK:   -2.44 KCAL/MOL
REMARK 922        TOTAL FREE ENERGY PREDICTED BY IDOCK:   -4.28 KCAL/MOL
REMARK 923 INTER-LIGAND FREE ENERGY PREDICTED BY IDOCK:   -4.21 KCAL/MOL
REMARK 924 INTRA-LIGAND FREE ENERGY PREDICTED BY IDOCK:   -0.08 KCAL/MOL
REMARK 927      BINDING AFFINITY PREDICTED BY RF-SCORE:    0.00 PKD
ROOT
HETATM    1  C   UNL     1     -10.390   5.438  67.174  1.00  0.00    -0.288 C  
HETATM    2  C   UNL     1      -9.609   4.209  67.643  1.00  0.00    -0.163 C  
HETATM    3  C   UNL     1      -8.368   4.022  66.766  1.00  0.00    -0.101 C  
ENDROOT
BRANCH   2   4
HETATM    4  N   UNL     1      -9.255   4.408  69.049  1.00  0.00    -0.127 NA 
HETATM    5  H   UNL     1      -9.034   3.517  69.494  1.00  0.00     0.000 HD 
BRANCH   4   6
HETATM    6  C   UNL     1      -8.168   5.371  69.250  1.00  0.00    -0.093 C  
BRANCH   6   7
HETATM    7  C   UNL     1      -8.413   6.160  70.546  1.00  0.00    -0.137 C  
HETATM    8  H   UNL     1      -7.334   7.196  71.833  1.00  0.00     0.000 HD 
HETATM    9  O   UNL     1      -7.182   6.709  71.032  1.00  0.00    -0.074 OA 
BRANCH   7  10
HETATM   10  C   UNL     1      -9.441   7.272  70.327  1.00  0.00    -0.165 C  
BRANCH  10  11
HETATM   11  O   UNL     1      -8.795   8.538  70.099  1.00  0.00    -0.132 OA 
BRANCH  11  12
HETATM   12  C   UNL     1      -9.531   9.408  69.328  1.00  0.00    -0.164 A  
HETATM   13  C   UNL     1      -9.107   9.919  68.107  1.00  0.00    -0.121 A  
HETATM   14  C   UNL     1      -9.872  10.850  67.413  1.00  0.00    -0.199 A  
HETATM   15  C   UNL     1     -11.101  11.284  67.912  1.00  0.00    -0.267 A  
HETATM   16  C   UNL     1     -10.776   9.806  69.825  1.00  0.00    -0.283 A  
HETATM   17  C   UNL     1     -11.556  10.744  69.123  1.00  0.00    -0.376 A  
BRANCH  15  18
HETATM   18  N   UNL     1     -11.865  12.274  67.256  1.00  0.00    -0.325 N  
HETATM   19  H   UNL     1     -12.694  12.619  67.739  1.00  0.00     0.000 HD 
HETATM   20  C   UNL     1     -11.587  12.817  66.010  1.00  0.00    -0.383 C  
HETATM   21  O   UNL     1     -10.757  12.418  65.201  1.00  0.00    -0.276 OA 
HETATM   22  C   UNL     1     -12.451  13.999  65.668  1.00  0.00    -0.531 C  
ENDBRANCH  15  18
ENDBRANCH  11  12
ENDBRANCH  10  11
ENDBRANCH   7  10
ENDBRANCH   6   7
ENDBRANCH   4   6
ENDBRANCH   2   4
TORSDOF 7
ENDMDL
MODEL      218
REMARK 921   NORMALIZED FREE ENERGY PREDICTED BY IDOCK:   -2.32 KCAL/MOL
REMARK 922        TOTAL FREE ENERGY PREDICTED BY IDOCK:   -4.12 KCAL/MOL
REMARK 923 INTER-LIGAND FREE ENERGY PREDICTED BY IDOCK:   -3.50 KCAL/MOL
REMARK 924 INTRA-LIGAND FREE ENERGY PREDICTED BY IDOCK:   -0.62 KCAL/MOL
REMARK 927      BINDING AFFINITY PREDICTED BY RF-SCORE:    0.00 PKD
ROOT
HETATM    1  C   UNL     1      -9.446  12.840  66.705  1.00  0.00    -0.249 C  
HETATM    2  C   UNL     1     -10.912  13.194  66.959  1.00  0.00    -0.269 C  
HETATM    3  C   UNL     1     -11.795  12.520  65.906  1.00  0.00    -0.489 C  
ENDROOT
BRANCH   2   4
HETATM    4  N   UNL     1     -11.254  12.758  68.314  1.00  0.00    -0.252 NA 
HETATM    5  H   UNL     1     -12.250  12.549  68.383  1.00  0.00     0.000 HD 
BRANCH   4   6
HETATM    6  C   UNL     1     -10.452  11.626  68.786  1.00  0.00    -0.204 C  
BRANCH   6   7
HETATM    7  C   UNL     1     -11.267  10.803  69.796  1.00  0.00    -0.297 C  
HETATM    8  H   UNL     1     -13.168  10.578  70.277  1.00  0.00     0.000 HD 
HETATM    9  O   UNL     1     -12.664  11.087  69.652  1.00  0.00    -0.218 OA 
BRANCH   7  10
HETATM   10  C   UNL     1     -11.008   9.306  69.624  1.00  0.00    -0.175 C  
BRANCH  10  11
HETATM   11  O   UNL     1      -9.610   9.000  69.781  1.00  0.00    -0.165 OA 
BRANCH  11  12
HETATM   12  C   UNL     1      -9.055   8.358  68.697  1.00  0.00    -0.140 A  
HETATM   13  C   UNL     1      -7.768   8.592  68.228  1.00  0.00    -0.102 A  
HETATM   14  C   UNL     1      -7.295   7.959  67.083  1.00  0.00    -0.091 A  
HETATM   15  C   UNL     1      -8.092   7.053  66.383  1.00  0.00    -0.112 A  
HETATM   16  C   UNL     1      -9.853   7.427  68.028  1.00  0.00    -0.172 A  
HETATM   17  C   UNL     1      -9.377   6.780  66.872  1.00  0.00    -0.176 A  
BRANCH  15  18
HETATM   18  N   UNL     1      -7.655   6.445  65.185  1.00  0.00    -0.083 N  
HETATM   19  H   UNL     1      -7.159   5.558  65.266  1.00  0.00     0.000 HD 
HETATM   20  C   UNL     1      -7.843   6.951  63.907  1.00  0.00    -0.107 C  
HETATM   21  O   UNL     1      -8.246   8.069  63.609  1.00  0.00    -0.134 OA 
HETATM   22  C   UNL     1      -7.464   5.983  62.821  1.00  0.00    -0.063 C  
ENDBRANCH  15  18
ENDBRANCH  11  12
ENDBRANCH  10  11
ENDBRANCH   7  10
ENDBRANCH   6   7
ENDBRANCH   4   6
ENDBRANCH   2   4
TORSDOF 7
ENDMDL
MODEL      219
REMARK 921   NORMALIZED FREE ENERGY PREDICTED BY IDOCK:   -2.22 KCAL/MOL
REMARK 922        TOTAL FREE ENERGY PREDICTED BY IDOCK:   -3.97 KCAL/MOL
REMARK 923 INTER-LIGAND FREE ENERGY PREDICTED BY IDOCK:   -3.79 KCAL/MOL
REMARK 924 INTRA-LIGAND FREE ENERGY PREDICTED BY IDOCK:   -0.18 KCAL/MOL
REMARK 927      BINDING AFFINITY PREDICTED BY RF-SCORE:    0.00 PKD
ROOT
HETATM    1  C   UNL     1      -9.995  15.486  67.787  1.00  0.00    -0.222 C  
HETATM    2  C   UNL     1     -10.988  14.323  67.820  1.00  0.00    -0.264 C  
HETATM    3  C   UNL     1     -11.808  14.309  66.527  1.00  0.00    -0.433 C  
ENDROOT
BRANCH   2   4
HETATM    4  N   UNL     1     -10.229  13.084  67.994  1.00  0.00    -0.227 NA 
HETATM    5  H   UNL     1      -9.958  12.962  68.970  1.00  0.00     0.000 HD 
BRANCH   4   6
HETATM    6  C   UNL     1     -10.925  11.894  67.496  1.00  0.00    -0.247 C  
BRANCH   6   7
HETATM    7  C   UNL     1     -10.026  11.153  66.494  1.00  0.00    -0.214 C  
HETATM    8  H   UNL     1      -8.298  11.471  65.594  1.00  0.00     0.000 HD 
HETATM    9  O   UNL     1      -8.854  11.929  66.213  1.00  0.00    -0.186 OA 
BRANCH   7  10
HETATM   10  C   UNL     1      -9.634   9.772  67.022  1.00  0.00    -0.172 C  
BRANCH  10  11
HETATM   11  O   UNL     1     -10.698   9.194  67.803  1.00  0.00    -0.245 OA 
BRANCH  11  12
HETATM   12  C   UNL     1     -10.283   8.663  69.003  1.00  0.00    -0.207 A  
HETATM   13  C   UNL     1      -9.077   7.996  69.185  1.00  0.00    -0.145 A  
HETATM   14  C   UNL     1      -8.753   7.421  70.409  1.00  0.00    -0.145 A  
HETATM   15  C   UNL     1      -9.619   7.516  71.499  1.00  0.00    -0.154 A  
HETATM   16  C   UNL     1     -11.146   8.797  70.093  1.00  0.00    -0.214 A  
HETATM   17  C   UNL     1     -10.819   8.222  71.336  1.00  0.00    -0.293 A  
BRANCH  15  18
HETATM   18  N   UNL     1      -9.338   6.889  72.733  1.00  0.00    -0.135 N  
HETATM   19  H   UNL     1     -10.134   6.622  73.311  1.00  0.00     0.000 HD 
HETATM   20  C   UNL     1      -8.073   6.606  73.226  1.00  0.00    -0.107 C  
HETATM   21  O   UNL     1      -7.002   7.001  72.779  1.00  0.00    -0.069 OA 
HETATM   22  C   UNL     1      -8.093   5.743  74.458  1.00  0.00    -0.106 C  
ENDBRANCH  15  18
ENDBRANCH  11  12
ENDBRANCH  10  11
ENDBRANCH   7  10
ENDBRANCH   6   7
ENDBRANCH   4   6
ENDBRANCH   2   4
TORSDOF 7
ENDMDL
MODEL      220
REMARK 921   NORMALIZED FREE ENERGY PREDICTED BY IDOCK:   -2.13 KCAL/MOL
REMARK 922        TOTAL FREE ENERGY PREDICTED BY IDOCK:   -3.84 KCAL/MOL
REMARK 923 INTER-LIGAND FREE ENERGY PREDICTED BY IDOCK:   -3.26 KCAL/MOL
REMARK 924 INTRA-LIGAND FREE ENERGY PREDICTED BY IDOCK:   -0.58 KCAL/MOL
REMARK 927      BINDING AFFINITY PREDICTED BY RF-SCORE:    0.00 PKD
ROOT
HETATM    1  C   UNL     1      -8.905  13.735  68.289  1.00  0.00    -0.185 C  
HETATM    2  C   UNL     1      -9.791  12.490  68.228  1.00  0.00    -0.227 C  
HETATM    3  C   UNL     1      -9.867  11.982  66.786  1.00  0.00    -0.218 C  
ENDROOT
BRANCH   2   4
HETATM    4  N   UNL     1      -9.222  11.485  69.127  1.00  0.00    -0.390 NA 
HETATM    5  H   UNL     1      -9.925  11.153  69.788  1.00  0.00     0.000 HD 
BRANCH   4   6
HETATM    6  C   UNL     1      -8.595  10.359  68.428  1.00  0.00    -0.128 C  
BRANCH   6   7
HETATM    7  C   UNL     1      -7.236  10.045  69.073  1.00  0.00    -0.076 C  
HETATM    8  H   UNL     1      -6.155  10.735  70.574  1.00  0.00     0.000 HD 
HETATM    9  O   UNL     1      -6.995  10.929  70.175  1.00  0.00    -0.174 OA 
BRANCH   7  10
HETATM   10  C   UNL     1      -7.169   8.589  69.535  1.00  0.00    -0.060 C  
BRANCH  10  11
HETATM   11  O   UNL     1      -8.101   7.769  68.805  1.00  0.00    -0.123 OA 
BRANCH  11  12
HETATM   12  C   UNL     1      -8.603   6.713  69.532  1.00  0.00    -0.132 A  
HETATM   13  C   UNL     1      -9.826   6.104  69.279  1.00  0.00    -0.182 A  
HETATM   14  C   UNL     1     -10.304   5.087  70.098  1.00  0.00    -0.306 A  
HETATM   15  C   UNL     1      -9.560   4.632  71.187  1.00  0.00    -0.171 A  
HETATM   16  C   UNL     1      -7.829   6.246  70.598  1.00  0.00    -0.107 A  
HETATM   17  C   UNL     1      -8.306   5.213  71.425  1.00  0.00    -0.119 A  
BRANCH  15  18
HETATM   18  N   UNL     1     -10.051   3.643  72.067  1.00  0.00    -0.161 N  
HETATM   19  H   UNL     1     -10.460   3.962  72.945  1.00  0.00     0.000 HD 
HETATM   20  C   UNL     1     -10.026   2.274  71.841  1.00  0.00    -0.149 C  
HETATM   21  O   UNL     1      -9.427   1.686  70.949  1.00  0.00    -0.106 OA 
HETATM   22  C   UNL     1     -10.814   1.488  72.853  1.00  0.00    -0.244 C  
ENDBRANCH  15  18
ENDBRANCH  11  12
ENDBRANCH  10  11
ENDBRANCH   7  10
ENDBRANCH   6   7
ENDBRANCH   4   6
ENDBRANCH   2   4
TORSDOF 7
ENDMDL
MODEL      221
REMARK 921   NORMALIZED FREE ENERGY PREDICTED BY IDOCK:   -2.12 KCAL/MOL
REMARK 922        TOTAL FREE ENERGY PREDICTED BY IDOCK:   -3.83 KCAL/MOL
REMARK 923 INTER-LIGAND FREE ENERGY PREDICTED BY IDOCK:   -3.29 KCAL/MOL
REMARK 924 INTRA-LIGAND FREE ENERGY PREDICTED BY IDOCK:   -0.54 KCAL/MOL
REMARK 927      BINDING AFFINITY PREDICTED BY RF-SCORE:    0.00 PKD
ROOT
HETATM    1  C   UNL     1      -8.398   3.884  66.647  1.00  0.00    -0.104 C  
HETATM    2  C   UNL     1      -7.547   5.150  66.532  1.00  0.00    -0.088 C  
HETATM    3  C   UNL     1      -6.833   5.413  67.860  1.00  0.00    -0.060 C  
ENDROOT
BRANCH   2   4
HETATM    4  N   UNL     1      -6.598   4.959  65.435  1.00  0.00    -0.040 NA 
HETATM    5  H   UNL     1      -5.659   4.791  65.796  1.00  0.00     0.000 HD 
BRANCH   4   6
HETATM    6  C   UNL     1      -6.990   3.902  64.497  1.00  0.00    -0.050 C  
BRANCH   6   7
HETATM    7  C   UNL     1      -7.343   4.527  63.138  1.00  0.00    -0.052 C  
HETATM    8  H   UNL     1      -8.309   3.983  61.505  1.00  0.00     0.000 HD 
HETATM    9  O   UNL     1      -8.091   3.597  62.345  1.00  0.00    -0.069 OA 
BRANCH   7  10
HETATM   10  C   UNL     1      -8.130   5.826  63.317  1.00  0.00    -0.102 C  
BRANCH  10  11
HETATM   11  O   UNL     1      -7.269   6.974  63.205  1.00  0.00    -0.063 OA 
BRANCH  11  12
HETATM   12  C   UNL     1      -7.873   8.160  63.556  1.00  0.00    -0.152 A  
HETATM   13  C   UNL     1      -8.035   9.238  62.694  1.00  0.00    -0.129 A  
HETATM   14  C   UNL     1      -8.591  10.434  63.136  1.00  0.00    -0.191 A  
HETATM   15  C   UNL     1      -9.025  10.580  64.454  1.00  0.00    -0.211 A  
HETATM   16  C   UNL     1      -8.334   8.278  64.870  1.00  0.00    -0.145 A  
HETATM   17  C   UNL     1      -8.903   9.484  65.320  1.00  0.00    -0.220 A  
BRANCH  15  18
HETATM   18  N   UNL     1      -9.536  11.803  64.940  1.00  0.00    -0.402 N  
HETATM   19  H   UNL     1      -9.171  12.140  65.830  1.00  0.00     0.000 HD 
HETATM   20  C   UNL     1     -10.494  12.586  64.312  1.00  0.00    -0.378 C  
HETATM   21  O   UNL     1     -11.179  12.276  63.344  1.00  0.00    -0.438 OA 
HETATM   22  C   UNL     1     -10.680  13.932  64.956  1.00  0.00    -0.397 C  
ENDBRANCH  15  18
ENDBRANCH  11  12
ENDBRANCH  10  11
ENDBRANCH   7  10
ENDBRANCH   6   7
ENDBRANCH   4   6
ENDBRANCH   2   4
TORSDOF 7
ENDMDL
MODEL      222
REMARK 921   NORMALIZED FREE ENERGY PREDICTED BY IDOCK:   -2.10 KCAL/MOL
REMARK 922        TOTAL FREE ENERGY PREDICTED BY IDOCK:   -3.81 KCAL/MOL
REMARK 923 INTER-LIGAND FREE ENERGY PREDICTED BY IDOCK:   -3.28 KCAL/MOL
REMARK 924 INTRA-LIGAND FREE ENERGY PREDICTED BY IDOCK:   -0.53 KCAL/MOL
REMARK 927      BINDING AFFINITY PREDICTED BY RF-SCORE:    0.00 PKD
ROOT
HETATM    1  C   UNL     1     -10.160  15.505  67.770  1.00  0.00    -0.232 C  
HETATM    2  C   UNL     1     -11.297  14.490  67.899  1.00  0.00    -0.310 C  
HETATM    3  C   UNL     1     -12.114  14.464  66.605  1.00  0.00    -0.392 C  
ENDROOT
BRANCH   2   4
HETATM    4  N   UNL     1     -10.706  13.184  68.193  1.00  0.00    -0.235 NA 
HETATM    5  H   UNL     1     -10.460  13.114  69.180  1.00  0.00     0.000 HD 
BRANCH   4   6
HETATM    6  C   UNL     1     -11.548  12.054  67.787  1.00  0.00    -0.330 C  
BRANCH   6   7
HETATM    7  C   UNL     1     -10.744  11.117  66.872  1.00  0.00    -0.274 C  
HETATM    8  H   UNL     1      -9.095  11.215  65.792  1.00  0.00     0.000 HD 
HETATM    9  O   UNL     1      -9.592  11.795  66.357  1.00  0.00    -0.207 OA 
BRANCH   7  10
HETATM   10  C   UNL     1     -10.327   9.847  67.615  1.00  0.00    -0.225 C  
BRANCH  10  11
HETATM   11  O   UNL     1      -8.920   9.588  67.450  1.00  0.00    -0.130 OA 
BRANCH  11  12
HETATM   12  C   UNL     1      -8.631   8.292  67.088  1.00  0.00    -0.123 A  
HETATM   13  C   UNL     1      -9.371   7.554  66.172  1.00  0.00    -0.128 A  
HETATM   14  C   UNL     1      -9.064   6.224  65.905  1.00  0.00    -0.086 A  
HETATM   15  C   UNL     1      -7.989   5.595  66.534  1.00  0.00    -0.101 A  
HETATM   16  C   UNL     1      -7.530   7.688  67.701  1.00  0.00    -0.104 A  
HETATM   17  C   UNL     1      -7.212   6.344  67.430  1.00  0.00    -0.082 A  
BRANCH  15  18
HETATM   18  N   UNL     1      -7.696   4.230  66.325  1.00  0.00    -0.093 N  
HETATM   19  H   UNL     1      -7.219   3.983  65.459  1.00  0.00     0.000 HD 
HETATM   20  C   UNL     1      -8.002   3.195  67.198  1.00  0.00    -0.078 C  
HETATM   21  O   UNL     1      -8.721   3.255  68.188  1.00  0.00    -0.090 OA 
HETATM   22  C   UNL     1      -7.377   1.883  66.809  1.00  0.00    -0.056 C  
ENDBRANCH  15  18
ENDBRANCH  11  12
ENDBRANCH  10  11
ENDBRANCH   7  10
ENDBRANCH   6   7
ENDBRANCH   4   6
ENDBRANCH   2   4
TORSDOF 7
ENDMDL
MODEL      223
REMARK 921   NORMALIZED FREE ENERGY PREDICTED BY IDOCK:   -2.09 KCAL/MOL
REMARK 922        TOTAL FREE ENERGY PREDICTED BY IDOCK:   -3.79 KCAL/MOL
REMARK 923 INTER-LIGAND FREE ENERGY PREDICTED BY IDOCK:   -3.64 KCAL/MOL
REMARK 924 INTRA-LIGAND FREE ENERGY PREDICTED BY IDOCK:   -0.15 KCAL/MOL
REMARK 927      BINDING AFFINITY PREDICTED BY RF-SCORE:    0.00 PKD
ROOT
HETATM    1  C   UNL     1     -11.368   5.203  73.155  1.00  0.00    -0.385 C  
HETATM    2  C   UNL     1     -11.539   5.802  71.758  1.00  0.00    -0.068 C  
HETATM    3  C   UNL     1     -12.513   6.980  71.819  1.00  0.00    -0.393 C  
ENDROOT
BRANCH   2   4
HETATM    4  N   UNL     1     -10.219   6.214  71.278  1.00  0.00    -0.202 NA 
HETATM    5  H   UNL     1      -9.500   5.990  71.966  1.00  0.00     0.000 HD 
BRANCH   4   6
HETATM    6  C   UNL     1      -9.872   5.658  69.966  1.00  0.00    -0.186 C  
BRANCH   6   7
HETATM    7  C   UNL     1      -8.756   6.500  69.330  1.00  0.00    -0.130 C  
HETATM    8  H   UNL     1      -7.546   6.360  67.777  1.00  0.00     0.000 HD 
HETATM    9  O   UNL     1      -8.236   5.839  68.170  1.00  0.00    -0.103 OA 
BRANCH   7  10
HETATM   10  C   UNL     1      -9.260   7.897  68.964  1.00  0.00    -0.147 C  
BRANCH  10  11
HETATM   11  O   UNL     1      -8.181   8.737  68.513  1.00  0.00    -0.115 OA 
BRANCH  11  12
HETATM   12  C   UNL     1      -8.557  10.034  68.250  1.00  0.00    -0.115 A  
HETATM   13  C   UNL     1      -7.664  11.079  68.042  1.00  0.00    -0.106 A  
HETATM   14  C   UNL     1      -8.113  12.381  67.851  1.00  0.00    -0.161 A  
HETATM   15  C   UNL     1      -9.477  12.675  67.841  1.00  0.00    -0.204 A  
HETATM   16  C   UNL     1      -9.927  10.306  68.208  1.00  0.00    -0.166 A  
HETATM   17  C   UNL     1     -10.387  11.621  68.009  1.00  0.00    -0.208 A  
BRANCH  15  18
HETATM   18  N   UNL     1      -9.955  13.998  67.709  1.00  0.00    -0.232 N  
HETATM   19  H   UNL     1      -9.453  14.613  67.069  1.00  0.00     0.000 HD 
HETATM   20  C   UNL     1     -11.047  14.533  68.377  1.00  0.00    -0.256 C  
HETATM   21  O   UNL     1     -11.663  14.026  69.307  1.00  0.00    -0.280 OA 
HETATM   22  C   UNL     1     -11.445  15.893  67.874  1.00  0.00    -0.187 C  
ENDBRANCH  15  18
ENDBRANCH  11  12
ENDBRANCH  10  11
ENDBRANCH   7  10
ENDBRANCH   6   7
ENDBRANCH   4   6
ENDBRANCH   2   4
TORSDOF 7
ENDMDL
MODEL      224
REMARK 921   NORMALIZED FREE ENERGY PREDICTED BY IDOCK:   -2.03 KCAL/MOL
REMARK 922        TOTAL FREE ENERGY PREDICTED BY IDOCK:   -3.70 KCAL/MOL
REMARK 923 INTER-LIGAND FREE ENERGY PREDICTED BY IDOCK:   -3.62 KCAL/MOL
REMARK 924 INTRA-LIGAND FREE ENERGY PREDICTED BY IDOCK:   -0.09 KCAL/MOL
REMARK 927      BINDING AFFINITY PREDICTED BY RF-SCORE:    0.00 PKD
ROOT
HETATM    1  C   UNL     1      -9.484  14.687  67.864  1.00  0.00    -0.210 C  
HETATM    2  C   UNL     1     -10.578  13.619  67.871  1.00  0.00    -0.249 C  
HETATM    3  C   UNL     1     -11.340  13.653  66.545  1.00  0.00    -0.335 C  
ENDROOT
BRANCH   2   4
HETATM    4  N   UNL     1      -9.941  12.320  68.097  1.00  0.00    -0.206 NA 
HETATM    5  H   UNL     1     -10.228  11.930  68.994  1.00  0.00     0.000 HD 
BRANCH   4   6
HETATM    6  C   UNL     1     -10.170  11.358  67.015  1.00  0.00    -0.213 C  
BRANCH   6   7
HETATM    7  C   UNL     1      -8.858  11.121  66.252  1.00  0.00    -0.185 C  
HETATM    8  H   UNL     1      -6.971  11.678  66.413  1.00  0.00     0.000 HD 
HETATM    9  O   UNL     1      -7.782  11.825  66.885  1.00  0.00    -0.156 OA 
BRANCH   7  10
HETATM   10  C   UNL     1      -8.535   9.628  66.162  1.00  0.00    -0.120 C  
BRANCH  10  11
HETATM   11  O   UNL     1      -9.739   8.838  66.127  1.00  0.00    -0.258 OA 
BRANCH  11  12
HETATM   12  C   UNL     1      -9.666   7.679  66.865  1.00  0.00    -0.213 A  
HETATM   13  C   UNL     1      -8.566   6.830  66.877  1.00  0.00    -0.116 A  
HETATM   14  C   UNL     1      -8.588   5.637  67.591  1.00  0.00    -0.108 A  
HETATM   15  C   UNL     1      -9.708   5.266  68.335  1.00  0.00    -0.141 A  
HETATM   16  C   UNL     1     -10.784   7.339  67.633  1.00  0.00    -0.294 A  
HETATM   17  C   UNL     1     -10.807   6.135  68.361  1.00  0.00    -0.382 A  
BRANCH  15  18
HETATM   18  N   UNL     1      -9.775   4.031  69.018  1.00  0.00    -0.145 N  
HETATM   19  H   UNL     1     -10.702   3.689  69.271  1.00  0.00     0.000 HD 
HETATM   20  C   UNL     1      -8.690   3.244  69.375  1.00  0.00    -0.079 C  
HETATM   21  O   UNL     1      -7.506   3.556  69.326  1.00  0.00    -0.051 OA 
HETATM   22  C   UNL     1      -9.082   1.889  69.896  1.00  0.00    -0.159 C  
ENDBRANCH  15  18
ENDBRANCH  11  12
ENDBRANCH  10  11
ENDBRANCH   7  10
ENDBRANCH   6   7
ENDBRANCH   4   6
ENDBRANCH   2   4
TORSDOF 7
ENDMDL
MODEL      225
REMARK 921   NORMALIZED FREE ENERGY PREDICTED BY IDOCK:   -1.95 KCAL/MOL
REMARK 922        TOTAL FREE ENERGY PREDICTED BY IDOCK:   -3.59 KCAL/MOL
REMARK 923 INTER-LIGAND FREE ENERGY PREDICTED BY IDOCK:   -3.18 KCAL/MOL
REMARK 924 INTRA-LIGAND FREE ENERGY PREDICTED BY IDOCK:   -0.41 KCAL/MOL
REMARK 927      BINDING AFFINITY PREDICTED BY RF-SCORE:    0.00 PKD
ROOT
HETATM    1  C   UNL     1     -12.725  10.668  71.262  1.00  0.00    -0.537 C  
HETATM    2  C   UNL     1     -12.372  11.845  70.351  1.00  0.00    -0.251 C  
HETATM    3  C   UNL     1     -12.636  13.162  71.084  1.00  0.00    -0.403 C  
ENDROOT
BRANCH   2   4
HETATM    4  N   UNL     1     -10.967  11.712  69.963  1.00  0.00    -0.408 NA 
HETATM    5  H   UNL     1     -10.354  11.960  70.740  1.00  0.00     0.000 HD 
BRANCH   4   6
HETATM    6  C   UNL     1     -10.626  10.387  69.437  1.00  0.00    -0.239 C  
BRANCH   6   7
HETATM    7  C   UNL     1      -9.324  10.475  68.625  1.00  0.00    -0.172 C  
HETATM    8  H   UNL     1      -7.512   9.698  68.712  1.00  0.00     0.000 HD 
HETATM    9  O   UNL     1      -8.317   9.643  69.213  1.00  0.00    -0.118 OA 
BRANCH   7  10
HETATM   10  C   UNL     1      -9.556  10.078  67.167  1.00  0.00    -0.165 C  
BRANCH  10  11
HETATM   11  O   UNL     1      -8.307   9.908  66.470  1.00  0.00    -0.123 OA 
BRANCH  11  12
HETATM   12  C   UNL     1      -8.038   8.605  66.119  1.00  0.00    -0.108 A  
HETATM   13  C   UNL     1      -8.949   7.562  66.233  1.00  0.00    -0.199 A  
HETATM   14  C   UNL     1      -8.587   6.255  65.926  1.00  0.00    -0.150 A  
HETATM   15  C   UNL     1      -7.303   5.954  65.472  1.00  0.00    -0.076 A  
HETATM   16  C   UNL     1      -6.758   8.326  65.632  1.00  0.00    -0.052 A  
HETATM   17  C   UNL     1      -6.389   7.006  65.314  1.00  0.00    -0.037 A  
BRANCH  15  18
HETATM   18  N   UNL     1      -6.894   4.628  65.212  1.00  0.00    -0.059 N  
HETATM   19  H   UNL     1      -7.056   4.266  64.273  1.00  0.00     0.000 HD 
HETATM   20  C   UNL     1      -6.292   3.773  66.125  1.00  0.00    -0.033 C  
HETATM   21  O   UNL     1      -6.177   3.949  67.332  1.00  0.00    -0.034 OA 
HETATM   22  C   UNL     1      -5.775   2.505  65.504  1.00  0.00    -0.018 C  
ENDBRANCH  15  18
ENDBRANCH  11  12
ENDBRANCH  10  11
ENDBRANCH   7  10
ENDBRANCH   6   7
ENDBRANCH   4   6
ENDBRANCH   2   4
TORSDOF 7
ENDMDL
MODEL      226
REMARK 921   NORMALIZED FREE ENERGY PREDICTED BY IDOCK:   -1.79 KCAL/MOL
REMARK 922        TOTAL FREE ENERGY PREDICTED BY IDOCK:   -3.37 KCAL/MOL
REMARK 923 INTER-LIGAND FREE ENERGY PREDICTED BY IDOCK:   -2.96 KCAL/MOL
REMARK 924 INTRA-LIGAND FREE ENERGY PREDICTED BY IDOCK:   -0.41 KCAL/MOL
REMARK 927      BINDING AFFINITY PREDICTED BY RF-SCORE:    0.00 PKD
ROOT
HETATM    1  C   UNL     1     -13.204   9.411  71.349  1.00  0.00    -0.415 C  
HETATM    2  C   UNL     1     -12.711  10.208  70.140  1.00  0.00     0.044 C  
HETATM    3  C   UNL     1     -12.760  11.705  70.455  1.00  0.00    -0.157 C  
ENDROOT
BRANCH   2   4
HETATM    4  N   UNL     1     -11.352   9.763  69.828  1.00  0.00    -0.383 NA 
HETATM    5  H   UNL     1     -10.668  10.456  70.130  1.00  0.00     0.000 HD 
BRANCH   4   6
HETATM    6  C   UNL     1     -11.028   8.441  70.373  1.00  0.00    -0.239 C  
BRANCH   6   7
HETATM    7  C   UNL     1      -9.611   8.039  69.937  1.00  0.00    -0.171 C  
HETATM    8  H   UNL     1      -8.737   7.374  68.297  1.00  0.00     0.000 HD 
HETATM    9  O   UNL     1      -9.613   7.622  68.566  1.00  0.00    -0.146 OA 
BRANCH   7  10
HETATM   10  C   UNL     1      -8.624   9.190  70.141  1.00  0.00    -0.182 C  
BRANCH  10  11
HETATM   11  O   UNL     1      -7.850   9.427  68.950  1.00  0.00    -0.081 OA 
BRANCH  11  12
HETATM   12  C   UNL     1      -8.057  10.667  68.389  1.00  0.00    -0.123 A  
HETATM   13  C   UNL     1      -8.608  11.747  69.067  1.00  0.00     0.228 A  
HETATM   14  C   UNL     1      -8.855  12.952  68.418  1.00  0.00    -0.120 A  
HETATM   15  C   UNL     1      -8.535  13.120  67.070  1.00  0.00    -0.132 A  
HETATM   16  C   UNL     1      -7.698  10.829  67.048  1.00  0.00    -0.121 A  
HETATM   17  C   UNL     1      -7.940  12.049  66.389  1.00  0.00     0.196 A  
BRANCH  15  18
HETATM   18  N   UNL     1      -8.831  14.313  66.375  1.00  0.00    -0.476 N  
HETATM   19  H   UNL     1      -9.097  14.228  65.395  1.00  0.00     0.000 HD 
HETATM   20  C   UNL     1      -8.792  15.593  66.911  1.00  0.00    -0.250 C  
HETATM   21  O   UNL     1      -8.331  15.922  67.998  1.00  0.00    -0.157 OA 
HETATM   22  C   UNL     1      -9.365  16.640  65.997  1.00  0.00    -0.270 C  
ENDBRANCH  15  18
ENDBRANCH  11  12
ENDBRANCH  10  11
ENDBRANCH   7  10
ENDBRANCH   6   7
ENDBRANCH   4   6
ENDBRANCH   2   4
TORSDOF 7
ENDMDL
MODEL      227
REMARK 921   NORMALIZED FREE ENERGY PREDICTED BY IDOCK:   -1.35 KCAL/MOL
REMARK 922        TOTAL FREE ENERGY PREDICTED BY IDOCK:   -2.74 KCAL/MOL
REMARK 923 INTER-LIGAND FREE ENERGY PREDICTED BY IDOCK:   -2.62 KCAL/MOL
REMARK 924 INTRA-LIGAND FREE ENERGY PREDICTED BY IDOCK:   -0.13 KCAL/MOL
REMARK 927      BINDING AFFINITY PREDICTED BY RF-SCORE:    0.00 PKD
ROOT
HETATM    1  C   UNL     1      -9.980  15.490  67.781  1.00  0.00    -0.222 C  
HETATM    2  C   UNL     1     -10.888  14.259  67.773  1.00  0.00    -0.253 C  
HETATM    3  C   UNL     1     -11.708  14.233  66.481  1.00  0.00    -0.409 C  
ENDROOT
BRANCH   2   4
HETATM    4  N   UNL     1     -10.043  13.072  67.904  1.00  0.00    -0.229 NA 
HETATM    5  H   UNL     1     -10.600  12.222  67.818  1.00  0.00     0.000 HD 
BRANCH   4   6
HETATM    6  C   UNL     1      -8.915  13.049  66.967  1.00  0.00    -0.225 C  
BRANCH   6   7
HETATM    7  C   UNL     1      -7.600  12.910  67.751  1.00  0.00    -0.141 C  
HETATM    8  H   UNL     1      -7.032  12.953  69.640  1.00  0.00     0.000 HD 
HETATM    9  O   UNL     1      -7.844  13.039  69.156  1.00  0.00     0.163 OA 
BRANCH   7  10
HETATM   10  C   UNL     1      -6.919  11.573  67.450  1.00  0.00    -0.111 C  
BRANCH  10  11
HETATM   11  O   UNL     1      -7.153  11.166  66.089  1.00  0.00    -0.097 OA 
BRANCH  11  12
HETATM   12  C   UNL     1      -7.539   9.851  65.960  1.00  0.00    -0.106 A  
HETATM   13  C   UNL     1      -7.048   8.813  66.742  1.00  0.00    -0.081 A  
HETATM   14  C   UNL     1      -7.429   7.496  66.509  1.00  0.00    -0.084 A  
HETATM   15  C   UNL     1      -8.335   7.179  65.497  1.00  0.00    -0.129 A  
HETATM   16  C   UNL     1      -8.474   9.555  64.964  1.00  0.00    -0.165 A  
HETATM   17  C   UNL     1      -8.868   8.224  64.730  1.00  0.00     0.134 A  
BRANCH  15  18
HETATM   18  N   UNL     1      -8.690   5.844  65.204  1.00  0.00    -0.310 N  
HETATM   19  H   UNL     1      -8.983   5.639  64.249  1.00  0.00     0.000 HD 
HETATM   20  C   UNL     1      -8.675   4.787  66.102  1.00  0.00    -0.116 C  
HETATM   21  O   UNL     1      -8.532   4.855  67.317  1.00  0.00    -0.106 OA 
HETATM   22  C   UNL     1      -8.893   3.448  65.452  1.00  0.00    -0.132 C  
ENDBRANCH  15  18
ENDBRANCH  11  12
ENDBRANCH  10  11
ENDBRANCH   7  10
ENDBRANCH   6   7
ENDBRANCH   4   6
ENDBRANCH   2   4
TORSDOF 7
ENDMDL
MODEL      228
REMARK 921   NORMALIZED FREE ENERGY PREDICTED BY IDOCK:   -1.09 KCAL/MOL
REMARK 922        TOTAL FREE ENERGY PREDICTED BY IDOCK:   -2.38 KCAL/MOL
REMARK 923 INTER-LIGAND FREE ENERGY PREDICTED BY IDOCK:   -3.11 KCAL/MOL
REMARK 924 INTRA-LIGAND FREE ENERGY PREDICTED BY IDOCK:    0.73 KCAL/MOL
REMARK 927      BINDING AFFINITY PREDICTED BY RF-SCORE:    0.00 PKD
ROOT
HETATM    1  C   UNL     1      -9.706  14.594  67.706  1.00  0.00    -0.215 C  
HETATM    2  C   UNL     1      -8.323  14.540  67.054  1.00  0.00    -0.167 C  
HETATM    3  C   UNL     1      -7.247  14.443  68.138  1.00  0.00    -0.129 C  
ENDROOT
BRANCH   2   4
HETATM    4  N   UNL     1      -8.292  13.386  66.154  1.00  0.00     0.298 NA 
HETATM    5  H   UNL     1      -7.349  13.235  65.796  1.00  0.00     0.000 HD 
BRANCH   4   6
HETATM    6  C   UNL     1      -8.822  12.158  66.755  1.00  0.00    -0.198 C  
BRANCH   6   7
HETATM    7  C   UNL     1     -10.356  12.163  66.665  1.00  0.00    -0.208 C  
HETATM    8  H   UNL     1     -11.720  12.277  65.243  1.00  0.00     0.000 HD 
HETATM    9  O   UNL     1     -10.772  12.274  65.298  1.00  0.00    -0.275 OA 
BRANCH   7  10
HETATM   10  C   UNL     1     -10.949  10.904  67.300  1.00  0.00    -0.294 C  
BRANCH  10  11
HETATM   11  O   UNL     1     -10.879  10.966  68.737  1.00  0.00    -0.180 OA 
BRANCH  11  12
HETATM   12  C   UNL     1     -10.494   9.784  69.328  1.00  0.00    -0.219 A  
HETATM   13  C   UNL     1      -9.408   9.023  68.912  1.00  0.00    -0.143 A  
HETATM   14  C   UNL     1      -9.117   7.801  69.510  1.00  0.00    -0.146 A  
HETATM   15  C   UNL     1      -9.894   7.313  70.561  1.00  0.00    -0.183 A  
HETATM   16  C   UNL     1     -11.261   9.326  70.402  1.00  0.00    -0.290 A  
HETATM   17  C   UNL     1     -10.967   8.094  71.014  1.00  0.00    -0.273 A  
BRANCH  15  18
HETATM   18  N   UNL     1      -9.654   6.049  71.142  1.00  0.00    -0.171 N  
HETATM   19  H   UNL     1     -10.441   5.590  71.600  1.00  0.00     0.000 HD 
HETATM   20  C   UNL     1      -8.440   5.376  71.144  1.00  0.00    -0.125 C  
HETATM   21  O   UNL     1      -7.349   5.826  70.813  1.00  0.00    -0.079 OA 
HETATM   22  C   UNL     1      -8.542   3.962  71.645  1.00  0.00    -0.116 C  
ENDBRANCH  15  18
ENDBRANCH  11  12
ENDBRANCH  10  11
ENDBRANCH   7  10
ENDBRANCH   6   7
ENDBRANCH   4   6
ENDBRANCH   2   4
TORSDOF 7
ENDMDL
MODEL      229
REMARK 921   NORMALIZED FREE ENERGY PREDICTED BY IDOCK:   -0.67 KCAL/MOL
REMARK 922        TOTAL FREE ENERGY PREDICTED BY IDOCK:   -1.78 KCAL/MOL
REMARK 923 INTER-LIGAND FREE ENERGY PREDICTED BY IDOCK:   -1.82 KCAL/MOL
REMARK 924 INTRA-LIGAND FREE ENERGY PREDICTED BY IDOCK:    0.04 KCAL/MOL
REMARK 927      BINDING AFFINITY PREDICTED BY RF-SCORE:    0.00 PKD
ROOT
HETATM    1  C   UNL     1      -9.806  13.570  67.104  1.00  0.00    -0.245 C  
HETATM    2  C   UNL     1     -10.348  14.918  66.625  1.00  0.00    -0.283 C  
HETATM    3  C   UNL     1     -11.706  14.717  65.950  1.00  0.00    -0.301 C  
ENDROOT
BRANCH   2   4
HETATM    4  N   UNL     1     -10.445  15.805  67.785  1.00  0.00    -0.276 NA 
HETATM    5  H   UNL     1     -10.120  16.742  67.550  1.00  0.00     0.000 HD 
BRANCH   4   6
HETATM    6  C   UNL     1     -11.786  15.854  68.375  1.00  0.00    -0.121 C  
BRANCH   6   7
HETATM    7  C   UNL     1     -11.696  15.570  69.883  1.00  0.00    -0.352 C  
HETATM    8  H   UNL     1     -12.952  15.289  71.379  1.00  0.00     0.000 HD 
HETATM    9  O   UNL     1     -13.008  15.464  70.447  1.00  0.00    -0.367 OA 
BRANCH   7  10
HETATM   10  C   UNL     1     -10.895  14.296  70.156  1.00  0.00     0.228 C  
BRANCH  10  11
HETATM   11  O   UNL     1     -11.757  13.221  70.576  1.00  0.00    -0.194 OA 
BRANCH  11  12
HETATM   12  C   UNL     1     -11.399  11.991  70.073  1.00  0.00     0.029 A  
HETATM   13  C   UNL     1     -10.095  11.626  69.761  1.00  0.00     0.942 A  
HETATM   14  C   UNL     1      -9.813  10.390  69.189  1.00  0.00    -0.237 A  
HETATM   15  C   UNL     1     -10.829   9.468  68.933  1.00  0.00    -0.150 A  
HETATM   16  C   UNL     1     -12.424  11.067  69.856  1.00  0.00    -0.286 A  
HETATM   17  C   UNL     1     -12.143   9.812  69.283  1.00  0.00     0.643 A  
BRANCH  15  18
HETATM   18  N   UNL     1     -10.574   8.233  68.299  1.00  0.00    -0.387 N  
HETATM   19  H   UNL     1     -11.227   7.471  68.483  1.00  0.00     0.000 HD 
HETATM   20  C   UNL     1      -9.513   7.965  67.446  1.00  0.00    -0.144 C  
HETATM   21  O   UNL     1      -8.535   8.675  67.242  1.00  0.00    -0.114 OA 
HETATM   22  C   UNL     1      -9.624   6.634  66.756  1.00  0.00    -0.207 C  
ENDBRANCH  15  18
ENDBRANCH  11  12
ENDBRANCH  10  11
ENDBRANCH   7  10
ENDBRANCH   6   7
ENDBRANCH   4   6
ENDBRANCH   2   4
TORSDOF 7
ENDMDL
MODEL      230
REMARK 921   NORMALIZED FREE ENERGY PREDICTED BY IDOCK:   -0.61 KCAL/MOL
REMARK 922        TOTAL FREE ENERGY PREDICTED BY IDOCK:   -1.70 KCAL/MOL
REMARK 923 INTER-LIGAND FREE ENERGY PREDICTED BY IDOCK:   -1.62 KCAL/MOL
REMARK 924 INTRA-LIGAND FREE ENERGY PREDICTED BY IDOCK:   -0.08 KCAL/MOL
REMARK 927      BINDING AFFINITY PREDICTED BY RF-SCORE:    0.00 PKD
ROOT
HETATM    1  C   UNL     1     -11.139   6.704  66.823  1.00  0.00    -0.193 C  
HETATM    2  C   UNL     1     -10.617   5.278  66.643  1.00  0.00    -0.270 C  
HETATM    3  C   UNL     1     -10.816   4.837  65.191  1.00  0.00     0.072 C  
ENDROOT
BRANCH   2   4
HETATM    4  N   UNL     1      -9.205   5.261  67.026  1.00  0.00    -0.115 NA 
HETATM    5  H   UNL     1      -8.609   5.414  66.213  1.00  0.00     0.000 HD 
BRANCH   4   6
HETATM    6  C   UNL     1      -8.876   6.208  68.097  1.00  0.00    -0.112 C  
BRANCH   6   7
HETATM    7  C   UNL     1      -8.876   5.475  69.448  1.00  0.00    -0.106 C  
HETATM    8  H   UNL     1      -7.544   4.627  70.632  1.00  0.00     0.000 HD 
HETATM    9  O   UNL     1      -7.544   5.080  69.797  1.00  0.00    -0.059 OA 
BRANCH   7  10
HETATM   10  C   UNL     1      -9.475   6.352  70.549  1.00  0.00    -0.162 C  
BRANCH  10  11
HETATM   11  O   UNL     1      -8.446   6.901  71.393  1.00  0.00    -0.118 OA 
BRANCH  11  12
HETATM   12  C   UNL     1      -7.996   8.138  70.990  1.00  0.00    -0.095 A  
HETATM   13  C   UNL     1      -8.825   9.169  70.565  1.00  0.00    -0.263 A  
HETATM   14  C   UNL     1      -8.298  10.370  70.104  1.00  0.00     0.375 A  
HETATM   15  C   UNL     1      -6.920  10.586  70.075  1.00  0.00    -0.146 A  
HETATM   16  C   UNL     1      -6.614   8.350  71.001  1.00  0.00    -0.043 A  
HETATM   17  C   UNL     1      -6.077   9.566  70.541  1.00  0.00    -0.065 A  
BRANCH  15  18
HETATM   18  N   UNL     1      -6.360  11.773  69.555  1.00  0.00    -0.111 N  
HETATM   19  H   UNL     1      -5.355  11.903  69.668  1.00  0.00     0.000 HD 
HETATM   20  C   UNL     1      -7.059  12.779  68.904  1.00  0.00    -0.067 C  
HETATM   21  O   UNL     1      -8.276  12.899  68.827  1.00  0.00    -0.035 OA 
HETATM   22  C   UNL     1      -6.168  13.813  68.273  1.00  0.00    -0.110 C  
ENDBRANCH  15  18
ENDBRANCH  11  12
ENDBRANCH  10  11
ENDBRANCH   7  10
ENDBRANCH   6   7
ENDBRANCH   4   6
ENDBRANCH   2   4
TORSDOF 7
ENDMDL
MODEL      231
REMARK 921   NORMALIZED FREE ENERGY PREDICTED BY IDOCK:   -0.44 KCAL/MOL
REMARK 922        TOTAL FREE ENERGY PREDICTED BY IDOCK:   -1.46 KCAL/MOL
REMARK 923 INTER-LIGAND FREE ENERGY PREDICTED BY IDOCK:   -1.11 KCAL/MOL
REMARK 924 INTRA-LIGAND FREE ENERGY PREDICTED BY IDOCK:   -0.35 KCAL/MOL
REMARK 927      BINDING AFFINITY PREDICTED BY RF-SCORE:    0.00 PKD
ROOT
HETATM    1  C   UNL     1      -5.592  10.970  69.821  1.00  0.00    -0.052 C  
HETATM    2  C   UNL     1      -6.053   9.697  70.532  1.00  0.00    -0.072 C  
HETATM    3  C   UNL     1      -7.074  10.052  71.615  1.00  0.00     1.328 C  
ENDROOT
BRANCH   2   4
HETATM    4  N   UNL     1      -6.620   8.797  69.526  1.00  0.00    -0.043 NA 
HETATM    5  H   UNL     1      -7.343   9.272  68.985  1.00  0.00     0.000 HD 
BRANCH   4   6
HETATM    6  C   UNL     1      -5.616   8.201  68.640  1.00  0.00    -0.036 C  
BRANCH   6   7
HETATM    7  C   UNL     1      -6.284   7.149  67.741  1.00  0.00    -0.042 C  
HETATM    8  H   UNL     1      -5.734   5.525  66.763  1.00  0.00     0.000 HD 
HETATM    9  O   UNL     1      -5.321   6.175  67.318  1.00  0.00    -0.005 OA 
BRANCH   7  10
HETATM   10  C   UNL     1      -7.447   6.467  68.462  1.00  0.00    -0.088 C  
BRANCH  10  11
HETATM   11  O   UNL     1      -8.628   6.446  67.639  1.00  0.00    -0.116 OA 
BRANCH  11  12
HETATM   12  C   UNL     1      -8.984   7.679  67.142  1.00  0.00    -0.126 A  
HETATM   13  C   UNL     1      -8.597   8.160  65.897  1.00  0.00    -0.171 A  
HETATM   14  C   UNL     1      -8.933   9.445  65.487  1.00  0.00    -0.248 A  
HETATM   15  C   UNL     1      -9.690  10.284  66.305  1.00  0.00    -0.209 A  
HETATM   16  C   UNL     1      -9.772   8.494  67.960  1.00  0.00    -0.180 A  
HETATM   17  C   UNL     1     -10.120   9.793  67.546  1.00  0.00    -0.246 A  
BRANCH  15  18
HETATM   18  N   UNL     1      -9.992  11.614  65.936  1.00  0.00    -0.223 N  
HETATM   19  H   UNL     1      -9.416  12.352  66.340  1.00  0.00     0.000 HD 
HETATM   20  C   UNL     1     -11.005  12.002  65.071  1.00  0.00    -0.306 C  
HETATM   21  O   UNL     1     -11.907  11.300  64.630  1.00  0.00     0.115 OA 
HETATM   22  C   UNL     1     -10.947  13.459  64.701  1.00  0.00    -0.388 C  
ENDBRANCH  15  18
ENDBRANCH  11  12
ENDBRANCH  10  11
ENDBRANCH   7  10
ENDBRANCH   6   7
ENDBRANCH   4   6
ENDBRANCH   2   4
TORSDOF 7
ENDMDL
MODEL      232
REMARK 921   NORMALIZED FREE ENERGY PREDICTED BY IDOCK:    4.52 KCAL/MOL
REMARK 922        TOTAL FREE ENERGY PREDICTED BY IDOCK:    5.53 KCAL/MOL
REMARK 923 INTER-LIGAND FREE ENERGY PREDICTED BY IDOCK:    3.42 KCAL/MOL
REMARK 924 INTRA-LIGAND FREE ENERGY PREDICTED BY IDOCK:    2.12 KCAL/MOL
REMARK 927      BINDING AFFINITY PREDICTED BY RF-SCORE:    0.00 PKD
ROOT
HETATM    1  C   UNL     1     -12.517  11.544  63.550  1.00  0.00    -0.128 C  
HETATM    2  C   UNL     1     -12.199  12.214  64.888  1.00  0.00    -0.232 C  
HETATM    3  C   UNL     1     -11.227  11.339  65.683  1.00  0.00    -0.074 C  
ENDROOT
BRANCH   2   4
HETATM    4  N   UNL     1     -11.636  13.536  64.610  1.00  0.00    -0.353 NA 
HETATM    5  H   UNL     1     -11.058  13.852  65.388  1.00  0.00     0.000 HD 
BRANCH   4   6
HETATM    6  C   UNL     1     -10.890  13.602  63.349  1.00  0.00     1.353 C  
BRANCH   6   7
HETATM    7  C   UNL     1      -9.502  12.972  63.540  1.00  0.00     2.326 C  
HETATM    8  H   UNL     1      -8.136  12.886  64.962  1.00  0.00     0.000 HD 
HETATM    9  O   UNL     1      -8.994  13.276  64.845  1.00  0.00     1.229 OA 
BRANCH   7  10
HETATM   10  C   UNL     1      -9.551  11.458  63.328  1.00  0.00    -0.357 C  
BRANCH  10  11
HETATM   11  O   UNL     1      -8.442  11.010  62.526  1.00  0.00    -0.246 OA 
BRANCH  11  12
HETATM   12  C   UNL     1      -7.989   9.752  62.853  1.00  0.00    -0.132 A  
HETATM   13  C   UNL     1      -6.673   9.459  63.187  1.00  0.00    -0.099 A  
HETATM   14  C   UNL     1      -6.269   8.152  63.439  1.00  0.00    -0.072 A  
HETATM   15  C   UNL     1      -7.180   7.097  63.385  1.00  0.00    -0.075 A  
HETATM   16  C   UNL     1      -8.922   8.711  62.829  1.00  0.00     0.287 A  
HETATM   17  C   UNL     1      -8.519   7.388  63.089  1.00  0.00     0.274 A  
BRANCH  15  18
HETATM   18  N   UNL     1      -6.781   5.756  63.577  1.00  0.00    -0.036 N  
HETATM   19  H   UNL     1      -5.916   5.458  63.128  1.00  0.00     0.000 HD 
HETATM   20  C   UNL     1      -7.466   4.808  64.324  1.00  0.00    -0.067 C  
HETATM   21  O   UNL     1      -8.596   4.910  64.785  1.00  0.00    -0.139 OA 
HETATM   22  C   UNL     1      -6.691   3.534  64.525  1.00  0.00    -0.043 C  
ENDBRANCH  15  18
ENDBRANCH  11  12
ENDBRANCH  10  11
ENDBRANCH   7  10
ENDBRANCH   6   7
ENDBRANCH   4   6
ENDBRANCH   2   4
TORSDOF 7
ENDMDL
MODEL      233
REMARK 921   NORMALIZED FREE ENERGY PREDICTED BY IDOCK:    8.22 KCAL/MOL
REMARK 922        TOTAL FREE ENERGY PREDICTED BY IDOCK:   10.75 KCAL/MOL
REMARK 923 INTER-LIGAND FREE ENERGY PREDICTED BY IDOCK:   -2.85 KCAL/MOL
REMARK 924 INTRA-LIGAND FREE ENERGY PREDICTED BY IDOCK:   13.60 KCAL/MOL
REMARK 927      BINDING AFFINITY PREDICTED BY RF-SCORE:    0.00 PKD
ROOT
HETATM    1  C   UNL     1      -9.144  15.026  67.455  1.00  0.00    -0.194 C  
HETATM    2  C   UNL     1      -7.653  14.749  67.651  1.00  0.00    -0.174 C  
HETATM    3  C   UNL     1      -6.841  15.556  66.636  1.00  0.00     0.842 C  
ENDROOT
BRANCH   2   4
HETATM    4  N   UNL     1      -7.305  15.102  69.028  1.00  0.00    -0.142 NA 
HETATM    5  H   UNL     1      -6.711  14.385  69.445  1.00  0.00     0.000 HD 
BRANCH   4   6
HETATM    6  C   UNL     1      -6.686  16.425  69.155  1.00  0.00    -0.205 C  
BRANCH   6   7
HETATM    7  C   UNL     1      -7.688  17.505  68.718  1.00  0.00    -0.252 C  
HETATM    8  H   UNL     1      -7.746  19.476  68.639  1.00  0.00     0.000 HD 
HETATM    9  O   UNL     1      -7.126  18.809  68.909  1.00  0.00    -0.292 OA 
BRANCH   7  10
HETATM   10  C   UNL     1      -8.102  17.313  67.258  1.00  0.00    -0.192 C  
BRANCH  10  11
HETATM   11  O   UNL     1      -9.534  17.348  67.115  1.00  0.00    -0.248 OA 
BRANCH  11  12
HETATM   12  C   UNL     1     -10.215  16.816  68.186  1.00  0.00    -0.301 A  
HETATM   13  C   UNL     1     -10.212  17.365  69.463  1.00  0.00    -0.014 A  
HETATM   14  C   UNL     1     -10.864  16.735  70.517  1.00  0.00     0.254 A  
HETATM   15  C   UNL     1     -11.561  15.542  70.320  1.00  0.00    -0.335 A  
HETATM   16  C   UNL     1     -10.936  15.640  67.964  1.00  0.00    -0.318 A  
HETATM   17  C   UNL     1     -11.603  15.002  69.026  1.00  0.00    -0.342 A  
BRANCH  15  18
HETATM   18  N   UNL     1     -12.179  14.854  71.386  1.00  0.00    -0.313 N  
HETATM   19  H   UNL     1     -12.611  13.955  71.173  1.00  0.00     0.000 HD 
HETATM   20  C   UNL     1     -12.250  15.294  72.700  1.00  0.00    -0.403 C  
HETATM   21  O   UNL     1     -11.959  16.408  73.120  1.00  0.00    -0.509 OA 
HETATM   22  C   UNL     1     -12.776  14.254  73.650  1.00  0.00     0.288 C  
ENDBRANCH  15  18
ENDBRANCH  11  12
ENDBRANCH  10  11
ENDBRANCH   7  10
ENDBRANCH   6   7
ENDBRANCH   4   6
ENDBRANCH   2   4
TORSDOF 7
ENDMDL
MODEL      234
REMARK 921   NORMALIZED FREE ENERGY PREDICTED BY IDOCK:   11.23 KCAL/MOL
REMARK 922        TOTAL FREE ENERGY PREDICTED BY IDOCK:   14.99 KCAL/MOL
REMARK 923 INTER-LIGAND FREE ENERGY PREDICTED BY IDOCK:    5.79 KCAL/MOL
REMARK 924 INTRA-LIGAND FREE ENERGY PREDICTED BY IDOCK:    9.20 KCAL/MOL
REMARK 927      BINDING AFFINITY PREDICTED BY RF-SCORE:    0.00 PKD
ROOT
HETATM    1  C   UNL     1      -8.174  13.360  68.859  1.00  0.00     0.177 C  
HETATM    2  C   UNL     1      -9.396  14.002  69.517  1.00  0.00     0.750 C  
HETATM    3  C   UNL     1     -10.339  14.540  68.438  1.00  0.00    -0.241 C  
ENDROOT
BRANCH   2   4
HETATM    4  N   UNL     1     -10.046  12.990  70.350  1.00  0.00     2.650 NA 
HETATM    5  H   UNL     1     -10.920  13.348  70.734  1.00  0.00     0.000 HD 
BRANCH   4   6
HETATM    6  C   UNL     1     -10.265  11.715  69.660  1.00  0.00     0.616 C  
BRANCH   6   7
HETATM    7  C   UNL     1     -11.390  11.878  68.625  1.00  0.00    -0.276 C  
HETATM    8  H   UNL     1     -12.658  13.288  68.078  1.00  0.00     0.000 HD 
HETATM    9  O   UNL     1     -11.963  13.188  68.718  1.00  0.00    -0.318 OA 
BRANCH   7  10
HETATM   10  C   UNL     1     -10.876  11.621  67.208  1.00  0.00    -0.256 C  
BRANCH  10  11
HETATM   11  O   UNL     1     -11.745  12.214  66.225  1.00  0.00    -0.473 OA 
BRANCH  11  12
HETATM   12  C   UNL     1     -11.712  13.590  66.210  1.00  0.00    -0.367 A  
HETATM   13  C   UNL     1     -12.459  14.398  67.059  1.00  0.00     0.053 A  
HETATM   14  C   UNL     1     -12.431  15.783  66.942  1.00  0.00     1.867 A  
HETATM   15  C   UNL     1     -11.635  16.406  65.981  1.00  0.00     0.935 A  
HETATM   16  C   UNL     1     -10.883  14.199  65.264  1.00  0.00    -0.356 A  
HETATM   17  C   UNL     1     -10.847  15.601  65.146  1.00  0.00    -0.448 A  
BRANCH  15  18
HETATM   18  N   UNL     1     -11.637  17.807  65.803  1.00  0.00     1.694 N  
HETATM   19  H   UNL     1     -12.371  18.201  65.215  1.00  0.00     0.000 HD 
HETATM   20  C   UNL     1     -10.726  18.694  66.359  1.00  0.00    -0.224 C  
HETATM   21  O   UNL     1      -9.682  18.413  66.936  1.00  0.00    -0.295 OA 
HETATM   22  C   UNL     1     -11.108  20.137  66.171  1.00  0.00     0.299 C  
ENDBRANCH  15  18
ENDBRANCH  11  12
ENDBRANCH  10  11
ENDBRANCH   7  10
ENDBRANCH   6   7
ENDBRANCH   4   6
ENDBRANCH   2   4
TORSDOF 7
ENDMDL
