MODEL        1
REMARK 921   NORMALIZED FREE ENERGY PREDICTED BY IDOCK:   -7.67 KCAL/MOL
REMARK 922        TOTAL FREE ENERGY PREDICTED BY IDOCK:  -11.77 KCAL/MOL
REMARK 923 INTER-LIGAND FREE ENERGY PREDICTED BY IDOCK:  -10.36 KCAL/MOL
REMARK 924 INTRA-LIGAND FREE ENERGY PREDICTED BY IDOCK:   -1.41 KCAL/MOL
REMARK 927      BINDING AFFINITY PREDICTED BY RF-SCORE:    0.00 PKD
ROOT
HETATM    1  N   UNK A   0     -12.880  11.777  63.126  1.00  0.00    -0.879 NA 
HETATM    2  C   UNK A   0     -12.548  12.751  64.037  1.00  0.00    -0.291 A  
HETATM    3  H2  UNK A   0     -12.925  11.982  62.129  1.00  0.00     0.000 HD 
HETATM    4  H1  UNK A   0     -13.079  10.842  63.482  1.00  0.00     0.000 HD 
HETATM    5  N   UNK A   0     -12.288  13.969  63.574  1.00  0.00    -0.750 NA 
HETATM    6  C   UNK A   0     -11.884  14.891  64.446  1.00  0.00    -0.360 A  
HETATM    7  N   UNK A   0     -11.540  16.093  63.971  1.00  0.00    -0.889 NA 
HETATM    8  C   UNK A   0     -11.030  17.001  64.836  1.00  0.00     0.092 A  
HETATM    9  C   UNK A   0     -10.868  16.744  66.189  1.00  0.00    -0.006 A  
HETATM   10  H2  UNK A   0     -12.652  13.599  68.061  1.00  0.00     0.000 HD 
HETATM   11  N   UNK A   0     -11.260  15.558  66.701  1.00  0.00    -0.193 NA 
HETATM   12  H1  UNK A   0     -12.311  12.002  67.800  1.00  0.00     0.000 HD 
HETATM   13  C   UNK A   0     -11.754  14.638  65.815  1.00  0.00    -0.302 A  
HETATM   14  C   UNK A   0     -12.091  13.340  66.180  1.00  0.00    -0.421 A  
HETATM   15  N   UNK A   0     -12.065  12.954  67.532  1.00  0.00    -0.333 NA 
HETATM   16  N   UNK A   0     -12.484  12.394  65.316  1.00  0.00    -0.609 NA 
ENDROOT
BRANCH   9  17
HETATM   17  C   UNK A   0     -10.144  17.699  67.108  1.00  0.00    -0.328 C  
HETATM   18  C   UNK A   0      -8.487  15.873  67.752  1.00  0.00    -0.165 A  
HETATM   19  C   UNK A   0      -9.137  15.385  68.900  1.00  0.00    -0.218 A  
HETATM   20  C   UNK A   0      -7.762  14.975  66.956  1.00  0.00    -0.120 A  
HETATM   21  C   UNK A   0      -8.646  17.329  67.305  1.00  0.00    -0.214 C  
HETATM   22  C   UNK A   0      -7.786  13.606  67.230  1.00  0.00    -0.109 A  
HETATM   23  C   UNK A   0      -9.161  14.016  69.178  1.00  0.00     0.267 A  
HETATM   24  C   UNK A   0      -7.927  18.267  68.294  1.00  0.00    -0.312 C  
HETATM   25  C   UNK A   0      -8.535  13.121  68.305  1.00  0.00    -0.161 A  
BRANCH  24  26
HETATM   26  C   UNK A   0      -7.946  19.684  67.890  1.00  0.00    -0.335 C  
HETATM   27  C   UNK A   0      -7.888  20.838  67.561  1.00  0.00    -0.251 C  
ENDBRANCH  24  26
BRANCH  25  28
HETATM   28  C   UNK A   0      -8.703  11.662  68.518  1.00  0.00    -0.130 C  
HETATM   29  O   UNK A   0      -7.750  10.897  68.441  1.00  0.00    -0.103 OA 
ATOM     30  N   GLU A   1      -9.988  11.245  68.860  1.00  0.00    -0.321 N  
ATOM     31  H   GLU A   1     -10.767  11.903  68.833  1.00  0.00     0.000 HD 
BRANCH  30  32
ATOM     32  CA  GLU A   1     -10.210   9.841  69.262  1.00  0.00    -0.204 C  
ATOM     33  O   GLU A   1     -11.008   9.730  66.983  1.00  0.00    -0.162 OA 
ATOM     34  C   GLU A   1     -10.512   8.995  68.010  1.00  0.00    -0.216 C  
ATOM     35  OXT GLU A   1     -10.466   7.774  67.975  1.00  0.00    -0.207 OA 
BRANCH  32  36
ATOM     36  CB  GLU A   1     -11.386   9.749  70.251  1.00  0.00    -0.333 C  
BRANCH  36  37
ATOM     37  CG  GLU A   1     -11.971  11.116  70.626  1.00  0.00    -0.459 C  
ATOM     38  CD  GLU A   1     -13.033  11.024  71.694  1.00  0.00    -0.456 C  
ATOM     39  OE2 GLU A   1     -13.417   9.993  72.220  1.00  0.00    -0.417 OA 
ATOM     40  OE1 GLU A   1     -13.526  12.238  72.030  1.00  0.00    -0.467 OA 
ENDBRANCH  36  37
ENDBRANCH  32  36
ENDBRANCH  30  32
ENDBRANCH  25  28
ENDBRANCH   9  17
TORSDOF 6
ENDMDL
MODEL        2
REMARK 921   NORMALIZED FREE ENERGY PREDICTED BY IDOCK:   -7.34 KCAL/MOL
REMARK 922        TOTAL FREE ENERGY PREDICTED BY IDOCK:  -11.32 KCAL/MOL
REMARK 923 INTER-LIGAND FREE ENERGY PREDICTED BY IDOCK:  -10.12 KCAL/MOL
REMARK 924 INTRA-LIGAND FREE ENERGY PREDICTED BY IDOCK:   -1.21 KCAL/MOL
REMARK 927      BINDING AFFINITY PREDICTED BY RF-SCORE:    0.00 PKD
ROOT
HETATM    1  N   UNK A   0     -11.952  16.691  72.486  1.00  0.00    -0.532 NA 
HETATM    2  C   UNK A   0     -12.005  15.764  71.473  1.00  0.00    -0.440 A  
HETATM    3  H2  UNK A   0     -12.100  16.419  73.457  1.00  0.00     0.000 HD 
HETATM    4  H1  UNK A   0     -11.758  17.660  72.234  1.00  0.00     0.000 HD 
HETATM    5  N   UNK A   0     -12.257  14.501  71.802  1.00  0.00    -0.335 NA 
HETATM    6  C   UNK A   0     -12.224  13.589  70.832  1.00  0.00    -0.305 A  
HETATM    7  N   UNK A   0     -12.393  12.307  71.174  1.00  0.00    -0.247 NA 
HETATM    8  C   UNK A   0     -12.258  11.365  70.211  1.00  0.00    -0.349 A  
HETATM    9  C   UNK A   0     -11.973  11.675  68.889  1.00  0.00    -0.292 A  
HETATM   10  H2  UNK A   0     -12.330  15.442  67.385  1.00  0.00     0.000 HD 
HETATM   11  N   UNK A   0     -11.854  12.966  68.510  1.00  0.00    -0.323 NA 
HETATM   12  H1  UNK A   0     -11.396  16.741  67.806  1.00  0.00     0.000 HD 
HETATM   13  C   UNK A   0     -11.970  13.910  69.495  1.00  0.00    -0.343 A  
HETATM   14  C   UNK A   0     -11.761  15.265  69.273  1.00  0.00    -0.338 A  
HETATM   15  N   UNK A   0     -11.550  15.746  67.969  1.00  0.00    -0.277 NA 
HETATM   16  N   UNK A   0     -11.773  16.196  70.238  1.00  0.00    -0.272 NA 
ENDROOT
BRANCH   9  17
HETATM   17  C   UNK A   0     -11.659  10.612  67.864  1.00  0.00    -0.132 C  
HETATM   18  C   UNK A   0      -9.445  11.751  67.316  1.00  0.00    -0.173 A  
HETATM   19  C   UNK A   0      -9.872  12.550  66.240  1.00  0.00    -0.260 A  
HETATM   20  C   UNK A   0      -8.435  12.238  68.157  1.00  0.00    -0.176 A  
HETATM   21  C   UNK A   0     -10.131  10.420  67.641  1.00  0.00    -0.223 C  
HETATM   22  C   UNK A   0      -7.951  13.539  68.004  1.00  0.00    -0.151 A  
HETATM   23  C   UNK A   0      -9.388  13.851  66.083  1.00  0.00    -0.124 A  
HETATM   24  C   UNK A   0      -9.814   9.382  66.548  1.00  0.00    -0.325 C  
HETATM   25  C   UNK A   0      -8.471  14.365  67.005  1.00  0.00    -0.206 A  
BRANCH  24  26
HETATM   26  C   UNK A   0     -10.357   8.040  66.829  1.00  0.00    -0.360 C  
HETATM   27  C   UNK A   0     -10.760   6.947  67.121  1.00  0.00    -0.436 C  
ENDBRANCH  24  26
BRANCH  25  28
HETATM   28  C   UNK A   0      -8.087  15.797  66.925  1.00  0.00    -0.257 C  
HETATM   29  O   UNK A   0      -7.482  16.236  65.956  1.00  0.00     0.132 OA 
ATOM     30  N   GLU A   1      -8.507  16.595  67.987  1.00  0.00    -0.188 N  
ATOM     31  H   GLU A   1      -8.936  16.172  68.811  1.00  0.00     0.000 HD 
BRANCH  30  32
ATOM     32  CA  GLU A   1      -8.325  18.059  67.908  1.00  0.00    -0.248 C  
ATOM     33  O   GLU A   1      -6.837  17.574  69.750  1.00  0.00    -0.056 OA 
ATOM     34  C   GLU A   1      -7.112  18.467  68.767  1.00  0.00    -0.291 C  
ATOM     35  OXT GLU A   1      -6.543  19.547  68.689  1.00  0.00    -0.259 OA 
BRANCH  32  36
ATOM     36  CB  GLU A   1      -9.588  18.782  68.410  1.00  0.00    -0.409 C  
BRANCH  36  37
ATOM     37  CG  GLU A   1     -10.145  19.797  67.405  1.00  0.00    -0.555 C  
ATOM     38  CD  GLU A   1     -10.501  19.172  66.078  1.00  0.00    -0.467 C  
ATOM     39  OE2 GLU A   1     -10.366  17.994  65.796  1.00  0.00    -0.583 OA 
ATOM     40  OE1 GLU A   1     -11.010  20.074  65.209  1.00  0.00    -0.315 OA 
ENDBRANCH  36  37
ENDBRANCH  32  36
ENDBRANCH  30  32
ENDBRANCH  25  28
ENDBRANCH   9  17
TORSDOF 6
ENDMDL
MODEL        3
REMARK 921   NORMALIZED FREE ENERGY PREDICTED BY IDOCK:   -7.33 KCAL/MOL
REMARK 922        TOTAL FREE ENERGY PREDICTED BY IDOCK:  -11.31 KCAL/MOL
REMARK 923 INTER-LIGAND FREE ENERGY PREDICTED BY IDOCK:   -9.55 KCAL/MOL
REMARK 924 INTRA-LIGAND FREE ENERGY PREDICTED BY IDOCK:   -1.76 KCAL/MOL
REMARK 927      BINDING AFFINITY PREDICTED BY RF-SCORE:    0.00 PKD
ROOT
HETATM    1  N   UNK A   0      -5.557  11.008  70.977  1.00  0.00    -0.294 NA 
HETATM    2  C   UNK A   0      -6.020  11.982  70.125  1.00  0.00    -0.159 A  
HETATM    3  H2  UNK A   0      -5.123  11.251  71.868  1.00  0.00     0.000 HD 
HETATM    4  H1  UNK A   0      -5.663  10.036  70.690  1.00  0.00     0.000 HD 
HETATM    5  N   UNK A   0      -5.883  13.250  70.499  1.00  0.00    -0.171 NA 
HETATM    6  C   UNK A   0      -6.407  14.188  69.714  1.00  0.00    -0.141 A  
HETATM    7  N   UNK A   0      -6.345  15.458  70.131  1.00  0.00    -0.128 NA 
HETATM    8  C   UNK A   0      -6.966  16.406  69.389  1.00  0.00    -0.210 A  
HETATM    9  C   UNK A   0      -7.643  16.119  68.214  1.00  0.00    -0.146 A  
HETATM   10  H2  UNK A   0      -7.218  12.584  66.236  1.00  0.00     0.000 HD 
HETATM   11  N   UNK A   0      -7.671  14.852  67.745  1.00  0.00    -0.145 NA 
HETATM   12  H1  UNK A   0      -7.712  11.105  66.787  1.00  0.00     0.000 HD 
HETATM   13  C   UNK A   0      -7.059  13.898  68.512  1.00  0.00    -0.104 A  
HETATM   14  C   UNK A   0      -7.105  12.542  68.212  1.00  0.00    -0.104 A  
HETATM   15  N   UNK A   0      -7.679  12.101  67.007  1.00  0.00    -0.145 NA 
HETATM   16  N   UNK A   0      -6.598  11.581  68.997  1.00  0.00    -0.080 NA 
ENDROOT
BRANCH   9  17
HETATM   17  C   UNK A   0      -8.472  17.152  67.490  1.00  0.00    -0.206 C  
HETATM   18  C   UNK A   0     -10.620  16.065  68.329  1.00  0.00    -0.283 A  
HETATM   19  C   UNK A   0     -10.872  15.214  67.238  1.00  0.00    -0.316 A  
HETATM   20  C   UNK A   0     -10.987  15.642  69.613  1.00  0.00    -0.288 A  
HETATM   21  C   UNK A   0      -9.861  17.385  68.150  1.00  0.00    -0.301 C  
HETATM   22  C   UNK A   0     -11.482  14.352  69.820  1.00  0.00    -0.328 A  
HETATM   23  C   UNK A   0     -11.369  13.924  67.442  1.00  0.00    -0.349 A  
HETATM   24  C   UNK A   0     -10.730  18.392  67.372  1.00  0.00    -0.397 C  
HETATM   25  C   UNK A   0     -11.615  13.474  68.742  1.00  0.00    -0.362 A  
BRANCH  24  26
HETATM   26  C   UNK A   0     -10.115  19.725  67.237  1.00  0.00    -0.549 C  
HETATM   27  C   UNK A   0      -9.551  20.782  67.149  1.00  0.00    -0.465 C  
ENDBRANCH  24  26
BRANCH  25  28
HETATM   28  C   UNK A   0     -11.986  12.053  68.960  1.00  0.00    -0.264 C  
HETATM   29  O   UNK A   0     -12.254  11.318  68.019  1.00  0.00    -0.621 OA 
ATOM     30  N   GLU A   1     -11.953  11.616  70.283  1.00  0.00    -0.365 N  
ATOM     31  H   GLU A   1     -11.805  12.282  71.041  1.00  0.00     0.000 HD 
BRANCH  30  32
ATOM     32  CA  GLU A   1     -12.134  10.179  70.575  1.00  0.00    -0.291 C  
ATOM     33  O   GLU A   1     -13.508  11.116  72.330  1.00  0.00    -0.337 OA 
ATOM     34  C   GLU A   1     -13.291  10.006  71.579  1.00  0.00    -0.361 C  
ATOM     35  OXT GLU A   1     -13.859   8.947  71.802  1.00  0.00    -0.393 OA 
BRANCH  32  36
ATOM     36  CB  GLU A   1     -10.840   9.586  71.160  1.00  0.00    -0.425 C  
BRANCH  36  37
ATOM     37  CG  GLU A   1      -9.868   9.078  70.089  1.00  0.00    -0.213 C  
ATOM     38  CD  GLU A   1      -8.465   8.894  70.613  1.00  0.00    -0.184 C  
ATOM     39  OE2 GLU A   1      -8.103   9.123  71.755  1.00  0.00    -0.343 OA 
ATOM     40  OE1 GLU A   1      -7.622   8.426  69.664  1.00  0.00    -0.084 OA 
ENDBRANCH  36  37
ENDBRANCH  32  36
ENDBRANCH  30  32
ENDBRANCH  25  28
ENDBRANCH   9  17
TORSDOF 6
ENDMDL
MODEL        4
REMARK 921   NORMALIZED FREE ENERGY PREDICTED BY IDOCK:   -7.16 KCAL/MOL
REMARK 922        TOTAL FREE ENERGY PREDICTED BY IDOCK:  -11.08 KCAL/MOL
REMARK 923 INTER-LIGAND FREE ENERGY PREDICTED BY IDOCK:   -9.72 KCAL/MOL
REMARK 924 INTRA-LIGAND FREE ENERGY PREDICTED BY IDOCK:   -1.35 KCAL/MOL
REMARK 927      BINDING AFFINITY PREDICTED BY RF-SCORE:    0.00 PKD
ROOT
HETATM    1  N   UNK A   0     -12.926  11.816  63.450  1.00  0.00    -0.699 NA 
HETATM    2  C   UNK A   0     -12.544  12.826  64.300  1.00  0.00    -0.324 A  
HETATM    3  H2  UNK A   0     -13.010  11.976  62.447  1.00  0.00     0.000 HD 
HETATM    4  H1  UNK A   0     -13.122  10.902  63.857  1.00  0.00     0.000 HD 
HETATM    5  N   UNK A   0     -12.288  14.018  63.771  1.00  0.00    -0.749 NA 
HETATM    6  C   UNK A   0     -11.836  14.973  64.582  1.00  0.00    -0.375 A  
HETATM    7  N   UNK A   0     -11.497  16.147  64.037  1.00  0.00    -0.856 NA 
HETATM    8  C   UNK A   0     -10.940  17.086  64.838  1.00  0.00     0.092 A  
HETATM    9  C   UNK A   0     -10.725  16.890  66.193  1.00  0.00    -0.109 A  
HETATM   10  H2  UNK A   0     -12.470  13.860  68.281  1.00  0.00     0.000 HD 
HETATM   11  N   UNK A   0     -11.111  15.733  66.776  1.00  0.00    -0.192 NA 
HETATM   12  H1  UNK A   0     -12.161  12.247  68.081  1.00  0.00     0.000 HD 
HETATM   13  C   UNK A   0     -11.653  14.781  65.955  1.00  0.00    -0.286 A  
HETATM   14  C   UNK A   0     -11.990  13.507  66.393  1.00  0.00    -0.414 A  
HETATM   15  N   UNK A   0     -11.913  13.183  67.759  1.00  0.00    -0.339 NA 
HETATM   16  N   UNK A   0     -12.431  12.528  65.591  1.00  0.00    -0.611 NA 
ENDROOT
BRANCH   9  17
HETATM   17  C   UNK A   0      -9.952  17.875  67.037  1.00  0.00    -0.324 C  
HETATM   18  C   UNK A   0      -8.262  16.069  67.653  1.00  0.00    -0.162 A  
HETATM   19  C   UNK A   0      -8.847  15.624  68.852  1.00  0.00    -0.222 A  
HETATM   20  C   UNK A   0      -7.582  15.142  66.851  1.00  0.00     0.011 A  
HETATM   21  C   UNK A   0      -8.445  17.509  67.164  1.00  0.00    -0.232 C  
HETATM   22  C   UNK A   0      -7.591  13.784  67.174  1.00  0.00     0.051 A  
HETATM   23  C   UNK A   0      -8.857  14.265  69.179  1.00  0.00     0.158 A  
HETATM   24  C   UNK A   0      -7.672  18.479  68.078  1.00  0.00    -0.281 C  
HETATM   25  C   UNK A   0      -8.280  13.339  68.305  1.00  0.00    -0.156 A  
BRANCH  24  26
HETATM   26  C   UNK A   0      -7.714  19.882  67.625  1.00  0.00    -0.326 C  
HETATM   27  C   UNK A   0      -7.680  21.015  67.227  1.00  0.00    -0.175 C  
ENDBRANCH  24  26
BRANCH  25  28
HETATM   28  C   UNK A   0      -8.436  11.888  68.579  1.00  0.00    -0.113 C  
HETATM   29  O   UNK A   0      -7.491  11.118  68.464  1.00  0.00    -0.097 OA 
ATOM     30  N   GLU A   1      -9.696  11.489  69.020  1.00  0.00    -0.415 N  
ATOM     31  H   GLU A   1     -10.474  12.149  69.022  1.00  0.00     0.000 HD 
BRANCH  30  32
ATOM     32  CA  GLU A   1      -9.893  10.100  69.484  1.00  0.00    -0.232 C  
ATOM     33  O   GLU A   1     -11.034   9.972  67.356  1.00  0.00    -0.283 OA 
ATOM     34  C   GLU A   1     -10.407   9.241  68.312  1.00  0.00    -0.217 C  
ATOM     35  OXT GLU A   1     -10.402   8.018  68.299  1.00  0.00    -0.201 OA 
BRANCH  32  36
ATOM     36  CB  GLU A   1     -10.906  10.064  70.643  1.00  0.00    -0.367 C  
BRANCH  36  37
ATOM     37  CG  GLU A   1     -10.557   9.031  71.721  1.00  0.00    -0.426 C  
ATOM     38  CD  GLU A   1     -11.639   7.996  71.912  1.00  0.00    -0.298 C  
ATOM     39  OE2 GLU A   1     -12.693   7.958  71.301  1.00  0.00    -0.300 OA 
ATOM     40  OE1 GLU A   1     -11.309   7.080  72.850  1.00  0.00    -0.256 OA 
ENDBRANCH  36  37
ENDBRANCH  32  36
ENDBRANCH  30  32
ENDBRANCH  25  28
ENDBRANCH   9  17
TORSDOF 6
ENDMDL
MODEL        5
REMARK 921   NORMALIZED FREE ENERGY PREDICTED BY IDOCK:   -6.84 KCAL/MOL
REMARK 922        TOTAL FREE ENERGY PREDICTED BY IDOCK:  -10.65 KCAL/MOL
REMARK 923 INTER-LIGAND FREE ENERGY PREDICTED BY IDOCK:   -9.22 KCAL/MOL
REMARK 924 INTRA-LIGAND FREE ENERGY PREDICTED BY IDOCK:   -1.43 KCAL/MOL
REMARK 927      BINDING AFFINITY PREDICTED BY RF-SCORE:    0.00 PKD
ROOT
HETATM    1  N   UNK A   0     -12.913  14.720  71.647  1.00  0.00    -0.314 NA 
HETATM    2  C   UNK A   0     -12.596  13.652  70.843  1.00  0.00    -0.346 A  
HETATM    3  H2  UNK A   0     -13.082  14.596  72.645  1.00  0.00     0.000 HD 
HETATM    4  H1  UNK A   0     -12.973  15.641  71.213  1.00  0.00     0.000 HD 
HETATM    5  N   UNK A   0     -12.517  12.452  71.409  1.00  0.00    -0.188 NA 
HETATM    6  C   UNK A   0     -12.127  11.431  70.648  1.00  0.00    -0.372 A  
HETATM    7  N   UNK A   0     -11.965  10.240  71.234  1.00  0.00    -0.373 NA 
HETATM    8  C   UNK A   0     -11.470   9.223  70.491  1.00  0.00    -0.248 A  
HETATM    9  C   UNK A   0     -11.144   9.359  69.150  1.00  0.00    -0.013 A  
HETATM   10  H2  UNK A   0     -12.380  12.517  66.895  1.00  0.00     0.000 HD 
HETATM   11  N   UNK A   0     -11.352  10.537  68.522  1.00  0.00    -0.273 NA 
HETATM   12  H1  UNK A   0     -11.898  14.087  67.088  1.00  0.00     0.000 HD 
HETATM   13  C   UNK A   0     -11.833  11.566  69.288  1.00  0.00    -0.348 A  
HETATM   14  C   UNK A   0     -11.989  12.860  68.805  1.00  0.00    -0.253 A  
HETATM   15  N   UNK A   0     -11.784  13.138  67.442  1.00  0.00    -0.355 NA 
HETATM   16  N   UNK A   0     -12.364  13.903  69.558  1.00  0.00    -0.299 NA 
ENDROOT
BRANCH   9  17
HETATM   17  C   UNK A   0     -10.437   8.271  68.379  1.00  0.00    -0.206 C  
HETATM   18  C   UNK A   0      -8.367   9.739  68.142  1.00  0.00    -0.110 A  
HETATM   19  C   UNK A   0      -8.656  10.323  66.897  1.00  0.00    -0.127 A  
HETATM   20  C   UNK A   0      -7.669  10.494  69.095  1.00  0.00    -0.131 A  
HETATM   21  C   UNK A   0      -8.888   8.346  68.509  1.00  0.00    -0.136 C  
HETATM   22  C   UNK A   0      -7.376  11.838  68.857  1.00  0.00    -0.093 A  
HETATM   23  C   UNK A   0      -8.362  11.668  66.655  1.00  0.00    -0.154 A  
HETATM   24  C   UNK A   0      -8.168   7.274  67.669  1.00  0.00    -0.114 C  
HETATM   25  C   UNK A   0      -7.776  12.440  67.662  1.00  0.00    -0.151 A  
BRANCH  24  26
HETATM   26  C   UNK A   0      -8.540   5.892  68.025  1.00  0.00    -0.113 C  
HETATM   27  C   UNK A   0      -8.865   4.792  68.380  1.00  0.00    -0.119 C  
ENDBRANCH  24  26
BRANCH  25  28
HETATM   28  C   UNK A   0      -7.617  13.902  67.455  1.00  0.00    -0.176 C  
HETATM   29  O   UNK A   0      -6.509  14.403  67.311  1.00  0.00    -0.295 OA 
ATOM     30  N   GLU A   1      -8.799  14.634  67.384  1.00  0.00    -0.185 N  
ATOM     31  H   GLU A   1      -9.694  14.189  67.591  1.00  0.00     0.000 HD 
BRANCH  30  32
ATOM     32  CA  GLU A   1      -8.745  16.062  67.005  1.00  0.00    -0.210 C  
ATOM     33  O   GLU A   1     -10.002  16.245  69.062  1.00  0.00    -0.231 OA 
ATOM     34  C   GLU A   1      -9.202  16.922  68.199  1.00  0.00    -0.234 C  
ATOM     35  OXT GLU A   1      -9.008  18.125  68.297  1.00  0.00    -0.282 OA 
BRANCH  32  36
ATOM     36  CB  GLU A   1      -9.653  16.327  65.791  1.00  0.00    -0.266 C  
BRANCH  36  37
ATOM     37  CG  GLU A   1     -10.605  15.165  65.481  1.00  0.00    -0.383 C  
ATOM     38  CD  GLU A   1     -11.638  15.518  64.440  1.00  0.00    -0.258 C  
ATOM     39  OE2 GLU A   1     -11.741  16.601  63.888  1.00  0.00    -1.153 OA 
ATOM     40  OE1 GLU A   1     -12.458  14.479  64.161  1.00  0.00    -0.707 OA 
ENDBRANCH  36  37
ENDBRANCH  32  36
ENDBRANCH  30  32
ENDBRANCH  25  28
ENDBRANCH   9  17
TORSDOF 6
ENDMDL
MODEL        6
REMARK 921   NORMALIZED FREE ENERGY PREDICTED BY IDOCK:   -6.81 KCAL/MOL
REMARK 922        TOTAL FREE ENERGY PREDICTED BY IDOCK:  -10.61 KCAL/MOL
REMARK 923 INTER-LIGAND FREE ENERGY PREDICTED BY IDOCK:   -9.70 KCAL/MOL
REMARK 924 INTRA-LIGAND FREE ENERGY PREDICTED BY IDOCK:   -0.90 KCAL/MOL
REMARK 927      BINDING AFFINITY PREDICTED BY RF-SCORE:    0.00 PKD
ROOT
HETATM    1  N   UNK A   0     -14.147  12.653  72.681  1.00  0.00    -0.530 NA 
HETATM    2  C   UNK A   0     -13.464  13.685  72.083  1.00  0.00    -0.512 A  
HETATM    3  H2  UNK A   0     -14.482  11.858  72.138  1.00  0.00     0.000 HD 
HETATM    4  H1  UNK A   0     -14.307  12.709  73.687  1.00  0.00     0.000 HD 
HETATM    5  N   UNK A   0     -13.255  13.611  70.772  1.00  0.00    -0.053 NA 
HETATM    6  C   UNK A   0     -12.520  14.567  70.207  1.00  0.00    -0.348 A  
HETATM    7  N   UNK A   0     -12.238  14.451  68.904  1.00  0.00    -0.239 NA 
HETATM    8  C   UNK A   0     -11.406  15.362  68.346  1.00  0.00    -0.339 A  
HETATM    9  C   UNK A   0     -10.855  16.415  69.059  1.00  0.00    -0.331 A  
HETATM   10  H2  UNK A   0     -12.237  17.559  72.715  1.00  0.00     0.000 HD 
HETATM   11  N   UNK A   0     -11.170  16.585  70.362  1.00  0.00    -0.248 NA 
HETATM   12  H1  UNK A   0     -12.136  16.670  74.106  1.00  0.00     0.000 HD 
HETATM   13  C   UNK A   0     -11.994  15.646  70.923  1.00  0.00    -0.397 A  
HETATM   14  C   UNK A   0     -12.313  15.630  72.275  1.00  0.00    -0.428 A  
HETATM   15  N   UNK A   0     -11.902  16.682  73.113  1.00  0.00    -0.378 NA 
HETATM   16  N   UNK A   0     -13.037  14.670  72.866  1.00  0.00    -0.485 NA 
ENDROOT
BRANCH   9  17
HETATM   17  C   UNK A   0      -9.800  17.321  68.470  1.00  0.00    -0.307 C  
HETATM   18  C   UNK A   0      -8.586  15.313  67.473  1.00  0.00    -0.190 A  
HETATM   19  C   UNK A   0      -7.679  15.068  68.518  1.00  0.00    -0.121 A  
HETATM   20  C   UNK A   0      -9.074  14.226  66.735  1.00  0.00    -0.269 A  
HETATM   21  C   UNK A   0      -9.127  16.721  67.202  1.00  0.00    -0.224 C  
HETATM   22  C   UNK A   0      -8.759  12.918  67.108  1.00  0.00    -0.205 A  
HETATM   23  C   UNK A   0      -7.360  13.759  68.893  1.00  0.00    -0.076 A  
HETATM   24  C   UNK A   0      -8.007  17.618  66.642  1.00  0.00    -0.285 C  
HETATM   25  C   UNK A   0      -7.951  12.684  68.223  1.00  0.00    -0.153 A  
BRANCH  24  26
HETATM   26  C   UNK A   0      -8.462  18.968  66.261  1.00  0.00    -0.289 C  
HETATM   27  C   UNK A   0      -8.893  20.057  65.993  1.00  0.00    -0.254 C  
ENDBRANCH  24  26
BRANCH  25  28
HETATM   28  C   UNK A   0      -7.734  11.306  68.730  1.00  0.00    -0.138 C  
HETATM   29  O   UNK A   0      -6.614  10.813  68.764  1.00  0.00    -0.051 OA 
ATOM     30  N   GLU A   1      -8.869  10.652  69.205  1.00  0.00    -0.330 N  
ATOM     31  H   GLU A   1      -9.792  11.067  69.082  1.00  0.00     0.000 HD 
BRANCH  30  32
ATOM     32  CA  GLU A   1      -8.721   9.350  69.889  1.00  0.00    -0.197 C  
ATOM     33  O   GLU A   1      -9.801   8.609  67.857  1.00  0.00    -0.160 OA 
ATOM     34  C   GLU A   1      -9.012   8.214  68.889  1.00  0.00    -0.141 C  
ATOM     35  OXT GLU A   1      -8.709   7.043  69.067  1.00  0.00    -0.128 OA 
BRANCH  32  36
ATOM     36  CB  GLU A   1      -9.690   9.260  71.080  1.00  0.00    -0.327 C  
BRANCH  36  37
ATOM     37  CG  GLU A   1     -11.039   9.942  70.818  1.00  0.00    -0.417 C  
ATOM     38  CD  GLU A   1     -12.146   9.402  71.689  1.00  0.00    -0.388 C  
ATOM     39  OE2 GLU A   1     -12.024   8.515  72.516  1.00  0.00    -0.389 OA 
ATOM     40  OE1 GLU A   1     -13.325  10.026  71.461  1.00  0.00    -0.378 OA 
ENDBRANCH  36  37
ENDBRANCH  32  36
ENDBRANCH  30  32
ENDBRANCH  25  28
ENDBRANCH   9  17
TORSDOF 6
ENDMDL
MODEL        7
REMARK 921   NORMALIZED FREE ENERGY PREDICTED BY IDOCK:   -6.80 KCAL/MOL
REMARK 922        TOTAL FREE ENERGY PREDICTED BY IDOCK:  -10.60 KCAL/MOL
REMARK 923 INTER-LIGAND FREE ENERGY PREDICTED BY IDOCK:   -9.49 KCAL/MOL
REMARK 924 INTRA-LIGAND FREE ENERGY PREDICTED BY IDOCK:   -1.10 KCAL/MOL
REMARK 927      BINDING AFFINITY PREDICTED BY RF-SCORE:    0.00 PKD
ROOT
HETATM    1  N   UNK A   0     -13.526   9.084  73.228  1.00  0.00    -0.843 NA 
HETATM    2  C   UNK A   0     -12.696   9.067  72.133  1.00  0.00    -0.401 A  
HETATM    3  H2  UNK A   0     -14.242   9.802  73.336  1.00  0.00     0.000 HD 
HETATM    4  H1  UNK A   0     -13.402   8.353  73.929  1.00  0.00     0.000 HD 
HETATM    5  N   UNK A   0     -12.858  10.019  71.219  1.00  0.00    -0.373 NA 
HETATM    6  C   UNK A   0     -12.112   9.954  70.118  1.00  0.00    -0.025 A  
HETATM    7  N   UNK A   0     -12.332  10.862  69.160  1.00  0.00    -0.397 NA 
HETATM    8  C   UNK A   0     -11.652  10.741  67.996  1.00  0.00    -0.163 A  
HETATM    9  C   UNK A   0     -10.728   9.733  67.764  1.00  0.00    -0.272 A  
HETATM   10  H2  UNK A   0      -9.181   7.438  70.752  1.00  0.00     0.000 HD 
HETATM   11  N   UNK A   0     -10.448   8.839  68.738  1.00  0.00    -0.211 NA 
HETATM   12  H1  UNK A   0     -10.024   6.345  71.663  1.00  0.00     0.000 HD 
HETATM   13  C   UNK A   0     -11.157   8.956  69.903  1.00  0.00    -0.136 A  
HETATM   14  C   UNK A   0     -11.056   8.043  70.946  1.00  0.00    -0.255 A  
HETATM   15  N   UNK A   0     -10.098   7.015  70.898  1.00  0.00    -0.193 NA 
HETATM   16  N   UNK A   0     -11.808   8.081  72.055  1.00  0.00    -0.307 NA 
ENDROOT
BRANCH   9  17
HETATM   17  C   UNK A   0     -10.104   9.509  66.408  1.00  0.00    -0.328 C  
HETATM   18  C   UNK A   0      -8.697  11.618  66.671  1.00  0.00    -0.187 A  
HETATM   19  C   UNK A   0      -9.556  12.533  66.038  1.00  0.00    -0.205 A  
HETATM   20  C   UNK A   0      -7.911  12.064  67.744  1.00  0.00    -0.147 A  
HETATM   21  C   UNK A   0      -8.685  10.136  66.284  1.00  0.00    -0.152 C  
HETATM   22  C   UNK A   0      -8.069  13.356  68.249  1.00  0.00    -0.152 A  
HETATM   23  C   UNK A   0      -9.714  13.828  66.540  1.00  0.00    -0.301 A  
HETATM   24  C   UNK A   0      -8.079   9.962  64.879  1.00  0.00    -0.145 C  
HETATM   25  C   UNK A   0      -9.013  14.217  67.685  1.00  0.00    -0.192 A  
BRANCH  24  26
HETATM   26  C   UNK A   0      -7.940   8.555  64.462  1.00  0.00    -0.145 C  
HETATM   27  C   UNK A   0      -7.897   7.399  64.138  1.00  0.00    -0.120 C  
ENDBRANCH  24  26
BRANCH  25  28
HETATM   28  C   UNK A   0      -9.309  15.533  68.304  1.00  0.00    -0.192 C  
HETATM   29  O   UNK A   0      -9.312  15.673  69.521  1.00  0.00    -0.264 OA 
ATOM     30  N   GLU A   1      -9.522  16.584  67.416  1.00  0.00    -0.226 N  
ATOM     31  H   GLU A   1      -9.592  16.406  66.414  1.00  0.00     0.000 HD 
BRANCH  30  32
ATOM     32  CA  GLU A   1      -9.647  17.961  67.940  1.00  0.00    -0.286 C  
ATOM     33  O   GLU A   1     -10.644  18.275  65.760  1.00  0.00    -0.554 OA 
ATOM     34  C   GLU A   1     -10.582  18.771  67.021  1.00  0.00    -0.420 C  
ATOM     35  OXT GLU A   1     -11.099  19.836  67.329  1.00  0.00    -0.363 OA 
BRANCH  32  36
ATOM     36  CB  GLU A   1      -8.265  18.634  68.004  1.00  0.00    -0.294 C  
BRANCH  36  37
ATOM     37  CG  GLU A   1      -7.295  18.134  66.926  1.00  0.00    -0.228 C  
ATOM     38  CD  GLU A   1      -7.160  19.095  65.770  1.00  0.00    -0.266 C  
ATOM     39  OE2 GLU A   1      -7.747  20.158  65.665  1.00  0.00    -0.295 OA 
ATOM     40  OE1 GLU A   1      -6.287  18.651  64.837  1.00  0.00    -0.457 OA 
ENDBRANCH  36  37
ENDBRANCH  32  36
ENDBRANCH  30  32
ENDBRANCH  25  28
ENDBRANCH   9  17
TORSDOF 6
ENDMDL
MODEL        8
REMARK 921   NORMALIZED FREE ENERGY PREDICTED BY IDOCK:   -6.73 KCAL/MOL
REMARK 922        TOTAL FREE ENERGY PREDICTED BY IDOCK:  -10.51 KCAL/MOL
REMARK 923 INTER-LIGAND FREE ENERGY PREDICTED BY IDOCK:   -9.74 KCAL/MOL
REMARK 924 INTRA-LIGAND FREE ENERGY PREDICTED BY IDOCK:   -0.77 KCAL/MOL
REMARK 927      BINDING AFFINITY PREDICTED BY RF-SCORE:    0.00 PKD
ROOT
HETATM    1  N   UNK A   0     -14.034  16.221  73.395  1.00  0.00    -0.654 NA 
HETATM    2  C   UNK A   0     -13.417  15.337  72.542  1.00  0.00    -0.485 A  
HETATM    3  H2  UNK A   0     -13.906  17.227  73.293  1.00  0.00     0.000 HD 
HETATM    4  H1  UNK A   0     -14.625  15.837  74.132  1.00  0.00     0.000 HD 
HETATM    5  N   UNK A   0     -12.648  15.838  71.581  1.00  0.00    -0.445 NA 
HETATM    6  C   UNK A   0     -12.119  14.987  70.704  1.00  0.00    -0.321 A  
HETATM    7  N   UNK A   0     -11.414  15.496  69.687  1.00  0.00    -0.303 NA 
HETATM    8  C   UNK A   0     -10.961  14.647  68.735  1.00  0.00    -0.258 A  
HETATM    9  C   UNK A   0     -11.180  13.278  68.780  1.00  0.00    -0.276 A  
HETATM   10  H2  UNK A   0     -12.441  11.361  72.144  1.00  0.00     0.000 HD 
HETATM   11  N   UNK A   0     -11.840  12.736  69.826  1.00  0.00    -0.327 NA 
HETATM   12  H1  UNK A   0     -13.922  11.540  72.858  1.00  0.00     0.000 HD 
HETATM   13  C   UNK A   0     -12.313  13.604  70.773  1.00  0.00    -0.371 A  
HETATM   14  C   UNK A   0     -13.104  13.202  71.841  1.00  0.00    -0.385 A  
HETATM   15  N   UNK A   0     -13.341  11.835  72.073  1.00  0.00    -0.438 NA 
HETATM   16  N   UNK A   0     -13.659  14.043  72.725  1.00  0.00    -0.689 NA 
ENDROOT
BRANCH   9  17
HETATM   17  C   UNK A   0     -10.818  12.367  67.631  1.00  0.00    -0.258 C  
HETATM   18  C   UNK A   0      -8.398  13.163  67.720  1.00  0.00    -0.171 A  
HETATM   19  C   UNK A   0      -8.475  14.198  66.771  1.00  0.00    -0.029 A  
HETATM   20  C   UNK A   0      -7.523  13.308  68.806  1.00  0.00    -0.053 A  
HETATM   21  C   UNK A   0      -9.321  11.943  67.644  1.00  0.00    -0.183 C  
HETATM   22  C   UNK A   0      -6.835  14.507  69.006  1.00  0.00    -0.109 A  
HETATM   23  C   UNK A   0      -7.786  15.398  66.968  1.00  0.00    -0.220 A  
HETATM   24  C   UNK A   0      -8.941  11.067  66.435  1.00  0.00    -0.190 C  
HETATM   25  C   UNK A   0      -7.013  15.572  68.120  1.00  0.00    -0.129 A  
BRANCH  24  26
HETATM   26  C   UNK A   0      -9.717   9.817  66.340  1.00  0.00    -0.275 C  
HETATM   27  C   UNK A   0     -10.400   8.829  66.307  1.00  0.00    -0.029 C  
ENDBRANCH  24  26
BRANCH  25  28
HETATM   28  C   UNK A   0      -6.418  16.902  68.401  1.00  0.00    -0.149 C  
HETATM   29  O   UNK A   0      -5.380  17.008  69.042  1.00  0.00    -0.135 OA 
ATOM     30  N   GLU A   1      -7.084  17.992  67.844  1.00  0.00    -0.212 N  
ATOM     31  H   GLU A   1      -7.988  17.864  67.388  1.00  0.00     0.000 HD 
BRANCH  30  32
ATOM     32  CA  GLU A   1      -6.469  19.333  67.921  1.00  0.00    -0.233 C  
ATOM     33  O   GLU A   1      -7.847  19.414  69.906  1.00  0.00     0.214 OA 
ATOM     34  C   GLU A   1      -6.747  19.940  69.311  1.00  0.00    -0.326 C  
ATOM     35  OXT GLU A   1      -6.149  20.899  69.776  1.00  0.00    -0.330 OA 
BRANCH  32  36
ATOM     36  CB  GLU A   1      -7.045  20.248  66.826  1.00  0.00    -0.299 C  
BRANCH  36  37
ATOM     37  CG  GLU A   1      -8.210  19.614  66.057  1.00  0.00    -0.307 C  
ATOM     38  CD  GLU A   1      -9.558  20.016  66.601  1.00  0.00    -0.425 C  
ATOM     39  OE2 GLU A   1      -9.741  20.755  67.553  1.00  0.00    -0.439 OA 
ATOM     40  OE1 GLU A   1     -10.576  19.467  65.901  1.00  0.00    -0.497 OA 
ENDBRANCH  36  37
ENDBRANCH  32  36
ENDBRANCH  30  32
ENDBRANCH  25  28
ENDBRANCH   9  17
TORSDOF 6
ENDMDL
MODEL        9
REMARK 921   NORMALIZED FREE ENERGY PREDICTED BY IDOCK:   -6.71 KCAL/MOL
REMARK 922        TOTAL FREE ENERGY PREDICTED BY IDOCK:  -10.48 KCAL/MOL
REMARK 923 INTER-LIGAND FREE ENERGY PREDICTED BY IDOCK:   -9.26 KCAL/MOL
REMARK 924 INTRA-LIGAND FREE ENERGY PREDICTED BY IDOCK:   -1.22 KCAL/MOL
REMARK 927      BINDING AFFINITY PREDICTED BY RF-SCORE:    0.00 PKD
ROOT
HETATM    1  N   UNK A   0      -6.269  10.696  63.357  1.00  0.00    -0.361 NA 
HETATM    2  C   UNK A   0      -6.832  10.580  64.605  1.00  0.00     0.068 A  
HETATM    3  H2  UNK A   0      -6.827  10.567  62.514  1.00  0.00     0.000 HD 
HETATM    4  H1  UNK A   0      -5.274  10.916  63.303  1.00  0.00     0.000 HD 
HETATM    5  N   UNK A   0      -8.128  10.294  64.676  1.00  0.00    -0.163 NA 
HETATM    6  C   UNK A   0      -8.692  10.266  65.882  1.00  0.00    -0.156 A  
HETATM    7  N   UNK A   0     -10.012  10.063  65.950  1.00  0.00    -0.265 NA 
HETATM    8  C   UNK A   0     -10.609  10.136  67.163  1.00  0.00    -0.246 A  
HETATM    9  C   UNK A   0      -9.909  10.392  68.333  1.00  0.00    -0.162 A  
HETATM   10  H2  UNK A   0      -5.853  10.123  68.574  1.00  0.00     0.000 HD 
HETATM   11  N   UNK A   0      -8.568  10.545  68.296  1.00  0.00    -0.123 NA 
HETATM   12  H1  UNK A   0      -4.774  11.114  67.807  1.00  0.00     0.000 HD 
HETATM   13  C   UNK A   0      -7.976  10.491  67.062  1.00  0.00    -0.118 A  
HETATM   14  C   UNK A   0      -6.625  10.741  66.859  1.00  0.00    -0.091 A  
HETATM   15  N   UNK A   0      -5.766  10.930  67.956  1.00  0.00    -0.043 NA 
HETATM   16  N   UNK A   0      -6.042  10.790  65.653  1.00  0.00    -0.126 NA 
ENDROOT
BRANCH   9  17
HETATM   17  C   UNK A   0     -10.606  10.638  69.650  1.00  0.00    -0.260 C  
HETATM   18  C   UNK A   0     -11.478  12.879  68.805  1.00  0.00    -0.345 A  
HETATM   19  C   UNK A   0     -10.449  13.708  69.286  1.00  0.00     0.072 A  
HETATM   20  C   UNK A   0     -12.109  13.219  67.600  1.00  0.00    -0.295 A  
HETATM   21  C   UNK A   0     -11.844  11.571  69.514  1.00  0.00    -0.419 C  
HETATM   22  C   UNK A   0     -11.643  14.287  66.832  1.00  0.00    -0.405 A  
HETATM   23  C   UNK A   0      -9.981  14.780  68.520  1.00  0.00    -0.228 A  
HETATM   24  C   UNK A   0     -12.513  11.873  70.868  1.00  0.00    -0.397 C  
HETATM   25  C   UNK A   0     -10.541  15.030  67.264  1.00  0.00    -0.279 A  
BRANCH  24  26
HETATM   26  C   UNK A   0     -12.986  10.670  71.577  1.00  0.00    -0.566 C  
HETATM   27  C   UNK A   0     -13.305   9.659  72.143  1.00  0.00    -0.545 C  
ENDBRANCH  24  26
BRANCH  25  28
HETATM   28  C   UNK A   0      -9.932  16.064  66.391  1.00  0.00    -0.295 C  
HETATM   29  O   UNK A   0     -10.181  16.107  65.193  1.00  0.00    -0.542 OA 
ATOM     30  N   GLU A   1      -9.118  16.994  67.034  1.00  0.00    -0.215 N  
ATOM     31  H   GLU A   1      -8.872  16.871  68.017  1.00  0.00     0.000 HD 
BRANCH  30  32
ATOM     32  CA  GLU A   1      -8.613  18.159  66.278  1.00  0.00    -0.179 C  
ATOM     33  O   GLU A   1      -6.525  17.006  66.667  1.00  0.00    -0.200 OA 
ATOM     34  C   GLU A   1      -7.151  17.902  65.863  1.00  0.00    -0.262 C  
ATOM     35  OXT GLU A   1      -6.554  18.540  65.008  1.00  0.00    -0.497 OA 
BRANCH  32  36
ATOM     36  CB  GLU A   1      -8.697  19.431  67.140  1.00  0.00    -0.332 C  
BRANCH  36  37
ATOM     37  CG  GLU A   1      -8.014  19.284  68.505  1.00  0.00    -0.396 C  
ATOM     38  CD  GLU A   1      -6.849  20.227  68.681  1.00  0.00    -0.224 C  
ATOM     39  OE2 GLU A   1      -6.458  21.026  67.849  1.00  0.00    -0.332 OA 
ATOM     40  OE1 GLU A   1      -6.270  20.101  69.897  1.00  0.00    -0.335 OA 
ENDBRANCH  36  37
ENDBRANCH  32  36
ENDBRANCH  30  32
ENDBRANCH  25  28
ENDBRANCH   9  17
TORSDOF 6
ENDMDL
MODEL       10
REMARK 921   NORMALIZED FREE ENERGY PREDICTED BY IDOCK:   -6.66 KCAL/MOL
REMARK 922        TOTAL FREE ENERGY PREDICTED BY IDOCK:  -10.41 KCAL/MOL
REMARK 923 INTER-LIGAND FREE ENERGY PREDICTED BY IDOCK:   -9.05 KCAL/MOL
REMARK 924 INTRA-LIGAND FREE ENERGY PREDICTED BY IDOCK:   -1.36 KCAL/MOL
REMARK 927      BINDING AFFINITY PREDICTED BY RF-SCORE:    0.00 PKD
ROOT
HETATM    1  N   UNK A   0     -12.274  15.634  68.585  1.00  0.00    -0.520 NA 
HETATM    2  C   UNK A   0     -11.564  14.598  68.027  1.00  0.00    -0.340 A  
HETATM    3  H2  UNK A   0     -11.966  16.078  69.449  1.00  0.00     0.000 HD 
HETATM    4  H1  UNK A   0     -13.119  15.943  68.105  1.00  0.00     0.000 HD 
HETATM    5  N   UNK A   0     -10.462  14.195  68.652  1.00  0.00    -0.246 NA 
HETATM    6  C   UNK A   0      -9.728  13.250  68.068  1.00  0.00    -0.223 A  
HETATM    7  N   UNK A   0      -8.575  12.903  68.652  1.00  0.00    -0.023 NA 
HETATM    8  C   UNK A   0      -7.774  12.019  68.011  1.00  0.00    -0.132 A  
HETATM    9  C   UNK A   0      -8.106  11.447  66.793  1.00  0.00    -0.161 A  
HETATM   10  H2  UNK A   0     -11.876  11.573  65.257  1.00  0.00     0.000 HD 
HETATM   11  N   UNK A   0      -9.290  11.740  66.211  1.00  0.00    -0.222 NA 
HETATM   12  H1  UNK A   0     -12.662  12.934  64.741  1.00  0.00     0.000 HD 
HETATM   13  C   UNK A   0     -10.084  12.651  66.855  1.00  0.00    -0.230 A  
HETATM   14  C   UNK A   0     -11.273  13.130  66.321  1.00  0.00    -0.301 A  
HETATM   15  N   UNK A   0     -11.789  12.582  65.133  1.00  0.00    -0.385 NA 
HETATM   16  N   UNK A   0     -12.017  14.091  66.885  1.00  0.00    -0.430 NA 
ENDROOT
BRANCH   9  17
HETATM   17  C   UNK A   0      -7.133  10.598  66.011  1.00  0.00    -0.127 C  
HETATM   18  C   UNK A   0      -8.586   8.536  66.382  1.00  0.00    -0.136 A  
HETATM   19  C   UNK A   0      -7.966   8.039  67.541  1.00  0.00    -0.122 A  
HETATM   20  C   UNK A   0      -9.967   8.352  66.224  1.00  0.00    -0.216 A  
HETATM   21  C   UNK A   0      -7.806   9.359  65.351  1.00  0.00    -0.104 C  
HETATM   22  C   UNK A   0     -10.729   7.795  67.253  1.00  0.00    -0.326 A  
HETATM   23  C   UNK A   0      -8.726   7.480  68.572  1.00  0.00    -0.128 A  
HETATM   24  C   UNK A   0      -6.800   8.460  64.609  1.00  0.00    -0.069 C  
HETATM   25  C   UNK A   0     -10.117   7.415  68.450  1.00  0.00    -0.196 A  
BRANCH  24  26
HETATM   26  C   UNK A   0      -6.070   9.149  63.530  1.00  0.00    -0.088 C  
HETATM   27  C   UNK A   0      -5.535   9.754  62.640  1.00  0.00    -0.089 C  
ENDBRANCH  24  26
BRANCH  25  28
HETATM   28  C   UNK A   0     -10.928   6.971  69.611  1.00  0.00    -0.236 C  
HETATM   29  O   UNK A   0     -10.964   5.793  69.944  1.00  0.00    -0.344 OA 
ATOM     30  N   GLU A   1     -11.584   7.980  70.312  1.00  0.00    -0.471 N  
ATOM     31  H   GLU A   1     -11.592   8.935  69.952  1.00  0.00     0.000 HD 
BRANCH  30  32
ATOM     32  CA  GLU A   1     -12.267   7.655  71.581  1.00  0.00    -0.317 C  
ATOM     33  O   GLU A   1     -13.235   9.829  71.157  1.00  0.00    -0.371 OA 
ATOM     34  C   GLU A   1     -13.419   8.653  71.809  1.00  0.00    -0.382 C  
ATOM     35  OXT GLU A   1     -14.329   8.486  72.608  1.00  0.00    -0.473 OA 
BRANCH  32  36
ATOM     36  CB  GLU A   1     -11.274   7.725  72.755  1.00  0.00    -0.456 C  
BRANCH  36  37
ATOM     37  CG  GLU A   1     -10.023   8.554  72.442  1.00  0.00    -0.365 C  
ATOM     38  CD  GLU A   1      -8.831   8.150  73.274  1.00  0.00    -0.256 C  
ATOM     39  OE2 GLU A   1      -8.826   7.271  74.118  1.00  0.00    -0.191 OA 
ATOM     40  OE1 GLU A   1      -7.729   8.875  72.973  1.00  0.00    -0.371 OA 
ENDBRANCH  36  37
ENDBRANCH  32  36
ENDBRANCH  30  32
ENDBRANCH  25  28
ENDBRANCH   9  17
TORSDOF 6
ENDMDL
MODEL       11
REMARK 921   NORMALIZED FREE ENERGY PREDICTED BY IDOCK:   -6.66 KCAL/MOL
REMARK 922        TOTAL FREE ENERGY PREDICTED BY IDOCK:  -10.40 KCAL/MOL
REMARK 923 INTER-LIGAND FREE ENERGY PREDICTED BY IDOCK:   -8.31 KCAL/MOL
REMARK 924 INTRA-LIGAND FREE ENERGY PREDICTED BY IDOCK:   -2.10 KCAL/MOL
REMARK 927      BINDING AFFINITY PREDICTED BY RF-SCORE:    0.00 PKD
ROOT
HETATM    1  N   UNK A   0     -12.786  14.463  64.891  1.00  0.00    -0.620 NA 
HETATM    2  C   UNK A   0     -12.099  13.276  64.975  1.00  0.00    -0.408 A  
HETATM    3  H2  UNK A   0     -13.376  14.785  65.657  1.00  0.00     0.000 HD 
HETATM    4  H1  UNK A   0     -12.684  15.011  64.037  1.00  0.00     0.000 HD 
HETATM    5  N   UNK A   0     -12.231  12.562  66.088  1.00  0.00    -0.608 NA 
HETATM    6  C   UNK A   0     -11.500  11.455  66.205  1.00  0.00     0.050 A  
HETATM    7  N   UNK A   0     -11.567  10.780  67.359  1.00  0.00    -0.438 NA 
HETATM    8  C   UNK A   0     -10.750   9.713  67.524  1.00  0.00    -0.256 A  
HETATM    9  C   UNK A   0      -9.866   9.282  66.546  1.00  0.00    -0.263 A  
HETATM   10  H2  UNK A   0     -10.098  10.517  62.672  1.00  0.00     0.000 HD 
HETATM   11  N   UNK A   0      -9.821   9.914  65.353  1.00  0.00    -0.311 NA 
HETATM   12  H1  UNK A   0      -9.819  12.055  62.132  1.00  0.00     0.000 HD 
HETATM   13  C   UNK A   0     -10.635  11.004  65.203  1.00  0.00    -0.226 A  
HETATM   14  C   UNK A   0     -10.614  11.815  64.075  1.00  0.00    -0.375 A  
HETATM   15  N   UNK A   0      -9.835  11.459  62.960  1.00  0.00    -0.360 NA 
HETATM   16  N   UNK A   0     -11.329  12.941  63.944  1.00  0.00    -0.415 NA 
ENDROOT
BRANCH   9  17
HETATM   17  C   UNK A   0      -8.845   8.201  66.805  1.00  0.00    -0.156 C  
HETATM   18  C   UNK A   0      -7.366   9.854  68.061  1.00  0.00    -0.084 A  
HETATM   19  C   UNK A   0      -6.545  10.264  66.996  1.00  0.00    -0.074 A  
HETATM   20  C   UNK A   0      -7.680  10.782  69.065  1.00  0.00    -0.133 A  
HETATM   21  C   UNK A   0      -8.001   8.461  68.087  1.00  0.00    -0.119 C  
HETATM   22  C   UNK A   0      -7.287  12.116  68.945  1.00  0.00    -0.054 A  
HETATM   23  C   UNK A   0      -6.149  11.599  66.874  1.00  0.00    -0.148 A  
HETATM   24  C   UNK A   0      -6.916   7.390  68.312  1.00  0.00    -0.079 C  
HETATM   25  C   UNK A   0      -6.574  12.537  67.820  1.00  0.00    -0.121 A  
BRANCH  24  26
HETATM   26  C   UNK A   0      -7.451   6.022  68.447  1.00  0.00    -0.086 C  
HETATM   27  C   UNK A   0      -7.905   4.911  68.485  1.00  0.00    -0.081 C  
ENDBRANCH  24  26
BRANCH  25  28
HETATM   28  C   UNK A   0      -6.285  13.975  67.596  1.00  0.00    -0.093 C  
HETATM   29  O   UNK A   0      -5.135  14.379  67.482  1.00  0.00    -0.327 OA 
ATOM     30  N   GLU A   1      -7.399  14.802  67.472  1.00  0.00    -0.191 N  
ATOM     31  H   GLU A   1      -8.334  14.438  67.655  1.00  0.00     0.000 HD 
BRANCH  30  32
ATOM     32  CA  GLU A   1      -7.212  16.213  67.073  1.00  0.00    -0.221 C  
ATOM     33  O   GLU A   1      -7.563  16.516  69.445  1.00  0.00    -0.215 OA 
ATOM     34  C   GLU A   1      -7.022  17.077  68.335  1.00  0.00    -0.180 C  
ATOM     35  OXT GLU A   1      -6.576  18.216  68.330  1.00  0.00    -0.200 OA 
BRANCH  32  36
ATOM     36  CB  GLU A   1      -8.433  16.709  66.278  1.00  0.00    -0.355 C  
BRANCH  36  37
ATOM     37  CG  GLU A   1      -9.669  15.817  66.447  1.00  0.00    -0.305 C  
ATOM     38  CD  GLU A   1     -10.653  16.366  67.450  1.00  0.00    -0.306 C  
ATOM     39  OE2 GLU A   1     -10.512  17.398  68.084  1.00  0.00    -0.355 OA 
ATOM     40  OE1 GLU A   1     -11.748  15.582  67.574  1.00  0.00    -0.194 OA 
ENDBRANCH  36  37
ENDBRANCH  32  36
ENDBRANCH  30  32
ENDBRANCH  25  28
ENDBRANCH   9  17
TORSDOF 6
ENDMDL
MODEL       12
REMARK 921   NORMALIZED FREE ENERGY PREDICTED BY IDOCK:   -6.62 KCAL/MOL
REMARK 922        TOTAL FREE ENERGY PREDICTED BY IDOCK:  -10.35 KCAL/MOL
REMARK 923 INTER-LIGAND FREE ENERGY PREDICTED BY IDOCK:   -9.33 KCAL/MOL
REMARK 924 INTRA-LIGAND FREE ENERGY PREDICTED BY IDOCK:   -1.02 KCAL/MOL
REMARK 927      BINDING AFFINITY PREDICTED BY RF-SCORE:    0.00 PKD
ROOT
HETATM    1  N   UNK A   0     -11.421   4.623  64.998  1.00  0.00    -1.079 NA 
HETATM    2  C   UNK A   0     -10.464   4.962  65.924  1.00  0.00    -0.239 A  
HETATM    3  H2  UNK A   0     -12.342   4.295  65.288  1.00  0.00     0.000 HD 
HETATM    4  H1  UNK A   0     -11.179   4.710  64.011  1.00  0.00     0.000 HD 
HETATM    5  N   UNK A   0     -10.780   4.849  67.210  1.00  0.00     0.065 NA 
HETATM    6  C   UNK A   0      -9.885   5.259  68.107  1.00  0.00    -0.150 A  
HETATM    7  N   UNK A   0     -10.233   5.225  69.399  1.00  0.00    -0.244 NA 
HETATM    8  C   UNK A   0      -9.369   5.735  70.308  1.00  0.00    -0.156 A  
HETATM    9  C   UNK A   0      -8.138   6.271  69.959  1.00  0.00    -0.120 A  
HETATM   10  H2  UNK A   0      -6.431   5.672  66.311  1.00  0.00     0.000 HD 
HETATM   11  N   UNK A   0      -7.742   6.264  68.668  1.00  0.00    -0.099 NA 
HETATM   12  H1  UNK A   0      -7.001   6.255  64.872  1.00  0.00     0.000 HD 
HETATM   13  C   UNK A   0      -8.631   5.766  67.753  1.00  0.00    -0.101 A  
HETATM   14  C   UNK A   0      -8.406   5.799  66.383  1.00  0.00    -0.113 A  
HETATM   15  N   UNK A   0      -7.167   6.231  65.878  1.00  0.00    -0.073 NA 
HETATM   16  N   UNK A   0      -9.299   5.407  65.464  1.00  0.00    -0.096 NA 
ENDROOT
BRANCH   9  17
HETATM   17  C   UNK A   0      -7.261   6.987  70.957  1.00  0.00    -0.075 C  
HETATM   18  C   UNK A   0      -8.822   9.003  70.929  1.00  0.00    -0.294 A  
HETATM   19  C   UNK A   0      -8.177   9.763  69.937  1.00  0.00    -0.196 A  
HETATM   20  C   UNK A   0     -10.218   9.079  71.035  1.00  0.00    -0.347 A  
HETATM   21  C   UNK A   0      -8.043   8.024  71.814  1.00  0.00    -0.142 C  
HETATM   22  C   UNK A   0     -10.961   9.798  70.098  1.00  0.00    -0.339 A  
HETATM   23  C   UNK A   0      -8.919  10.485  68.998  1.00  0.00    -0.183 A  
HETATM   24  C   UNK A   0      -7.134   8.800  72.786  1.00  0.00     0.099 C  
HETATM   25  C   UNK A   0     -10.316  10.451  69.045  1.00  0.00    -0.232 A  
BRANCH  24  26
HETATM   26  C   UNK A   0      -6.417   7.939  73.744  1.00  0.00    -0.102 C  
HETATM   27  C   UNK A   0      -5.771   7.273  74.508  1.00  0.00    -0.070 C  
ENDBRANCH  24  26
BRANCH  25  28
HETATM   28  C   UNK A   0     -11.094  11.085  67.952  1.00  0.00    -0.288 C  
HETATM   29  O   UNK A   0     -12.275  11.375  68.101  1.00  0.00    -0.602 OA 
ATOM     30  N   GLU A   1     -10.381  11.371  66.790  1.00  0.00    -0.225 N  
ATOM     31  H   GLU A   1      -9.423  11.038  66.679  1.00  0.00     0.000 HD 
BRANCH  30  32
ATOM     32  CA  GLU A   1     -11.027  12.159  65.720  1.00  0.00    -0.297 C  
ATOM     33  O   GLU A   1      -9.806  10.575  64.362  1.00  0.00    -0.296 OA 
ATOM     34  C   GLU A   1     -10.868  11.420  64.377  1.00  0.00    -0.330 C  
ATOM     35  OXT GLU A   1     -11.518  11.667  63.371  1.00  0.00    -0.393 OA 
BRANCH  32  36
ATOM     36  CB  GLU A   1     -10.388  13.556  65.627  1.00  0.00    -0.303 C  
BRANCH  36  37
ATOM     37  CG  GLU A   1     -11.058  14.461  64.585  1.00  0.00    -0.363 C  
ATOM     38  CD  GLU A   1     -10.982  15.924  64.947  1.00  0.00    -0.411 C  
ATOM     39  OE2 GLU A   1     -10.462  16.375  65.953  1.00  0.00    -0.338 OA 
ATOM     40  OE1 GLU A   1     -11.558  16.712  64.010  1.00  0.00    -1.197 OA 
ENDBRANCH  36  37
ENDBRANCH  32  36
ENDBRANCH  30  32
ENDBRANCH  25  28
ENDBRANCH   9  17
TORSDOF 6
ENDMDL
MODEL       13
REMARK 921   NORMALIZED FREE ENERGY PREDICTED BY IDOCK:   -6.58 KCAL/MOL
REMARK 922        TOTAL FREE ENERGY PREDICTED BY IDOCK:  -10.30 KCAL/MOL
REMARK 923 INTER-LIGAND FREE ENERGY PREDICTED BY IDOCK:   -9.08 KCAL/MOL
REMARK 924 INTRA-LIGAND FREE ENERGY PREDICTED BY IDOCK:   -1.22 KCAL/MOL
REMARK 927      BINDING AFFINITY PREDICTED BY RF-SCORE:    0.00 PKD
ROOT
HETATM    1  N   UNK A   0     -12.932  14.371  71.207  1.00  0.00    -0.327 NA 
HETATM    2  C   UNK A   0     -12.756  13.056  70.848  1.00  0.00    -0.217 A  
HETATM    3  H2  UNK A   0     -13.197  14.626  72.158  1.00  0.00     0.000 HD 
HETATM    4  H1  UNK A   0     -12.788  15.082  70.491  1.00  0.00     0.000 HD 
HETATM    5  N   UNK A   0     -12.943  12.129  71.781  1.00  0.00    -0.380 NA 
HETATM    6  C   UNK A   0     -12.689  10.862  71.457  1.00  0.00    -0.428 A  
HETATM    7  N   UNK A   0     -12.795   9.938  72.418  1.00  0.00    -0.250 NA 
HETATM    8  C   UNK A   0     -12.439   8.665  72.123  1.00  0.00    -0.389 A  
HETATM    9  C   UNK A   0     -11.991   8.280  70.869  1.00  0.00    -0.180 A  
HETATM   10  H2  UNK A   0     -12.448  10.606  67.558  1.00  0.00     0.000 HD 
HETATM   11  N   UNK A   0     -11.930   9.184  69.868  1.00  0.00     0.345 NA 
HETATM   12  H1  UNK A   0     -11.702  12.058  67.289  1.00  0.00     0.000 HD 
HETATM   13  C   UNK A   0     -12.271  10.473  70.181  1.00  0.00    -0.280 A  
HETATM   14  C   UNK A   0     -12.149  11.528  69.285  1.00  0.00    -0.278 A  
HETATM   15  N   UNK A   0     -11.792  11.284  67.947  1.00  0.00    -0.634 NA 
HETATM   16  N   UNK A   0     -12.383  12.810  69.596  1.00  0.00    -0.087 NA 
ENDROOT
BRANCH   9  17
HETATM   17  C   UNK A   0     -11.439   6.900  70.600  1.00  0.00    -0.383 C  
HETATM   18  C   UNK A   0      -9.260   7.905  69.739  1.00  0.00    -0.150 A  
HETATM   19  C   UNK A   0      -9.573   7.960  68.370  1.00  0.00    -0.155 A  
HETATM   20  C   UNK A   0      -8.436   8.901  70.283  1.00  0.00    -0.168 A  
HETATM   21  C   UNK A   0      -9.885   6.849  70.658  1.00  0.00    -0.191 C  
HETATM   22  C   UNK A   0      -8.035   9.990  69.507  1.00  0.00    -0.161 A  
HETATM   23  C   UNK A   0      -9.171   9.048  67.590  1.00  0.00    -0.150 A  
HETATM   24  C   UNK A   0      -9.322   5.456  70.319  1.00  0.00    -0.198 C  
HETATM   25  C   UNK A   0      -8.453  10.093  68.178  1.00  0.00    -0.118 A  
BRANCH  24  26
HETATM   26  C   UNK A   0      -9.797   4.389  71.219  1.00  0.00    -0.260 C  
HETATM   27  C   UNK A   0     -10.115   3.511  71.975  1.00  0.00    -0.187 C  
ENDBRANCH  24  26
BRANCH  25  28
HETATM   28  C   UNK A   0      -8.172  11.316  67.385  1.00  0.00    -0.135 C  
HETATM   29  O   UNK A   0      -7.212  11.372  66.627  1.00  0.00    -0.140 OA 
ATOM     30  N   GLU A   1      -9.094  12.351  67.524  1.00  0.00    -0.177 N  
ATOM     31  H   GLU A   1      -9.831  12.293  68.227  1.00  0.00     0.000 HD 
BRANCH  30  32
ATOM     32  CA  GLU A   1      -8.992  13.533  66.643  1.00  0.00    -0.117 C  
ATOM     33  O   GLU A   1      -8.243  14.521  68.718  1.00  0.00    -0.151 OA 
ATOM     34  C   GLU A   1      -8.202  14.641  67.367  1.00  0.00    -0.201 C  
ATOM     35  OXT GLU A   1      -7.717  15.617  66.814  1.00  0.00    -0.217 OA 
BRANCH  32  36
ATOM     36  CB  GLU A   1     -10.396  14.047  66.276  1.00  0.00    -0.294 C  
BRANCH  36  37
ATOM     37  CG  GLU A   1     -10.747  13.848  64.796  1.00  0.00    -0.437 C  
ATOM     38  CD  GLU A   1     -12.234  13.848  64.543  1.00  0.00    -0.417 C  
ATOM     39  OE2 GLU A   1     -13.094  13.979  65.396  1.00  0.00    -0.763 OA 
ATOM     40  OE1 GLU A   1     -12.529  13.693  63.232  1.00  0.00    -0.801 OA 
ENDBRANCH  36  37
ENDBRANCH  32  36
ENDBRANCH  30  32
ENDBRANCH  25  28
ENDBRANCH   9  17
TORSDOF 6
ENDMDL
MODEL       14
REMARK 921   NORMALIZED FREE ENERGY PREDICTED BY IDOCK:   -6.48 KCAL/MOL
REMARK 922        TOTAL FREE ENERGY PREDICTED BY IDOCK:  -10.16 KCAL/MOL
REMARK 923 INTER-LIGAND FREE ENERGY PREDICTED BY IDOCK:   -8.66 KCAL/MOL
REMARK 924 INTRA-LIGAND FREE ENERGY PREDICTED BY IDOCK:   -1.51 KCAL/MOL
REMARK 927      BINDING AFFINITY PREDICTED BY RF-SCORE:    0.00 PKD
ROOT
HETATM    1  N   UNK A   0      -8.924   7.803  74.369  1.00  0.00    -0.433 NA 
HETATM    2  C   UNK A   0      -9.329   7.108  73.255  1.00  0.00    -0.168 A  
HETATM    3  H2  UNK A   0      -7.962   7.751  74.701  1.00  0.00     0.000 HD 
HETATM    4  H1  UNK A   0      -9.619   8.373  74.852  1.00  0.00     0.000 HD 
HETATM    5  N   UNK A   0      -8.424   6.366  72.625  1.00  0.00    -0.122 NA 
HETATM    6  C   UNK A   0      -8.793   5.761  71.498  1.00  0.00    -0.136 A  
HETATM    7  N   UNK A   0      -7.861   5.083  70.818  1.00  0.00    -0.081 NA 
HETATM    8  C   UNK A   0      -8.203   4.553  69.620  1.00  0.00    -0.063 A  
HETATM    9  C   UNK A   0      -9.476   4.666  69.081  1.00  0.00    -0.157 A  
HETATM   10  H2  UNK A   0     -12.701   5.822  71.282  1.00  0.00     0.000 HD 
HETATM   11  N   UNK A   0     -10.447   5.297  69.775  1.00  0.00    -0.300 NA 
HETATM   12  H1  UNK A   0     -12.933   7.323  71.938  1.00  0.00     0.000 HD 
HETATM   13  C   UNK A   0     -10.087   5.849  70.976  1.00  0.00    -0.200 A  
HETATM   14  C   UNK A   0     -10.950   6.622  71.743  1.00  0.00    -0.240 A  
HETATM   15  N   UNK A   0     -12.300   6.756  71.375  1.00  0.00    -0.364 NA 
HETATM   16  N   UNK A   0     -10.594   7.252  72.871  1.00  0.00    -0.269 NA 
ENDROOT
BRANCH   9  17
HETATM   17  C   UNK A   0      -9.797   4.220  67.675  1.00  0.00    -0.150 C  
HETATM   18  C   UNK A   0      -9.075   6.485  66.756  1.00  0.00    -0.153 A  
HETATM   19  C   UNK A   0     -10.326   7.127  66.754  1.00  0.00    -0.297 A  
HETATM   20  C   UNK A   0      -7.927   7.249  67.008  1.00  0.00    -0.109 A  
HETATM   21  C   UNK A   0      -8.959   4.966  66.597  1.00  0.00    -0.111 C  
HETATM   22  C   UNK A   0      -8.035   8.594  67.369  1.00  0.00    -0.102 A  
HETATM   23  C   UNK A   0     -10.437   8.473  67.113  1.00  0.00    -0.370 A  
HETATM   24  C   UNK A   0      -9.335   4.555  65.161  1.00  0.00    -0.160 C  
HETATM   25  C   UNK A   0      -9.294   9.189  67.480  1.00  0.00    -0.157 A  
BRANCH  24  26
HETATM   26  C   UNK A   0      -9.159   3.117  64.889  1.00  0.00    -0.143 C  
HETATM   27  C   UNK A   0      -9.061   1.931  64.725  1.00  0.00    -0.129 C  
ENDBRANCH  24  26
BRANCH  25  28
HETATM   28  C   UNK A   0      -9.440  10.566  68.014  1.00  0.00    -0.148 C  
HETATM   29  O   UNK A   0      -8.463  11.216  68.363  1.00  0.00    -0.137 OA 
ATOM     30  N   GLU A   1     -10.738  11.071  68.035  1.00  0.00    -0.201 N  
ATOM     31  H   GLU A   1     -11.530  10.467  67.813  1.00  0.00     0.000 HD 
BRANCH  30  32
ATOM     32  CA  GLU A   1     -10.957  12.491  68.383  1.00  0.00    -0.248 C  
ATOM     33  O   GLU A   1     -12.483  11.460  69.949  1.00  0.00    -0.221 OA 
ATOM     34  C   GLU A   1     -11.749  12.575  69.702  1.00  0.00    -0.302 C  
ATOM     35  OXT GLU A   1     -11.845  13.583  70.386  1.00  0.00    -0.297 OA 
BRANCH  32  36
ATOM     36  CB  GLU A   1     -11.733  13.202  67.260  1.00  0.00    -0.425 C  
BRANCH  36  37
ATOM     37  CG  GLU A   1     -11.907  12.340  66.003  1.00  0.00    -0.409 C  
ATOM     38  CD  GLU A   1     -12.665  13.050  64.909  1.00  0.00    -0.390 C  
ATOM     39  OE2 GLU A   1     -13.113  14.181  64.981  1.00  0.00    -0.728 OA 
ATOM     40  OE1 GLU A   1     -12.793  12.286  63.799  1.00  0.00    -0.735 OA 
ENDBRANCH  36  37
ENDBRANCH  32  36
ENDBRANCH  30  32
ENDBRANCH  25  28
ENDBRANCH   9  17
TORSDOF 6
ENDMDL
MODEL       15
REMARK 921   NORMALIZED FREE ENERGY PREDICTED BY IDOCK:   -6.43 KCAL/MOL
REMARK 922        TOTAL FREE ENERGY PREDICTED BY IDOCK:  -10.10 KCAL/MOL
REMARK 923 INTER-LIGAND FREE ENERGY PREDICTED BY IDOCK:   -9.55 KCAL/MOL
REMARK 924 INTRA-LIGAND FREE ENERGY PREDICTED BY IDOCK:   -0.55 KCAL/MOL
REMARK 927      BINDING AFFINITY PREDICTED BY RF-SCORE:    0.00 PKD
ROOT
HETATM    1  N   UNK A   0     -13.344   9.065  73.116  1.00  0.00    -0.861 NA 
HETATM    2  C   UNK A   0     -12.515   8.891  72.034  1.00  0.00    -0.392 A  
HETATM    3  H2  UNK A   0     -13.962   9.873  73.182  1.00  0.00     0.000 HD 
HETATM    4  H1  UNK A   0     -13.320   8.358  73.851  1.00  0.00     0.000 HD 
HETATM    5  N   UNK A   0     -12.546   9.811  71.076  1.00  0.00    -0.322 NA 
HETATM    6  C   UNK A   0     -11.807   9.600  69.989  1.00  0.00     0.045 A  
HETATM    7  N   UNK A   0     -11.901  10.482  68.987  1.00  0.00    -0.218 NA 
HETATM    8  C   UNK A   0     -11.234  10.220  67.839  1.00  0.00    -0.220 A  
HETATM    9  C   UNK A   0     -10.446   9.092  67.666  1.00  0.00    -0.261 A  
HETATM   10  H2  UNK A   0      -9.229   6.761  70.775  1.00  0.00     0.000 HD 
HETATM   11  N   UNK A   0     -10.291   8.217  68.683  1.00  0.00    -0.208 NA 
HETATM   12  H1  UNK A   0     -10.212   5.829  71.725  1.00  0.00     0.000 HD 
HETATM   13  C   UNK A   0     -10.987   8.478  69.833  1.00  0.00    -0.165 A  
HETATM   14  C   UNK A   0     -11.012   7.610  70.917  1.00  0.00    -0.250 A  
HETATM   15  N   UNK A   0     -10.194   6.467  70.929  1.00  0.00    -0.187 NA 
HETATM   16  N   UNK A   0     -11.761   7.797  72.012  1.00  0.00    -0.290 NA 
ENDROOT
BRANCH   9  17
HETATM   17  C   UNK A   0      -9.846   8.727  66.330  1.00  0.00    -0.342 C  
HETATM   18  C   UNK A   0      -8.898  11.080  66.076  1.00  0.00    -0.199 A  
HETATM   19  C   UNK A   0      -9.954  11.662  65.353  1.00  0.00    -0.287 A  
HETATM   20  C   UNK A   0      -8.178  11.877  66.977  1.00  0.00    -0.170 A  
HETATM   21  C   UNK A   0      -8.595   9.581  65.974  1.00  0.00    -0.145 C  
HETATM   22  C   UNK A   0      -8.580  13.187  67.241  1.00  0.00    -0.210 A  
HETATM   23  C   UNK A   0     -10.357  12.975  65.614  1.00  0.00    -0.294 A  
HETATM   24  C   UNK A   0      -8.024   9.251  64.582  1.00  0.00    -0.125 C  
HETATM   25  C   UNK A   0      -9.705  13.716  66.604  1.00  0.00    -0.287 A  
BRANCH  24  26
HETATM   26  C   UNK A   0      -7.613   7.844  64.428  1.00  0.00    -0.116 C  
HETATM   27  C   UNK A   0      -7.324   6.680  64.357  1.00  0.00    -0.087 C  
ENDBRANCH  24  26
BRANCH  25  28
HETATM   28  C   UNK A   0     -10.241  15.046  66.987  1.00  0.00    -0.257 C  
HETATM   29  O   UNK A   0     -10.873  15.726  66.188  1.00  0.00    -0.309 OA 
ATOM     30  N   GLU A   1     -10.024  15.427  68.309  1.00  0.00    -0.212 N  
ATOM     31  H   GLU A   1      -9.424  14.867  68.914  1.00  0.00     0.000 HD 
BRANCH  30  32
ATOM     32  CA  GLU A   1     -10.673  16.651  68.825  1.00  0.00    -0.342 C  
ATOM     33  O   GLU A   1      -8.360  17.342  68.959  1.00  0.00    -0.212 OA 
ATOM     34  C   GLU A   1      -9.638  17.792  68.876  1.00  0.00    -0.222 C  
ATOM     35  OXT GLU A   1      -9.921  18.975  68.990  1.00  0.00    -0.402 OA 
BRANCH  32  36
ATOM     36  CB  GLU A   1     -11.245  16.399  70.231  1.00  0.00    -0.259 C  
BRANCH  36  37
ATOM     37  CG  GLU A   1     -12.463  15.468  70.233  1.00  0.00    -0.403 C  
ATOM     38  CD  GLU A   1     -13.153  15.411  71.573  1.00  0.00    -0.467 C  
ATOM     39  OE2 GLU A   1     -12.804  16.017  72.572  1.00  0.00    -0.442 OA 
ATOM     40  OE1 GLU A   1     -14.238  14.603  71.555  1.00  0.00    -0.430 OA 
ENDBRANCH  36  37
ENDBRANCH  32  36
ENDBRANCH  30  32
ENDBRANCH  25  28
ENDBRANCH   9  17
TORSDOF 6
ENDMDL
MODEL       16
REMARK 921   NORMALIZED FREE ENERGY PREDICTED BY IDOCK:   -6.37 KCAL/MOL
REMARK 922        TOTAL FREE ENERGY PREDICTED BY IDOCK:  -10.01 KCAL/MOL
REMARK 923 INTER-LIGAND FREE ENERGY PREDICTED BY IDOCK:   -8.39 KCAL/MOL
REMARK 924 INTRA-LIGAND FREE ENERGY PREDICTED BY IDOCK:   -1.62 KCAL/MOL
REMARK 927      BINDING AFFINITY PREDICTED BY RF-SCORE:    0.00 PKD
ROOT
HETATM    1  N   UNK A   0     -13.881   9.063  73.179  1.00  0.00    -1.177 NA 
HETATM    2  C   UNK A   0     -12.899   9.308  72.249  1.00  0.00    -0.384 A  
HETATM    3  H2  UNK A   0     -14.808   9.479  73.088  1.00  0.00     0.000 HD 
HETATM    4  H1  UNK A   0     -13.652   8.452  73.962  1.00  0.00     0.000 HD 
HETATM    5  N   UNK A   0     -13.198  10.105  71.228  1.00  0.00    -0.378 NA 
HETATM    6  C   UNK A   0     -12.275  10.274  70.282  1.00  0.00    -0.221 A  
HETATM    7  N   UNK A   0     -12.603  11.007  69.213  1.00  0.00    -0.274 NA 
HETATM    8  C   UNK A   0     -11.709  11.097  68.200  1.00  0.00    -0.232 A  
HETATM    9  C   UNK A   0     -10.467  10.482  68.236  1.00  0.00    -0.183 A  
HETATM   10  H2  UNK A   0      -8.839   9.005  71.664  1.00  0.00     0.000 HD 
HETATM   11  N   UNK A   0     -10.091   9.784  69.329  1.00  0.00    -0.186 NA 
HETATM   12  H1  UNK A   0      -9.412   7.715  72.526  1.00  0.00     0.000 HD 
HETATM   13  C   UNK A   0     -11.011   9.679  70.339  1.00  0.00    -0.299 A  
HETATM   14  C   UNK A   0     -10.807   8.901  71.471  1.00  0.00    -0.326 A  
HETATM   15  N   UNK A   0      -9.562   8.286  71.694  1.00  0.00    -0.179 NA 
HETATM   16  N   UNK A   0     -11.727   8.706  72.425  1.00  0.00    -0.357 NA 
ENDROOT
BRANCH   9  17
HETATM   17  C   UNK A   0      -9.550  10.450  67.036  1.00  0.00    -0.197 C  
HETATM   18  C   UNK A   0      -9.690   7.906  66.957  1.00  0.00    -0.269 A  
HETATM   19  C   UNK A   0      -8.557   7.602  67.732  1.00  0.00    -0.121 A  
HETATM   20  C   UNK A   0     -10.799   7.049  67.021  1.00  0.00    -0.413 A  
HETATM   21  C   UNK A   0      -9.773   9.198  66.139  1.00  0.00    -0.357 C  
HETATM   22  C   UNK A   0     -10.822   5.986  67.925  1.00  0.00    -0.378 A  
HETATM   23  C   UNK A   0      -8.577   6.537  68.637  1.00  0.00    -0.124 A  
HETATM   24  C   UNK A   0      -8.793   9.135  64.952  1.00  0.00    -0.215 C  
HETATM   25  C   UNK A   0      -9.735   5.767  68.775  1.00  0.00    -0.168 A  
BRANCH  24  26
HETATM   26  C   UNK A   0      -8.874  10.300  64.052  1.00  0.00    -0.237 C  
HETATM   27  C   UNK A   0      -8.929  11.203  63.262  1.00  0.00    -0.137 C  
ENDBRANCH  24  26
BRANCH  25  28
HETATM   28  C   UNK A   0      -9.804   4.746  69.850  1.00  0.00    -0.221 C  
HETATM   29  O   UNK A   0      -9.892   3.554  69.585  1.00  0.00    -0.110 OA 
ATOM     30  N   GLU A   1      -9.706   5.231  71.152  1.00  0.00    -0.166 N  
ATOM     31  H   GLU A   1      -9.717   6.236  71.329  1.00  0.00     0.000 HD 
BRANCH  30  32
ATOM     32  CA  GLU A   1      -9.586   4.276  72.274  1.00  0.00    -0.141 C  
ATOM     33  O   GLU A   1     -11.435   5.608  73.082  1.00  0.00    -0.240 OA 
ATOM     34  C   GLU A   1     -10.828   4.398  73.179  1.00  0.00    -0.240 C  
ATOM     35  OXT GLU A   1     -11.156   3.569  74.015  1.00  0.00    -0.186 OA 
BRANCH  32  36
ATOM     36  CB  GLU A   1      -8.314   4.567  73.089  1.00  0.00    -0.099 C  
BRANCH  36  37
ATOM     37  CG  GLU A   1      -7.025   4.432  72.269  1.00  0.00    -0.059 C  
ATOM     38  CD  GLU A   1      -6.405   5.766  71.930  1.00  0.00    -0.045 C  
ATOM     39  OE2 GLU A   1      -6.856   6.853  72.249  1.00  0.00    -0.061 OA 
ATOM     40  OE1 GLU A   1      -5.259   5.632  71.226  1.00  0.00    -0.009 OA 
ENDBRANCH  36  37
ENDBRANCH  32  36
ENDBRANCH  30  32
ENDBRANCH  25  28
ENDBRANCH   9  17
TORSDOF 6
ENDMDL
MODEL       17
REMARK 921   NORMALIZED FREE ENERGY PREDICTED BY IDOCK:   -6.33 KCAL/MOL
REMARK 922        TOTAL FREE ENERGY PREDICTED BY IDOCK:   -9.97 KCAL/MOL
REMARK 923 INTER-LIGAND FREE ENERGY PREDICTED BY IDOCK:   -8.53 KCAL/MOL
REMARK 924 INTRA-LIGAND FREE ENERGY PREDICTED BY IDOCK:   -1.43 KCAL/MOL
REMARK 927      BINDING AFFINITY PREDICTED BY RF-SCORE:    0.00 PKD
ROOT
HETATM    1  N   UNK A   0     -12.994  12.303  63.116  1.00  0.00    -0.680 NA 
HETATM    2  C   UNK A   0     -12.068  12.165  64.121  1.00  0.00    -0.409 A  
HETATM    3  H2  UNK A   0     -12.758  12.085  62.148  1.00  0.00     0.000 HD 
HETATM    4  H1  UNK A   0     -13.926  12.631  63.370  1.00  0.00     0.000 HD 
HETATM    5  N   UNK A   0     -10.854  11.737  63.791  1.00  0.00    -0.385 NA 
HETATM    6  C   UNK A   0      -9.983  11.522  64.775  1.00  0.00    -0.260 A  
HETATM    7  N   UNK A   0      -8.789  11.011  64.453  1.00  0.00    -0.058 NA 
HETATM    8  C   UNK A   0      -7.938  10.692  65.456  1.00  0.00    -0.116 A  
HETATM    9  C   UNK A   0      -8.243  10.891  66.794  1.00  0.00    -0.140 A  
HETATM   10  H2  UNK A   0     -11.332  13.243  68.022  1.00  0.00     0.000 HD 
HETATM   11  N   UNK A   0      -9.419  11.457  67.140  1.00  0.00    -0.174 NA 
HETATM   12  H1  UNK A   0     -12.938  12.925  67.787  1.00  0.00     0.000 HD 
HETATM   13  C   UNK A   0     -10.282  11.756  66.121  1.00  0.00    -0.220 A  
HETATM   14  C   UNK A   0     -11.568  12.237  66.333  1.00  0.00    -0.383 A  
HETATM   15  N   UNK A   0     -11.994  12.573  67.631  1.00  0.00    -0.452 NA 
HETATM   16  N   UNK A   0     -12.465  12.445  65.359  1.00  0.00    -0.613 NA 
ENDROOT
BRANCH   9  17
HETATM   17  C   UNK A   0      -7.359  10.377  67.905  1.00  0.00    -0.086 C  
HETATM   18  C   UNK A   0      -7.189  12.720  68.896  1.00  0.00    -0.039 A  
HETATM   19  C   UNK A   0      -6.008  13.140  68.258  1.00  0.00    -0.090 A  
HETATM   20  C   UNK A   0      -8.182  13.671  69.168  1.00  0.00     0.376 A  
HETATM   21  C   UNK A   0      -7.448  11.240  69.197  1.00  0.00    -0.084 C  
HETATM   22  C   UNK A   0      -8.054  14.982  68.707  1.00  0.00    -0.166 A  
HETATM   23  C   UNK A   0      -5.876  14.453  67.797  1.00  0.00    -0.093 A  
HETATM   24  C   UNK A   0      -6.497  10.752  70.306  1.00  0.00    -0.128 C  
HETATM   25  C   UNK A   0      -6.928  15.357  67.969  1.00  0.00    -0.144 A  
BRANCH  24  26
HETATM   26  C   UNK A   0      -6.741   9.361  70.728  1.00  0.00    -0.105 C  
HETATM   27  C   UNK A   0      -6.871   8.224  71.096  1.00  0.00    -0.052 C  
ENDBRANCH  24  26
BRANCH  25  28
HETATM   28  C   UNK A   0      -6.845  16.696  67.335  1.00  0.00    -0.165 C  
HETATM   29  O   UNK A   0      -6.337  16.843  66.231  1.00  0.00    -0.234 OA 
ATOM     30  N   GLU A   1      -7.426  17.740  68.052  1.00  0.00    -0.220 N  
ATOM     31  H   GLU A   1      -7.763  17.588  69.002  1.00  0.00     0.000 HD 
BRANCH  30  32
ATOM     32  CA  GLU A   1      -7.547  19.071  67.421  1.00  0.00    -0.230 C  
ATOM     33  O   GLU A   1      -6.485  19.712  69.495  1.00  0.00    -0.310 OA 
ATOM     34  C   GLU A   1      -6.696  20.087  68.208  1.00  0.00    -0.289 C  
ATOM     35  OXT GLU A   1      -6.370  21.187  67.788  1.00  0.00    -0.340 OA 
BRANCH  32  36
ATOM     36  CB  GLU A   1      -9.018  19.522  67.405  1.00  0.00    -0.368 C  
BRANCH  36  37
ATOM     37  CG  GLU A   1      -9.737  19.202  66.089  1.00  0.00    -0.360 C  
ATOM     38  CD  GLU A   1     -10.404  17.849  66.101  1.00  0.00    -0.352 C  
ATOM     39  OE2 GLU A   1     -10.389  17.064  67.033  1.00  0.00    -0.305 OA 
ATOM     40  OE1 GLU A   1     -11.052  17.589  64.942  1.00  0.00    -0.860 OA 
ENDBRANCH  36  37
ENDBRANCH  32  36
ENDBRANCH  30  32
ENDBRANCH  25  28
ENDBRANCH   9  17
TORSDOF 6
ENDMDL
MODEL       18
REMARK 921   NORMALIZED FREE ENERGY PREDICTED BY IDOCK:   -6.31 KCAL/MOL
REMARK 922        TOTAL FREE ENERGY PREDICTED BY IDOCK:   -9.94 KCAL/MOL
REMARK 923 INTER-LIGAND FREE ENERGY PREDICTED BY IDOCK:   -8.27 KCAL/MOL
REMARK 924 INTRA-LIGAND FREE ENERGY PREDICTED BY IDOCK:   -1.67 KCAL/MOL
REMARK 927      BINDING AFFINITY PREDICTED BY RF-SCORE:    0.00 PKD
ROOT
HETATM    1  N   UNK A   0      -5.414  10.241  71.824  1.00  0.00    -0.279 NA 
HETATM    2  C   UNK A   0      -6.146  10.554  70.703  1.00  0.00    -0.089 A  
HETATM    3  H2  UNK A   0      -4.931  10.963  72.356  1.00  0.00     0.000 HD 
HETATM    4  H1  UNK A   0      -5.371   9.261  72.105  1.00  0.00     0.000 HD 
HETATM    5  N   UNK A   0      -6.202  11.831  70.337  1.00  0.00    -0.239 NA 
HETATM    6  C   UNK A   0      -6.979  12.146  69.303  1.00  0.00    -0.010 A  
HETATM    7  N   UNK A   0      -7.103  13.439  68.986  1.00  0.00    -0.088 NA 
HETATM    8  C   UNK A   0      -7.972  13.776  68.003  1.00  0.00    -0.156 A  
HETATM    9  C   UNK A   0      -8.718  12.840  67.303  1.00  0.00    -0.200 A  
HETATM   10  H2  UNK A   0      -7.883   8.855  67.385  1.00  0.00     0.000 HD 
HETATM   11  N   UNK A   0      -8.567  11.524  67.568  1.00  0.00    -0.139 NA 
HETATM   12  H1  UNK A   0      -8.028   7.866  68.703  1.00  0.00     0.000 HD 
HETATM   13  C   UNK A   0      -7.703  11.194  68.578  1.00  0.00    -0.129 A  
HETATM   14  C   UNK A   0      -7.533   9.893  69.034  1.00  0.00    -0.083 A  
HETATM   15  N   UNK A   0      -8.153   8.821  68.368  1.00  0.00    -0.116 NA 
HETATM   16  N   UNK A   0      -6.768   9.557  70.082  1.00  0.00    -0.067 NA 
ENDROOT
BRANCH   9  17
HETATM   17  C   UNK A   0      -9.802  13.239  66.332  1.00  0.00    -0.281 C  
HETATM   18  C   UNK A   0     -11.589  12.799  68.096  1.00  0.00    -0.380 A  
HETATM   19  C   UNK A   0     -11.895  11.467  67.767  1.00  0.00    -0.228 A  
HETATM   20  C   UNK A   0     -11.665  13.197  69.438  1.00  0.00    -0.386 A  
HETATM   21  C   UNK A   0     -11.077  13.783  67.038  1.00  0.00    -0.313 C  
HETATM   22  C   UNK A   0     -11.919  12.260  70.441  1.00  0.00    -0.349 A  
HETATM   23  C   UNK A   0     -12.152  10.527  68.769  1.00  0.00     0.176 A  
HETATM   24  C   UNK A   0     -12.206  14.128  66.048  1.00  0.00    -0.464 C  
HETATM   25  C   UNK A   0     -12.103  10.915  70.112  1.00  0.00    -0.431 A  
BRANCH  24  26
HETATM   26  C   UNK A   0     -11.829  15.145  65.049  1.00  0.00    -0.180 C  
HETATM   27  C   UNK A   0     -11.593  15.992  64.230  1.00  0.00    -0.139 C  
ENDBRANCH  24  26
BRANCH  25  28
HETATM   28  C   UNK A   0     -12.216   9.881  71.170  1.00  0.00    -0.373 C  
HETATM   29  O   UNK A   0     -13.063   9.967  72.051  1.00  0.00    -0.423 OA 
ATOM     30  N   GLU A   1     -11.343   8.801  71.056  1.00  0.00    -0.267 N  
ATOM     31  H   GLU A   1     -10.601   8.811  70.356  1.00  0.00     0.000 HD 
BRANCH  30  32
ATOM     32  CA  GLU A   1     -11.502   7.643  71.959  1.00  0.00    -0.283 C  
ATOM     33  O   GLU A   1      -9.340   8.430  72.702  1.00  0.00    -0.262 OA 
ATOM     34  C   GLU A   1     -10.432   7.711  73.067  1.00  0.00    -0.356 C  
ATOM     35  OXT GLU A   1     -10.472   7.066  74.105  1.00  0.00    -0.335 OA 
BRANCH  32  36
ATOM     36  CB  GLU A   1     -11.357   6.329  71.172  1.00  0.00    -0.364 C  
BRANCH  36  37
ATOM     37  CG  GLU A   1     -11.446   6.519  69.653  1.00  0.00    -0.417 C  
ATOM     38  CD  GLU A   1     -10.559   5.565  68.891  1.00  0.00    -0.188 C  
ATOM     39  OE2 GLU A   1      -9.830   4.727  69.394  1.00  0.00    -0.186 OA 
ATOM     40  OE1 GLU A   1     -10.662   5.730  67.553  1.00  0.00    -0.252 OA 
ENDBRANCH  36  37
ENDBRANCH  32  36
ENDBRANCH  30  32
ENDBRANCH  25  28
ENDBRANCH   9  17
TORSDOF 6
ENDMDL
MODEL       19
REMARK 921   NORMALIZED FREE ENERGY PREDICTED BY IDOCK:   -6.31 KCAL/MOL
REMARK 922        TOTAL FREE ENERGY PREDICTED BY IDOCK:   -9.94 KCAL/MOL
REMARK 923 INTER-LIGAND FREE ENERGY PREDICTED BY IDOCK:   -8.72 KCAL/MOL
REMARK 924 INTRA-LIGAND FREE ENERGY PREDICTED BY IDOCK:   -1.21 KCAL/MOL
REMARK 927      BINDING AFFINITY PREDICTED BY RF-SCORE:    0.00 PKD
ROOT
HETATM    1  N   UNK A   0      -9.590   9.182  65.193  1.00  0.00    -0.446 NA 
HETATM    2  C   UNK A   0      -9.296   8.561  66.382  1.00  0.00    -0.213 A  
HETATM    3  H2  UNK A   0     -10.194   8.738  64.502  1.00  0.00     0.000 HD 
HETATM    4  H1  UNK A   0      -9.185  10.103  65.025  1.00  0.00     0.000 HD 
HETATM    5  N   UNK A   0      -9.826   7.361  66.602  1.00  0.00    -0.209 NA 
HETATM    6  C   UNK A   0      -9.611   6.796  67.788  1.00  0.00    -0.124 A  
HETATM    7  N   UNK A   0     -10.212   5.628  68.043  1.00  0.00    -0.173 NA 
HETATM    8  C   UNK A   0     -10.083   5.099  69.282  1.00  0.00    -0.213 A  
HETATM    9  C   UNK A   0      -9.342   5.704  70.286  1.00  0.00    -0.152 A  
HETATM   10  H2  UNK A   0      -6.686   8.704  69.558  1.00  0.00     0.000 HD 
HETATM   11  N   UNK A   0      -8.680   6.854  70.035  1.00  0.00    -0.141 NA 
HETATM   12  H1  UNK A   0      -7.070  10.226  69.036  1.00  0.00     0.000 HD 
HETATM   13  C   UNK A   0      -8.835   7.394  68.786  1.00  0.00    -0.130 A  
HETATM   14  C   UNK A   0      -8.306   8.626  68.423  1.00  0.00    -0.127 A  
HETATM   15  N   UNK A   0      -7.458   9.321  69.303  1.00  0.00    -0.073 NA 
HETATM   16  N   UNK A   0      -8.524   9.219  67.241  1.00  0.00    -0.124 NA 
ENDROOT
BRANCH   9  17
HETATM   17  C   UNK A   0      -9.345   5.193  71.707  1.00  0.00    -0.179 C  
HETATM   18  C   UNK A   0     -11.427   6.567  72.230  1.00  0.00    -0.326 A  
HETATM   19  C   UNK A   0     -10.804   7.723  72.731  1.00  0.00    -0.438 A  
HETATM   20  C   UNK A   0     -12.633   6.701  71.528  1.00  0.00    -0.287 A  
HETATM   21  C   UNK A   0     -10.764   5.191  72.346  1.00  0.00    -0.276 C  
HETATM   22  C   UNK A   0     -13.140   7.967  71.227  1.00  0.00    -0.192 A  
HETATM   23  C   UNK A   0     -11.310   8.991  72.433  1.00  0.00    -0.035 A  
HETATM   24  C   UNK A   0     -10.754   4.731  73.816  1.00  0.00    -0.359 C  
HETATM   25  C   UNK A   0     -12.446   9.112  71.628  1.00  0.00    -0.434 A  
BRANCH  24  26
HETATM   26  C   UNK A   0     -10.218   3.371  74.009  1.00  0.00    -0.211 C  
HETATM   27  C   UNK A   0      -9.851   2.239  74.173  1.00  0.00    -0.138 C  
ENDBRANCH  24  26
BRANCH  25  28
HETATM   28  C   UNK A   0     -12.881  10.459  71.183  1.00  0.00    -0.414 C  
HETATM   29  O   UNK A   0     -13.674  11.118  71.844  1.00  0.00    -0.112 OA 
ATOM     30  N   GLU A   1     -12.289  10.930  70.013  1.00  0.00    -0.330 N  
ATOM     31  H   GLU A   1     -11.698  10.316  69.452  1.00  0.00     0.000 HD 
BRANCH  30  32
ATOM     32  CA  GLU A   1     -12.527  12.326  69.592  1.00  0.00     0.179 C  
ATOM     33  O   GLU A   1     -10.734  11.755  68.074  1.00  0.00    -0.194 OA 
ATOM     34  C   GLU A   1     -11.786  12.591  68.267  1.00  0.00    -0.340 C  
ATOM     35  OXT GLU A   1     -12.006  13.542  67.531  1.00  0.00    -0.361 OA 
BRANCH  32  36
ATOM     36  CB  GLU A   1     -12.029  13.301  70.673  1.00  0.00    -0.268 C  
BRANCH  36  37
ATOM     37  CG  GLU A   1     -12.892  14.563  70.796  1.00  0.00    -0.423 C  
ATOM     38  CD  GLU A   1     -13.523  14.709  72.159  1.00  0.00    -0.395 C  
ATOM     39  OE2 GLU A   1     -13.391  13.926  73.085  1.00  0.00    -0.571 OA 
ATOM     40  OE1 GLU A   1     -14.264  15.836  72.261  1.00  0.00    -0.492 OA 
ENDBRANCH  36  37
ENDBRANCH  32  36
ENDBRANCH  30  32
ENDBRANCH  25  28
ENDBRANCH   9  17
TORSDOF 6
ENDMDL
MODEL       20
REMARK 921   NORMALIZED FREE ENERGY PREDICTED BY IDOCK:   -6.27 KCAL/MOL
REMARK 922        TOTAL FREE ENERGY PREDICTED BY IDOCK:   -9.88 KCAL/MOL
REMARK 923 INTER-LIGAND FREE ENERGY PREDICTED BY IDOCK:   -8.05 KCAL/MOL
REMARK 924 INTRA-LIGAND FREE ENERGY PREDICTED BY IDOCK:   -1.83 KCAL/MOL
REMARK 927      BINDING AFFINITY PREDICTED BY RF-SCORE:    0.00 PKD
ROOT
HETATM    1  N   UNK A   0     -12.462  15.471  69.469  1.00  0.00    -0.594 NA 
HETATM    2  C   UNK A   0     -12.261  14.153  69.134  1.00  0.00    -0.255 A  
HETATM    3  H2  UNK A   0     -12.540  15.760  70.443  1.00  0.00     0.000 HD 
HETATM    4  H1  UNK A   0     -12.531  16.149  68.710  1.00  0.00     0.000 HD 
HETATM    5  N   UNK A   0     -12.170  13.270  70.123  1.00  0.00    -0.328 NA 
HETATM    6  C   UNK A   0     -11.890  12.008  69.804  1.00  0.00    -0.331 A  
HETATM    7  N   UNK A   0     -11.715  11.134  70.802  1.00  0.00    -0.228 NA 
HETATM    8  C   UNK A   0     -11.328   9.875  70.489  1.00  0.00    -0.327 A  
HETATM    9  C   UNK A   0     -11.126   9.451  69.185  1.00  0.00    -0.013 A  
HETATM   10  H2  UNK A   0     -12.458  11.548  65.958  1.00  0.00     0.000 HD 
HETATM   11  N   UNK A   0     -11.351  10.299  68.158  1.00  0.00    -0.256 NA 
HETATM   12  H1  UNK A   0     -11.906  13.030  65.476  1.00  0.00     0.000 HD 
HETATM   13  C   UNK A   0     -11.721  11.577  68.484  1.00  0.00    -0.313 A  
HETATM   14  C   UNK A   0     -11.876  12.584  67.541  1.00  0.00    -0.323 A  
HETATM   15  N   UNK A   0     -11.791  12.290  66.168  1.00  0.00    -0.574 NA 
HETATM   16  N   UNK A   0     -12.142  13.863  67.843  1.00  0.00    -0.342 NA 
ENDROOT
BRANCH   9  17
HETATM   17  C   UNK A   0     -10.533   8.101  68.860  1.00  0.00    -0.202 C  
HETATM   18  C   UNK A   0      -8.182   9.084  68.911  1.00  0.00    -0.120 A  
HETATM   19  C   UNK A   0      -8.043   9.385  67.545  1.00  0.00    -0.110 A  
HETATM   20  C   UNK A   0      -7.561   9.919  69.851  1.00  0.00    -0.167 A  
HETATM   21  C   UNK A   0      -9.078   7.936  69.387  1.00  0.00    -0.145 C  
HETATM   22  C   UNK A   0      -6.922  11.092  69.445  1.00  0.00    -0.126 A  
HETATM   23  C   UNK A   0      -7.402  10.558  67.135  1.00  0.00    -0.093 A  
HETATM   24  C   UNK A   0      -8.454   6.583  68.998  1.00  0.00    -0.125 C  
HETATM   25  C   UNK A   0      -6.895  11.441  68.092  1.00  0.00    -0.064 A  
BRANCH  24  26
HETATM   26  C   UNK A   0      -9.203   5.417  69.501  1.00  0.00    -0.152 C  
HETATM   27  C   UNK A   0      -9.875   4.504  69.897  1.00  0.00    -0.298 C  
ENDBRANCH  24  26
BRANCH  25  28
HETATM   28  C   UNK A   0      -6.362  12.756  67.657  1.00  0.00    -0.153 C  
HETATM   29  O   UNK A   0      -5.377  12.831  66.934  1.00  0.00    -0.324 OA 
ATOM     30  N   GLU A   1      -7.085  13.870  68.078  1.00  0.00    -0.125 N  
ATOM     31  H   GLU A   1      -7.850  13.765  68.745  1.00  0.00     0.000 HD 
BRANCH  30  32
ATOM     32  CA  GLU A   1      -6.733  15.204  67.548  1.00  0.00    -0.160 C  
ATOM     33  O   GLU A   1      -6.638  15.681  69.916  1.00  0.00    -0.171 OA 
ATOM     34  C   GLU A   1      -6.198  16.082  68.696  1.00  0.00    -0.115 C  
ATOM     35  OXT GLU A   1      -5.576  17.122  68.537  1.00  0.00    -0.133 OA 
BRANCH  32  36
ATOM     36  CB  GLU A   1      -7.967  15.868  66.912  1.00  0.00    -0.287 C  
BRANCH  36  37
ATOM     37  CG  GLU A   1      -9.093  16.142  67.916  1.00  0.00    -0.192 C  
ATOM     38  CD  GLU A   1      -9.308  17.614  68.167  1.00  0.00    -0.279 C  
ATOM     39  OE2 GLU A   1      -8.670  18.517  67.653  1.00  0.00    -0.264 OA 
ATOM     40  OE1 GLU A   1     -10.317  17.842  69.038  1.00  0.00    -0.361 OA 
ENDBRANCH  36  37
ENDBRANCH  32  36
ENDBRANCH  30  32
ENDBRANCH  25  28
ENDBRANCH   9  17
TORSDOF 6
ENDMDL
MODEL       21
REMARK 921   NORMALIZED FREE ENERGY PREDICTED BY IDOCK:   -6.24 KCAL/MOL
REMARK 922        TOTAL FREE ENERGY PREDICTED BY IDOCK:   -9.84 KCAL/MOL
REMARK 923 INTER-LIGAND FREE ENERGY PREDICTED BY IDOCK:   -7.82 KCAL/MOL
REMARK 924 INTRA-LIGAND FREE ENERGY PREDICTED BY IDOCK:   -2.02 KCAL/MOL
REMARK 927      BINDING AFFINITY PREDICTED BY RF-SCORE:    0.00 PKD
ROOT
HETATM    1  N   UNK A   0     -10.922   6.641  74.018  1.00  0.00    -0.329 NA 
HETATM    2  C   UNK A   0     -10.694   7.629  73.090  1.00  0.00    -0.387 A  
HETATM    3  H2  UNK A   0     -11.868   6.411  74.321  1.00  0.00     0.000 HD 
HETATM    4  H1  UNK A   0     -10.113   6.144  74.391  1.00  0.00     0.000 HD 
HETATM    5  N   UNK A   0     -11.748   8.276  72.603  1.00  0.00    -0.392 NA 
HETATM    6  C   UNK A   0     -11.535   9.174  71.643  1.00  0.00    -0.381 A  
HETATM    7  N   UNK A   0     -12.602   9.765  71.092  1.00  0.00    -0.332 NA 
HETATM    8  C   UNK A   0     -12.401  10.601  70.046  1.00  0.00    -0.269 A  
HETATM    9  C   UNK A   0     -11.141  10.882  69.538  1.00  0.00    -0.268 A  
HETATM   10  H2  UNK A   0      -7.710  10.003  71.548  1.00  0.00     0.000 HD 
HETATM   11  N   UNK A   0     -10.046  10.341  70.114  1.00  0.00    -0.142 NA 
HETATM   12  H1  UNK A   0      -7.149   8.483  71.878  1.00  0.00     0.000 HD 
HETATM   13  C   UNK A   0     -10.260   9.480  71.157  1.00  0.00    -0.230 A  
HETATM   14  C   UNK A   0      -9.240   8.766  71.771  1.00  0.00    -0.262 A  
HETATM   15  N   UNK A   0      -7.898   9.008  71.427  1.00  0.00    -0.310 NA 
HETATM   16  N   UNK A   0      -9.434   7.847  72.727  1.00  0.00    -0.213 NA 
ENDROOT
BRANCH   9  17
HETATM   17  C   UNK A   0     -10.945  11.679  68.270  1.00  0.00    -0.273 C  
HETATM   18  C   UNK A   0     -10.289   9.564  67.006  1.00  0.00    -0.319 A  
HETATM   19  C   UNK A   0      -8.895   9.636  67.173  1.00  0.00    -0.141 A  
HETATM   20  C   UNK A   0     -10.898   8.302  66.959  1.00  0.00    -0.061 A  
HETATM   21  C   UNK A   0     -11.154  10.828  66.984  1.00  0.00    -0.245 C  
HETATM   22  C   UNK A   0     -10.152   7.146  67.194  1.00  0.00    -0.293 A  
HETATM   23  C   UNK A   0      -8.145   8.480  67.407  1.00  0.00    -0.106 A  
HETATM   24  C   UNK A   0     -10.889  11.627  65.693  1.00  0.00    -0.330 C  
HETATM   25  C   UNK A   0      -8.787   7.240  67.478  1.00  0.00    -0.119 A  
BRANCH  24  26
HETATM   26  C   UNK A   0     -11.751  12.813  65.542  1.00  0.00    -0.436 C  
HETATM   27  C   UNK A   0     -12.440  13.778  65.346  1.00  0.00    -0.532 C  
ENDBRANCH  24  26
BRANCH  25  28
HETATM   28  C   UNK A   0      -8.011   6.043  67.887  1.00  0.00    -0.106 C  
HETATM   29  O   UNK A   0      -6.900   6.151  68.391  1.00  0.00    -0.068 OA 
ATOM     30  N   GLU A   1      -8.651   4.818  67.708  1.00  0.00    -0.103 N  
ATOM     31  H   GLU A   1      -9.540   4.769  67.210  1.00  0.00     0.000 HD 
BRANCH  30  32
ATOM     32  CA  GLU A   1      -8.029   3.591  68.248  1.00  0.00    -0.070 C  
ATOM     33  O   GLU A   1      -8.170   2.970  65.916  1.00  0.00    -0.085 OA 
ATOM     34  C   GLU A   1      -7.518   2.724  67.080  1.00  0.00    -0.065 C  
ATOM     35  OXT GLU A   1      -6.726   1.801  67.201  1.00  0.00    -0.036 OA 
BRANCH  32  36
ATOM     36  CB  GLU A   1      -9.050   2.798  69.082  1.00  0.00    -0.197 C  
BRANCH  36  37
ATOM     37  CG  GLU A   1      -8.905   3.022  70.592  1.00  0.00    -0.148 C  
ATOM     38  CD  GLU A   1      -9.698   4.206  71.086  1.00  0.00    -0.188 C  
ATOM     39  OE2 GLU A   1     -10.384   4.935  70.389  1.00  0.00    -0.246 OA 
ATOM     40  OE1 GLU A   1      -9.578   4.380  72.422  1.00  0.00    -0.138 OA 
ENDBRANCH  36  37
ENDBRANCH  32  36
ENDBRANCH  30  32
ENDBRANCH  25  28
ENDBRANCH   9  17
TORSDOF 6
ENDMDL
MODEL       22
REMARK 921   NORMALIZED FREE ENERGY PREDICTED BY IDOCK:   -6.24 KCAL/MOL
REMARK 922        TOTAL FREE ENERGY PREDICTED BY IDOCK:   -9.83 KCAL/MOL
REMARK 923 INTER-LIGAND FREE ENERGY PREDICTED BY IDOCK:   -8.22 KCAL/MOL
REMARK 924 INTRA-LIGAND FREE ENERGY PREDICTED BY IDOCK:   -1.62 KCAL/MOL
REMARK 927      BINDING AFFINITY PREDICTED BY RF-SCORE:    0.00 PKD
ROOT
HETATM    1  N   UNK A   0      -5.549  18.967  65.462  1.00  0.00    -0.161 NA 
HETATM    2  C   UNK A   0      -6.449  18.251  66.213  1.00  0.00    -0.214 A  
HETATM    3  H2  UNK A   0      -5.713  19.146  64.472  1.00  0.00     0.000 HD 
HETATM    4  H1  UNK A   0      -4.711  19.315  65.929  1.00  0.00     0.000 HD 
HETATM    5  N   UNK A   0      -7.541  17.798  65.606  1.00  0.00    -0.502 NA 
HETATM    6  C   UNK A   0      -8.454  17.178  66.351  1.00  0.00    -0.272 A  
HETATM    7  N   UNK A   0      -9.591  16.797  65.758  1.00  0.00    -0.537 NA 
HETATM    8  C   UNK A   0     -10.566  16.260  66.530  1.00  0.00    -0.256 A  
HETATM    9  C   UNK A   0     -10.427  16.073  67.897  1.00  0.00    -0.292 A  
HETATM   10  H2  UNK A   0      -6.825  16.252  69.788  1.00  0.00     0.000 HD 
HETATM   11  N   UNK A   0      -9.267  16.398  68.507  1.00  0.00    -0.217 NA 
HETATM   12  H1  UNK A   0      -5.893  17.607  69.961  1.00  0.00     0.000 HD 
HETATM   13  C   UNK A   0      -8.295  16.961  67.723  1.00  0.00    -0.194 A  
HETATM   14  C   UNK A   0      -7.098  17.446  68.233  1.00  0.00    -0.203 A  
HETATM   15  N   UNK A   0      -6.772  17.250  69.587  1.00  0.00    -0.135 NA 
HETATM   16  N   UNK A   0      -6.174  18.087  67.503  1.00  0.00    -0.169 NA 
ENDROOT
BRANCH   9  17
HETATM   17  C   UNK A   0     -11.578  15.632  68.769  1.00  0.00    -0.393 C  
HETATM   18  C   UNK A   0     -10.860  13.197  68.543  1.00  0.00    -0.285 A  
HETATM   19  C   UNK A   0     -11.659  12.836  67.444  1.00  0.00    -0.415 A  
HETATM   20  C   UNK A   0      -9.600  12.599  68.684  1.00  0.00    -0.028 A  
HETATM   21  C   UNK A   0     -11.294  14.297  69.516  1.00  0.00    -0.315 C  
HETATM   22  C   UNK A   0      -9.099  11.757  67.690  1.00  0.00    -0.177 A  
HETATM   23  C   UNK A   0     -11.162  11.992  66.447  1.00  0.00    -0.389 A  
HETATM   24  C   UNK A   0     -12.494  13.818  70.355  1.00  0.00    -0.384 C  
HETATM   25  C   UNK A   0      -9.856  11.501  66.544  1.00  0.00    -0.228 A  
BRANCH  24  26
HETATM   26  C   UNK A   0     -12.920  14.780  71.388  1.00  0.00    -0.413 C  
HETATM   27  C   UNK A   0     -13.288  15.506  72.271  1.00  0.00    -0.567 C  
ENDBRANCH  24  26
BRANCH  25  28
HETATM   28  C   UNK A   0      -9.281  10.740  65.406  1.00  0.00    -0.205 C  
HETATM   29  O   UNK A   0      -9.387  11.146  64.256  1.00  0.00    -0.210 OA 
ATOM     30  N   GLU A   1      -8.580   9.585  65.745  1.00  0.00    -0.133 N  
ATOM     31  H   GLU A   1      -8.588   9.242  66.706  1.00  0.00     0.000 HD 
BRANCH  30  32
ATOM     32  CA  GLU A   1      -7.827   8.863  64.699  1.00  0.00    -0.124 C  
ATOM     33  O   GLU A   1      -8.710   6.976  65.926  1.00  0.00    -0.146 OA 
ATOM     34  C   GLU A   1      -8.225   7.374  64.723  1.00  0.00    -0.057 C  
ATOM     35  OXT GLU A   1      -7.993   6.584  63.819  1.00  0.00    -0.116 OA 
BRANCH  32  36
ATOM     36  CB  GLU A   1      -6.313   9.003  64.939  1.00  0.00    -0.066 C  
BRANCH  36  37
ATOM     37  CG  GLU A   1      -5.953   9.251  66.409  1.00  0.00    -0.059 C  
ATOM     38  CD  GLU A   1      -5.563  10.683  66.682  1.00  0.00    -0.066 C  
ATOM     39  OE2 GLU A   1      -5.519  11.572  65.849  1.00  0.00    -0.254 OA 
ATOM     40  OE1 GLU A   1      -5.267  10.892  67.985  1.00  0.00    -0.037 OA 
ENDBRANCH  36  37
ENDBRANCH  32  36
ENDBRANCH  30  32
ENDBRANCH  25  28
ENDBRANCH   9  17
TORSDOF 6
ENDMDL
MODEL       23
REMARK 921   NORMALIZED FREE ENERGY PREDICTED BY IDOCK:   -6.22 KCAL/MOL
REMARK 922        TOTAL FREE ENERGY PREDICTED BY IDOCK:   -9.81 KCAL/MOL
REMARK 923 INTER-LIGAND FREE ENERGY PREDICTED BY IDOCK:   -8.52 KCAL/MOL
REMARK 924 INTRA-LIGAND FREE ENERGY PREDICTED BY IDOCK:   -1.29 KCAL/MOL
REMARK 927      BINDING AFFINITY PREDICTED BY RF-SCORE:    0.00 PKD
ROOT
HETATM    1  N   UNK A   0     -12.961  11.821  62.987  1.00  0.00    -0.850 NA 
HETATM    2  C   UNK A   0     -12.603  12.726  63.956  1.00  0.00    -0.291 A  
HETATM    3  H2  UNK A   0     -13.049  12.101  62.010  1.00  0.00     0.000 HD 
HETATM    4  H1  UNK A   0     -13.136  10.858  63.277  1.00  0.00     0.000 HD 
HETATM    5  N   UNK A   0     -12.375  13.980  63.578  1.00  0.00    -0.750 NA 
HETATM    6  C   UNK A   0     -11.946  14.838  64.502  1.00  0.00    -0.440 A  
HETATM    7  N   UNK A   0     -11.635  16.078  64.107  1.00  0.00    -0.647 NA 
HETATM    8  C   UNK A   0     -11.100  16.924  65.018  1.00  0.00     0.009 A  
HETATM    9  C   UNK A   0     -10.881  16.567  66.340  1.00  0.00    -0.042 A  
HETATM   10  H2  UNK A   0     -12.555  13.264  68.034  1.00  0.00     0.000 HD 
HETATM   11  N   UNK A   0     -11.240  15.340  66.775  1.00  0.00    -0.288 NA 
HETATM   12  H1  UNK A   0     -12.208  11.696  67.638  1.00  0.00     0.000 HD 
HETATM   13  C   UNK A   0     -11.759  14.483  65.841  1.00  0.00    -0.345 A  
HETATM   14  C   UNK A   0     -12.067  13.157  66.118  1.00  0.00    -0.417 A  
HETATM   15  N   UNK A   0     -11.983  12.669  67.434  1.00  0.00    -0.442 NA 
HETATM   16  N   UNK A   0     -12.484  12.274  65.200  1.00  0.00    -0.545 NA 
ENDROOT
BRANCH   9  17
HETATM   17  C   UNK A   0     -10.131  17.459  67.301  1.00  0.00    -0.310 C  
HETATM   18  C   UNK A   0      -8.527  15.559  67.861  1.00  0.00    -0.146 A  
HETATM   19  C   UNK A   0      -9.190  15.039  68.986  1.00  0.00    -0.205 A  
HETATM   20  C   UNK A   0      -7.826  14.678  67.025  1.00  0.00    -0.056 A  
HETATM   21  C   UNK A   0      -8.644  17.038  67.480  1.00  0.00    -0.212 C  
HETATM   22  C   UNK A   0      -7.889  13.300  67.237  1.00  0.00    -0.118 A  
HETATM   23  C   UNK A   0      -9.253  13.659  69.202  1.00  0.00     0.460 A  
HETATM   24  C   UNK A   0      -7.899  17.910  68.510  1.00  0.00    -0.301 C  
HETATM   25  C   UNK A   0      -8.652  12.788  68.289  1.00  0.00    -0.166 A  
BRANCH  24  26
HETATM   26  C   UNK A   0      -7.879  19.344  68.170  1.00  0.00    -0.343 C  
HETATM   27  C   UNK A   0      -7.935  20.509  67.883  1.00  0.00    -0.116 C  
ENDBRANCH  24  26
BRANCH  25  28
HETATM   28  C   UNK A   0      -8.861  11.326  68.437  1.00  0.00    -0.159 C  
HETATM   29  O   UNK A   0      -9.471  10.867  69.394  1.00  0.00    -0.096 OA 
ATOM     30  N   GLU A   1      -8.371  10.538  67.398  1.00  0.00    -0.121 N  
ATOM     31  H   GLU A   1      -7.798  10.953  66.663  1.00  0.00     0.000 HD 
BRANCH  30  32
ATOM     32  CA  GLU A   1      -8.688   9.094  67.372  1.00  0.00    -0.115 C  
ATOM     33  O   GLU A   1      -6.287   8.968  67.626  1.00  0.00    -0.055 OA 
ATOM     34  C   GLU A   1      -7.449   8.294  67.819  1.00  0.00    -0.094 C  
ATOM     35  OXT GLU A   1      -7.473   7.122  68.165  1.00  0.00    -0.094 OA 
BRANCH  32  36
ATOM     36  CB  GLU A   1      -9.105   8.665  65.955  1.00  0.00    -0.259 C  
BRANCH  36  37
ATOM     37  CG  GLU A   1      -9.757   9.793  65.146  1.00  0.00    -0.338 C  
ATOM     38  CD  GLU A   1      -9.346   9.784  63.694  1.00  0.00    -0.100 C  
ATOM     39  OE2 GLU A   1      -8.576   8.989  63.185  1.00  0.00    -0.200 OA 
ATOM     40  OE1 GLU A   1      -9.944  10.771  62.989  1.00  0.00    -0.326 OA 
ENDBRANCH  36  37
ENDBRANCH  32  36
ENDBRANCH  30  32
ENDBRANCH  25  28
ENDBRANCH   9  17
TORSDOF 6
ENDMDL
MODEL       24
REMARK 921   NORMALIZED FREE ENERGY PREDICTED BY IDOCK:   -6.21 KCAL/MOL
REMARK 922        TOTAL FREE ENERGY PREDICTED BY IDOCK:   -9.80 KCAL/MOL
REMARK 923 INTER-LIGAND FREE ENERGY PREDICTED BY IDOCK:   -8.30 KCAL/MOL
REMARK 924 INTRA-LIGAND FREE ENERGY PREDICTED BY IDOCK:   -1.50 KCAL/MOL
REMARK 927      BINDING AFFINITY PREDICTED BY RF-SCORE:    0.00 PKD
ROOT
HETATM    1  N   UNK A   0      -9.026   8.214  64.908  1.00  0.00    -0.373 NA 
HETATM    2  C   UNK A   0      -8.805   7.704  66.164  1.00  0.00    -0.164 A  
HETATM    3  H2  UNK A   0      -9.615   7.723  64.236  1.00  0.00     0.000 HD 
HETATM    4  H1  UNK A   0      -8.581   9.101  64.670  1.00  0.00     0.000 HD 
HETATM    5  N   UNK A   0      -9.385   6.549  66.475  1.00  0.00    -0.159 NA 
HETATM    6  C   UNK A   0      -9.241   6.098  67.719  1.00  0.00    -0.111 A  
HETATM    7  N   UNK A   0      -9.893   4.980  68.058  1.00  0.00    -0.153 NA 
HETATM    8  C   UNK A   0      -9.836   4.571  69.347  1.00  0.00    -0.190 A  
HETATM    9  C   UNK A   0      -9.118   5.249  70.321  1.00  0.00    -0.134 A  
HETATM   10  H2  UNK A   0      -6.330   8.080  69.428  1.00  0.00     0.000 HD 
HETATM   11  N   UNK A   0      -8.406   6.348  69.990  1.00  0.00    -0.128 NA 
HETATM   12  H1  UNK A   0      -6.637   9.554  68.743  1.00  0.00     0.000 HD 
HETATM   13  C   UNK A   0      -8.488   6.766  68.689  1.00  0.00    -0.123 A  
HETATM   14  C   UNK A   0      -7.901   7.940  68.232  1.00  0.00    -0.120 A  
HETATM   15  N   UNK A   0      -7.067   8.692  69.078  1.00  0.00    -0.064 NA 
HETATM   16  N   UNK A   0      -8.047   8.420  66.989  1.00  0.00    -0.103 NA 
ENDROOT
BRANCH   9  17
HETATM   17  C   UNK A   0      -9.199   4.881  71.783  1.00  0.00    -0.175 C  
HETATM   18  C   UNK A   0     -11.162   6.475  72.107  1.00  0.00    -0.308 A  
HETATM   19  C   UNK A   0     -10.450   7.616  72.516  1.00  0.00    -0.323 A  
HETATM   20  C   UNK A   0     -12.334   6.645  71.357  1.00  0.00    -0.348 A  
HETATM   21  C   UNK A   0     -10.627   5.064  72.374  1.00  0.00    -0.275 C  
HETATM   22  C   UNK A   0     -12.719   7.914  70.921  1.00  0.00     0.032 A  
HETATM   23  C   UNK A   0     -10.833   8.888  72.083  1.00  0.00    -0.339 A  
HETATM   24  C   UNK A   0     -10.692   4.750  73.881  1.00  0.00    -0.362 C  
HETATM   25  C   UNK A   0     -11.935   9.028  71.234  1.00  0.00    -0.374 A  
BRANCH  24  26
HETATM   26  C   UNK A   0     -10.285   3.374  74.219  1.00  0.00    -0.222 C  
HETATM   27  C   UNK A   0      -9.910   2.281  74.547  1.00  0.00    -0.141 C  
ENDBRANCH  24  26
BRANCH  25  28
HETATM   28  C   UNK A   0     -12.237  10.358  70.649  1.00  0.00    -0.347 C  
HETATM   29  O   UNK A   0     -12.715  11.255  71.333  1.00  0.00    -0.398 OA 
ATOM     30  N   GLU A   1     -11.892  10.523  69.310  1.00  0.00    -0.493 N  
ATOM     31  H   GLU A   1     -11.573   9.725  68.759  1.00  0.00     0.000 HD 
BRANCH  30  32
ATOM     32  CA  GLU A   1     -11.992  11.863  68.696  1.00  0.00    -0.233 C  
ATOM     33  O   GLU A   1     -11.077  10.637  66.824  1.00  0.00    -0.178 OA 
ATOM     34  C   GLU A   1     -11.784  11.741  67.173  1.00  0.00    -0.188 C  
ATOM     35  OXT GLU A   1     -12.078  12.610  66.365  1.00  0.00    -0.530 OA 
BRANCH  32  36
ATOM     36  CB  GLU A   1     -10.932  12.805  69.294  1.00  0.00    -0.126 C  
BRANCH  36  37
ATOM     37  CG  GLU A   1     -11.428  14.246  69.465  1.00  0.00    -0.336 C  
ATOM     38  CD  GLU A   1     -10.769  15.208  68.508  1.00  0.00    -0.240 C  
ATOM     39  OE2 GLU A   1      -9.924  14.912  67.681  1.00  0.00    -0.224 OA 
ATOM     40  OE1 GLU A   1     -11.231  16.471  68.655  1.00  0.00    -0.353 OA 
ENDBRANCH  36  37
ENDBRANCH  32  36
ENDBRANCH  30  32
ENDBRANCH  25  28
ENDBRANCH   9  17
TORSDOF 6
ENDMDL
MODEL       25
REMARK 921   NORMALIZED FREE ENERGY PREDICTED BY IDOCK:   -6.21 KCAL/MOL
REMARK 922        TOTAL FREE ENERGY PREDICTED BY IDOCK:   -9.79 KCAL/MOL
REMARK 923 INTER-LIGAND FREE ENERGY PREDICTED BY IDOCK:   -8.77 KCAL/MOL
REMARK 924 INTRA-LIGAND FREE ENERGY PREDICTED BY IDOCK:   -1.02 KCAL/MOL
REMARK 927      BINDING AFFINITY PREDICTED BY RF-SCORE:    0.00 PKD
ROOT
HETATM    1  N   UNK A   0     -12.430  13.535  63.162  1.00  0.00    -0.985 NA 
HETATM    2  C   UNK A   0     -11.380  12.900  63.780  1.00  0.00    -0.435 A  
HETATM    3  H2  UNK A   0     -12.829  13.173  62.297  1.00  0.00     0.000 HD 
HETATM    4  H1  UNK A   0     -12.798  14.380  63.599  1.00  0.00     0.000 HD 
HETATM    5  N   UNK A   0     -10.902  11.798  63.211  1.00  0.00    -0.358 NA 
HETATM    6  C   UNK A   0      -9.942  11.135  63.853  1.00  0.00    -0.329 A  
HETATM    7  N   UNK A   0      -9.518   9.981  63.324  1.00  0.00    -0.266 NA 
HETATM    8  C   UNK A   0      -8.618   9.250  64.023  1.00  0.00    -0.186 A  
HETATM    9  C   UNK A   0      -8.105   9.655  65.246  1.00  0.00    -0.125 A  
HETATM   10  H2  UNK A   0      -8.471  13.467  66.632  1.00  0.00     0.000 HD 
HETATM   11  N   UNK A   0      -8.476  10.843  65.772  1.00  0.00    -0.172 NA 
HETATM   12  H1  UNK A   0      -9.886  14.201  67.073  1.00  0.00     0.000 HD 
HETATM   13  C   UNK A   0      -9.403  11.565  65.069  1.00  0.00    -0.089 A  
HETATM   14  C   UNK A   0      -9.959  12.747  65.542  1.00  0.00    -0.221 A  
HETATM   15  N   UNK A   0      -9.478  13.333  66.726  1.00  0.00    -0.251 NA 
HETATM   16  N   UNK A   0     -10.936  13.420  64.919  1.00  0.00    -0.325 NA 
ENDROOT
BRANCH   9  17
HETATM   17  C   UNK A   0      -7.235   8.756  66.091  1.00  0.00    -0.085 C  
HETATM   18  C   UNK A   0      -9.001   8.721  67.929  1.00  0.00    -0.142 A  
HETATM   19  C   UNK A   0      -8.522   9.787  68.711  1.00  0.00    -0.122 A  
HETATM   20  C   UNK A   0     -10.384   8.503  67.863  1.00  0.00    -0.281 A  
HETATM   21  C   UNK A   0      -8.055   7.872  67.075  1.00  0.00    -0.116 C  
HETATM   22  C   UNK A   0     -11.273   9.400  68.461  1.00  0.00     0.127 A  
HETATM   23  C   UNK A   0      -9.409  10.685  69.312  1.00  0.00    -0.136 A  
HETATM   24  C   UNK A   0      -7.161   7.003  67.981  1.00  0.00    -0.095 C  
HETATM   25  C   UNK A   0     -10.785  10.523  69.134  1.00  0.00    -0.266 A  
BRANCH  24  26
HETATM   26  C   UNK A   0      -6.283   6.080  67.239  1.00  0.00    -0.033 C  
HETATM   27  C   UNK A   0      -5.531   5.387  66.609  1.00  0.00    -0.013 C  
ENDBRANCH  24  26
BRANCH  25  28
HETATM   28  C   UNK A   0     -11.711  11.568  69.638  1.00  0.00    -0.351 C  
HETATM   29  O   UNK A   0     -12.722  11.271  70.261  1.00  0.00    -0.195 OA 
ATOM     30  N   GLU A   1     -11.321  12.884  69.401  1.00  0.00    -0.408 N  
ATOM     31  H   GLU A   1     -10.515  13.084  68.808  1.00  0.00     0.000 HD 
BRANCH  30  32
ATOM     32  CA  GLU A   1     -12.086  13.988  70.019  1.00  0.00    -0.348 C  
ATOM     33  O   GLU A   1     -10.165  15.229  69.234  1.00  0.00    -0.226 OA 
ATOM     34  C   GLU A   1     -11.470  15.335  69.592  1.00  0.00    -0.305 C  
ATOM     35  OXT GLU A   1     -12.029  16.416  69.705  1.00  0.00    -0.014 OA 
BRANCH  32  36
ATOM     36  CB  GLU A   1     -12.059  13.863  71.552  1.00  0.00    -0.099 C  
BRANCH  36  37
ATOM     37  CG  GLU A   1     -13.278  14.496  72.234  1.00  0.00    -0.477 C  
ATOM     38  CD  GLU A   1     -12.940  15.767  72.974  1.00  0.00    -0.525 C  
ATOM     39  OE2 GLU A   1     -11.829  16.263  73.052  1.00  0.00    -0.484 OA 
ATOM     40  OE1 GLU A   1     -14.027  16.326  73.553  1.00  0.00    -0.438 OA 
ENDBRANCH  36  37
ENDBRANCH  32  36
ENDBRANCH  30  32
ENDBRANCH  25  28
ENDBRANCH   9  17
TORSDOF 6
ENDMDL
MODEL       26
REMARK 921   NORMALIZED FREE ENERGY PREDICTED BY IDOCK:   -6.20 KCAL/MOL
REMARK 922        TOTAL FREE ENERGY PREDICTED BY IDOCK:   -9.78 KCAL/MOL
REMARK 923 INTER-LIGAND FREE ENERGY PREDICTED BY IDOCK:   -8.13 KCAL/MOL
REMARK 924 INTRA-LIGAND FREE ENERGY PREDICTED BY IDOCK:   -1.65 KCAL/MOL
REMARK 927      BINDING AFFINITY PREDICTED BY RF-SCORE:    0.00 PKD
ROOT
HETATM    1  N   UNK A   0     -13.832   8.771  73.161  1.00  0.00    -1.118 NA 
HETATM    2  C   UNK A   0     -12.699   8.351  72.506  1.00  0.00    -0.232 A  
HETATM    3  H2  UNK A   0     -14.747   8.722  72.715  1.00  0.00     0.000 HD 
HETATM    4  H1  UNK A   0     -13.726   9.133  74.109  1.00  0.00     0.000 HD 
HETATM    5  N   UNK A   0     -12.837   7.880  71.271  1.00  0.00    -0.264 NA 
HETATM    6  C   UNK A   0     -11.754   7.394  70.669  1.00  0.00    -0.242 A  
HETATM    7  N   UNK A   0     -11.905   6.842  69.460  1.00  0.00    -0.047 NA 
HETATM    8  C   UNK A   0     -10.829   6.253  68.886  1.00  0.00    -0.333 A  
HETATM    9  C   UNK A   0      -9.580   6.217  69.487  1.00  0.00    -0.143 A  
HETATM   10  H2  UNK A   0      -8.595   8.574  72.658  1.00  0.00     0.000 HD 
HETATM   11  N   UNK A   0      -9.390   6.817  70.682  1.00  0.00    -0.162 NA 
HETATM   12  H1  UNK A   0      -9.240   8.466  74.177  1.00  0.00     0.000 HD 
HETATM   13  C   UNK A   0     -10.489   7.390  71.265  1.00  0.00    -0.208 A  
HETATM   14  C   UNK A   0     -10.468   7.943  72.539  1.00  0.00    -0.300 A  
HETATM   15  N   UNK A   0      -9.255   8.061  73.241  1.00  0.00    -0.277 NA 
HETATM   16  N   UNK A   0     -11.549   8.422  73.169  1.00  0.00     0.070 NA 
ENDROOT
BRANCH   9  17
HETATM   17  C   UNK A   0      -8.436   5.414  68.916  1.00  0.00    -0.099 C  
HETATM   18  C   UNK A   0      -7.635   7.438  67.591  1.00  0.00    -0.106 A  
HETATM   19  C   UNK A   0      -8.308   7.188  66.383  1.00  0.00    -0.125 A  
HETATM   20  C   UNK A   0      -7.434   8.768  67.987  1.00  0.00    -0.093 A  
HETATM   21  C   UNK A   0      -7.216   6.296  68.522  1.00  0.00    -0.085 C  
HETATM   22  C   UNK A   0      -7.999   9.817  67.258  1.00  0.00    -0.106 A  
HETATM   23  C   UNK A   0      -8.873   8.236  65.650  1.00  0.00    -0.172 A  
HETATM   24  C   UNK A   0      -6.076   5.482  67.880  1.00  0.00    -0.026 C  
HETATM   25  C   UNK A   0      -8.768   9.547  66.125  1.00  0.00    -0.162 A  
BRANCH  24  26
HETATM   26  C   UNK A   0      -5.544   4.418  68.750  1.00  0.00    -0.013 C  
HETATM   27  C   UNK A   0      -5.155   3.502  69.424  1.00  0.00    -0.007 C  
ENDBRANCH  24  26
BRANCH  25  28
HETATM   28  C   UNK A   0      -9.507  10.631  65.430  1.00  0.00    -0.215 C  
HETATM   29  O   UNK A   0     -10.005  10.450  64.326  1.00  0.00    -0.335 OA 
ATOM     30  N   GLU A   1      -9.635  11.824  66.137  1.00  0.00    -0.227 N  
ATOM     31  H   GLU A   1      -9.135  11.957  67.017  1.00  0.00     0.000 HD 
BRANCH  30  32
ATOM     32  CA  GLU A   1     -10.502  12.894  65.601  1.00  0.00    -0.277 C  
ATOM     33  O   GLU A   1      -8.964  14.240  66.892  1.00  0.00    -0.231 OA 
ATOM     34  C   GLU A   1      -9.836  14.261  65.853  1.00  0.00    -0.298 C  
ATOM     35  OXT GLU A   1     -10.160  15.299  65.294  1.00  0.00    -0.350 OA 
BRANCH  32  36
ATOM     36  CB  GLU A   1     -11.883  12.851  66.278  1.00  0.00    -0.477 C  
BRANCH  36  37
ATOM     37  CG  GLU A   1     -11.819  13.044  67.798  1.00  0.00    -0.395 C  
ATOM     38  CD  GLU A   1     -11.881  11.741  68.556  1.00  0.00    -0.303 C  
ATOM     39  OE2 GLU A   1     -11.980  10.636  68.051  1.00  0.00    -0.457 OA 
ATOM     40  OE1 GLU A   1     -11.803  11.925  69.894  1.00  0.00    -0.319 OA 
ENDBRANCH  36  37
ENDBRANCH  32  36
ENDBRANCH  30  32
ENDBRANCH  25  28
ENDBRANCH   9  17
TORSDOF 6
ENDMDL
MODEL       27
REMARK 921   NORMALIZED FREE ENERGY PREDICTED BY IDOCK:   -6.17 KCAL/MOL
REMARK 922        TOTAL FREE ENERGY PREDICTED BY IDOCK:   -9.74 KCAL/MOL
REMARK 923 INTER-LIGAND FREE ENERGY PREDICTED BY IDOCK:   -8.65 KCAL/MOL
REMARK 924 INTRA-LIGAND FREE ENERGY PREDICTED BY IDOCK:   -1.09 KCAL/MOL
REMARK 927      BINDING AFFINITY PREDICTED BY RF-SCORE:    0.00 PKD
ROOT
HETATM    1  N   UNK A   0     -14.029  15.308  72.735  1.00  0.00    -0.449 NA 
HETATM    2  C   UNK A   0     -13.470  14.256  72.050  1.00  0.00    -0.412 A  
HETATM    3  H2  UNK A   0     -13.953  16.263  72.387  1.00  0.00     0.000 HD 
HETATM    4  H1  UNK A   0     -14.523  15.101  73.603  1.00  0.00     0.000 HD 
HETATM    5  N   UNK A   0     -12.827  14.526  70.918  1.00  0.00    -0.347 NA 
HETATM    6  C   UNK A   0     -12.359  13.500  70.210  1.00  0.00    -0.300 A  
HETATM    7  N   UNK A   0     -11.787  13.763  69.030  1.00  0.00    -0.338 NA 
HETATM    8  C   UNK A   0     -11.402  12.719  68.258  1.00  0.00    -0.296 A  
HETATM    9  C   UNK A   0     -11.559  11.397  68.647  1.00  0.00    -0.320 A  
HETATM   10  H2  UNK A   0     -12.379  10.314  72.486  1.00  0.00     0.000 HD 
HETATM   11  N   UNK A   0     -12.083  11.108  69.858  1.00  0.00    -0.330 NA 
HETATM   12  H1  UNK A   0     -13.783  10.635  73.300  1.00  0.00     0.000 HD 
HETATM   13  C   UNK A   0     -12.489  12.170  70.622  1.00  0.00    -0.242 A  
HETATM   14  C   UNK A   0     -13.145  12.021  71.838  1.00  0.00    -0.370 A  
HETATM   15  N   UNK A   0     -13.300  10.745  72.408  1.00  0.00    -0.081 NA 
HETATM   16  N   UNK A   0     -13.638  13.039  72.556  1.00  0.00    -0.594 NA 
ENDROOT
BRANCH   9  17
HETATM   17  C   UNK A   0     -11.284  10.245  67.711  1.00  0.00    -0.262 C  
HETATM   18  C   UNK A   0      -8.790  10.769  67.747  1.00  0.00    -0.130 A  
HETATM   19  C   UNK A   0      -8.726  11.601  66.616  1.00  0.00    -0.187 A  
HETATM   20  C   UNK A   0      -7.926  11.026  68.822  1.00  0.00    -0.144 A  
HETATM   21  C   UNK A   0      -9.848   9.668  67.868  1.00  0.00    -0.182 C  
HETATM   22  C   UNK A   0      -7.106  12.156  68.818  1.00  0.00    -0.110 A  
HETATM   23  C   UNK A   0      -7.905  12.732  66.608  1.00  0.00     0.369 A  
HETATM   24  C   UNK A   0      -9.548   8.536  66.867  1.00  0.00    -0.257 C  
HETATM   25  C   UNK A   0      -7.141  13.041  67.737  1.00  0.00    -0.139 A  
BRANCH  24  26
HETATM   26  C   UNK A   0     -10.464   7.386  66.979  1.00  0.00    -0.404 C  
HETATM   27  C   UNK A   0     -11.159   6.408  67.035  1.00  0.00    -0.405 C  
ENDBRANCH  24  26
BRANCH  25  28
HETATM   28  C   UNK A   0      -6.400  14.326  67.782  1.00  0.00    -0.154 C  
HETATM   29  O   UNK A   0      -5.214  14.362  68.088  1.00  0.00    -0.108 OA 
ATOM     30  N   GLU A   1      -7.124  15.455  67.406  1.00  0.00    -0.193 N  
ATOM     31  H   GLU A   1      -8.129  15.390  67.239  1.00  0.00     0.000 HD 
BRANCH  30  32
ATOM     32  CA  GLU A   1      -6.423  16.746  67.251  1.00  0.00    -0.174 C  
ATOM     33  O   GLU A   1      -7.592  17.177  69.323  1.00  0.00    -0.174 OA 
ATOM     34  C   GLU A   1      -6.525  17.541  68.567  1.00  0.00    -0.186 C  
ATOM     35  OXT GLU A   1      -5.826  18.505  68.847  1.00  0.00    -0.200 OA 
BRANCH  32  36
ATOM     36  CB  GLU A   1      -7.046  17.557  66.100  1.00  0.00    -0.341 C  
BRANCH  36  37
ATOM     37  CG  GLU A   1      -8.579  17.543  66.110  1.00  0.00    -0.168 C  
ATOM     38  CD  GLU A   1      -9.176  18.919  66.275  1.00  0.00    -0.268 C  
ATOM     39  OE2 GLU A   1      -8.540  19.952  66.399  1.00  0.00    -0.335 OA 
ATOM     40  OE1 GLU A   1     -10.528  18.895  66.261  1.00  0.00    -0.417 OA 
ENDBRANCH  36  37
ENDBRANCH  32  36
ENDBRANCH  30  32
ENDBRANCH  25  28
ENDBRANCH   9  17
TORSDOF 6
ENDMDL
MODEL       28
REMARK 921   NORMALIZED FREE ENERGY PREDICTED BY IDOCK:   -6.16 KCAL/MOL
REMARK 922        TOTAL FREE ENERGY PREDICTED BY IDOCK:   -9.74 KCAL/MOL
REMARK 923 INTER-LIGAND FREE ENERGY PREDICTED BY IDOCK:   -8.11 KCAL/MOL
REMARK 924 INTRA-LIGAND FREE ENERGY PREDICTED BY IDOCK:   -1.62 KCAL/MOL
REMARK 927      BINDING AFFINITY PREDICTED BY RF-SCORE:    0.00 PKD
ROOT
HETATM    1  N   UNK A   0      -5.164  14.833  68.483  1.00  0.00    -0.096 NA 
HETATM    2  C   UNK A   0      -5.442  13.490  68.395  1.00  0.00    -0.095 A  
HETATM    3  H2  UNK A   0      -4.844  15.359  67.671  1.00  0.00     0.000 HD 
HETATM    4  H1  UNK A   0      -5.289  15.285  69.388  1.00  0.00     0.000 HD 
HETATM    5  N   UNK A   0      -5.279  12.900  67.215  1.00  0.00    -0.337 NA 
HETATM    6  C   UNK A   0      -5.629  11.620  67.108  1.00  0.00    -0.111 A  
HETATM    7  N   UNK A   0      -5.546  11.048  65.901  1.00  0.00    -0.144 NA 
HETATM    8  C   UNK A   0      -5.997   9.779  65.762  1.00  0.00    -0.063 A  
HETATM    9  C   UNK A   0      -6.520   9.046  66.817  1.00  0.00    -0.064 A  
HETATM   10  H2  UNK A   0      -6.046  10.144  70.710  1.00  0.00     0.000 HD 
HETATM   11  N   UNK A   0      -6.562   9.583  68.056  1.00  0.00    -0.062 NA 
HETATM   12  H1  UNK A   0      -6.704  11.485  71.421  1.00  0.00     0.000 HD 
HETATM   13  C   UNK A   0      -6.124  10.874  68.182  1.00  0.00    -0.049 A  
HETATM   14  C   UNK A   0      -6.212  11.591  69.369  1.00  0.00    -0.094 A  
HETATM   15  N   UNK A   0      -6.639  10.958  70.549  1.00  0.00    -0.292 NA 
HETATM   16  N   UNK A   0      -5.881  12.884  69.493  1.00  0.00    -0.096 NA 
ENDROOT
BRANCH   9  17
HETATM   17  C   UNK A   0      -7.174   7.700  66.615  1.00  0.00    -0.087 C  
HETATM   18  C   UNK A   0      -9.312   8.823  65.801  1.00  0.00    -0.259 A  
HETATM   19  C   UNK A   0     -10.003   8.887  67.024  1.00  0.00    -0.300 A  
HETATM   20  C   UNK A   0      -9.506   9.848  64.864  1.00  0.00    -0.355 A  
HETATM   21  C   UNK A   0      -8.283   7.723  65.524  1.00  0.00    -0.137 C  
HETATM   22  C   UNK A   0     -10.273  10.969  65.188  1.00  0.00    -0.352 A  
HETATM   23  C   UNK A   0     -10.773  10.007  67.350  1.00  0.00    -0.336 A  
HETATM   24  C   UNK A   0      -8.991   6.364  65.366  1.00  0.00     0.106 C  
HETATM   25  C   UNK A   0     -10.857  11.075  66.452  1.00  0.00    -0.253 A  
BRANCH  24  26
HETATM   26  C   UNK A   0      -8.085   5.261  65.001  1.00  0.00    -0.120 C  
HETATM   27  C   UNK A   0      -7.307   4.409  64.664  1.00  0.00    -0.071 C  
ENDBRANCH  24  26
BRANCH  25  28
HETATM   28  C   UNK A   0     -11.541  12.324  66.872  1.00  0.00    -0.361 C  
HETATM   29  O   UNK A   0     -12.441  12.809  66.199  1.00  0.00    -0.512 OA 
ATOM     30  N   GLU A   1     -11.127  12.858  68.090  1.00  0.00    -0.239 N  
ATOM     31  H   GLU A   1     -10.319  12.469  68.576  1.00  0.00     0.000 HD 
BRANCH  30  32
ATOM     32  CA  GLU A   1     -11.871  13.996  68.671  1.00  0.00    -0.361 C  
ATOM     33  O   GLU A   1      -9.739  15.069  68.292  1.00  0.00    -0.206 OA 
ATOM     34  C   GLU A   1     -11.067  15.293  68.454  1.00  0.00    -0.287 C  
ATOM     35  OXT GLU A   1     -11.530  16.419  68.567  1.00  0.00    -0.351 OA 
BRANCH  32  36
ATOM     36  CB  GLU A   1     -12.103  13.770  70.175  1.00  0.00    -0.429 C  
BRANCH  36  37
ATOM     37  CG  GLU A   1     -12.077  12.290  70.577  1.00  0.00    -0.371 C  
ATOM     38  CD  GLU A   1     -12.994  11.983  71.736  1.00  0.00    -0.340 C  
ATOM     39  OE2 GLU A   1     -13.688  12.796  72.320  1.00  0.00    -0.527 OA 
ATOM     40  OE1 GLU A   1     -12.977  10.671  72.066  1.00  0.00    -0.461 OA 
ENDBRANCH  36  37
ENDBRANCH  32  36
ENDBRANCH  30  32
ENDBRANCH  25  28
ENDBRANCH   9  17
TORSDOF 6
ENDMDL
MODEL       29
REMARK 921   NORMALIZED FREE ENERGY PREDICTED BY IDOCK:   -6.16 KCAL/MOL
REMARK 922        TOTAL FREE ENERGY PREDICTED BY IDOCK:   -9.73 KCAL/MOL
REMARK 923 INTER-LIGAND FREE ENERGY PREDICTED BY IDOCK:   -8.26 KCAL/MOL
REMARK 924 INTRA-LIGAND FREE ENERGY PREDICTED BY IDOCK:   -1.47 KCAL/MOL
REMARK 927      BINDING AFFINITY PREDICTED BY RF-SCORE:    0.00 PKD
ROOT
HETATM    1  N   UNK A   0     -13.707   8.856  72.986  1.00  0.00    -1.038 NA 
HETATM    2  C   UNK A   0     -12.598   8.253  72.446  1.00  0.00    -0.274 A  
HETATM    3  H2  UNK A   0     -14.581   8.916  72.464  1.00  0.00     0.000 HD 
HETATM    4  H1  UNK A   0     -13.628   9.242  73.927  1.00  0.00     0.000 HD 
HETATM    5  N   UNK A   0     -12.701   7.751  71.219  1.00  0.00    -0.287 NA 
HETATM    6  C   UNK A   0     -11.654   7.091  70.729  1.00  0.00    -0.338 A  
HETATM    7  N   UNK A   0     -11.785   6.512  69.530  1.00  0.00    -0.249 NA 
HETATM    8  C   UNK A   0     -10.762   5.754  69.070  1.00  0.00    -0.284 A  
HETATM    9  C   UNK A   0      -9.583   5.570  69.778  1.00  0.00    -0.163 A  
HETATM   10  H2  UNK A   0      -8.529   7.906  72.943  1.00  0.00     0.000 HD 
HETATM   11  N   UNK A   0      -9.406   6.190  70.964  1.00  0.00    -0.163 NA 
HETATM   12  H1  UNK A   0      -9.303   7.957  74.403  1.00  0.00     0.000 HD 
HETATM   13  C   UNK A   0     -10.454   6.937  71.431  1.00  0.00    -0.209 A  
HETATM   14  C   UNK A   0     -10.457   7.538  72.684  1.00  0.00    -0.271 A  
HETATM   15  N   UNK A   0      -9.301   7.516  73.484  1.00  0.00    -0.240 NA 
HETATM   16  N   UNK A   0     -11.506   8.192  73.202  1.00  0.00    -0.159 NA 
ENDROOT
BRANCH   9  17
HETATM   17  C   UNK A   0      -8.524   4.590  69.335  1.00  0.00    -0.093 C  
HETATM   18  C   UNK A   0      -7.213   6.466  68.212  1.00  0.00    -0.085 A  
HETATM   19  C   UNK A   0      -7.744   6.356  66.915  1.00  0.00    -0.100 A  
HETATM   20  C   UNK A   0      -6.847   7.734  68.684  1.00  0.00    -0.062 A  
HETATM   21  C   UNK A   0      -7.129   5.253  69.144  1.00  0.00    -0.057 C  
HETATM   22  C   UNK A   0      -7.118   8.877  67.930  1.00  0.00    -0.079 A  
HETATM   23  C   UNK A   0      -8.015   7.498  66.156  1.00  0.00    -0.111 A  
HETATM   24  C   UNK A   0      -6.065   4.264  68.629  1.00  0.00    -0.031 C  
HETATM   25  C   UNK A   0      -7.756   8.763  66.693  1.00  0.00    -0.093 A  
BRANCH  24  26
HETATM   26  C   UNK A   0      -5.848   3.109  69.519  1.00  0.00    -0.023 C  
HETATM   27  C   UNK A   0      -5.667   2.215  70.301  1.00  0.00    -0.017 C  
ENDBRANCH  24  26
BRANCH  25  28
HETATM   28  C   UNK A   0      -8.196   9.970  65.949  1.00  0.00    -0.128 C  
HETATM   29  O   UNK A   0      -7.972  10.092  64.751  1.00  0.00    -0.134 OA 
ATOM     30  N   GLU A   1      -8.914  10.907  66.688  1.00  0.00    -0.160 N  
ATOM     31  H   GLU A   1      -9.006  10.804  67.699  1.00  0.00     0.000 HD 
BRANCH  30  32
ATOM     32  CA  GLU A   1      -9.542  12.050  65.993  1.00  0.00    -0.234 C  
ATOM     33  O   GLU A   1      -9.488  12.935  68.243  1.00  0.00    -0.217 OA 
ATOM     34  C   GLU A   1      -9.545  13.275  66.930  1.00  0.00    -0.249 C  
ATOM     35  OXT GLU A   1      -9.736  14.424  66.562  1.00  0.00    -0.267 OA 
BRANCH  32  36
ATOM     36  CB  GLU A   1     -10.983  11.700  65.584  1.00  0.00    -0.322 C  
BRANCH  36  37
ATOM     37  CG  GLU A   1     -11.391  12.296  64.231  1.00  0.00    -0.415 C  
ATOM     38  CD  GLU A   1     -12.393  13.416  64.364  1.00  0.00    -0.341 C  
ATOM     39  OE2 GLU A   1     -12.858  13.826  65.414  1.00  0.00    -0.650 OA 
ATOM     40  OE1 GLU A   1     -12.729  13.946  63.165  1.00  0.00    -0.718 OA 
ENDBRANCH  36  37
ENDBRANCH  32  36
ENDBRANCH  30  32
ENDBRANCH  25  28
ENDBRANCH   9  17
TORSDOF 6
ENDMDL
MODEL       30
REMARK 921   NORMALIZED FREE ENERGY PREDICTED BY IDOCK:   -6.16 KCAL/MOL
REMARK 922        TOTAL FREE ENERGY PREDICTED BY IDOCK:   -9.73 KCAL/MOL
REMARK 923 INTER-LIGAND FREE ENERGY PREDICTED BY IDOCK:   -8.58 KCAL/MOL
REMARK 924 INTRA-LIGAND FREE ENERGY PREDICTED BY IDOCK:   -1.15 KCAL/MOL
REMARK 927      BINDING AFFINITY PREDICTED BY RF-SCORE:    0.00 PKD
ROOT
HETATM    1  N   UNK A   0      -5.169  15.738  67.299  1.00  0.00    -0.339 NA 
HETATM    2  C   UNK A   0      -5.357  14.651  68.119  1.00  0.00    -0.120 A  
HETATM    3  H2  UNK A   0      -5.000  15.622  66.301  1.00  0.00     0.000 HD 
HETATM    4  H1  UNK A   0      -5.206  16.665  67.723  1.00  0.00     0.000 HD 
HETATM    5  N   UNK A   0      -5.311  13.444  67.566  1.00  0.00    -0.335 NA 
HETATM    6  C   UNK A   0      -5.577  12.395  68.342  1.00  0.00    -0.057 A  
HETATM    7  N   UNK A   0      -5.614  11.187  67.770  1.00  0.00    -0.043 NA 
HETATM    8  C   UNK A   0      -5.986  10.130  68.531  1.00  0.00    -0.041 A  
HETATM    9  C   UNK A   0      -6.309  10.245  69.874  1.00  0.00    -0.082 A  
HETATM   10  H2  UNK A   0      -5.401  13.546  72.080  1.00  0.00     0.000 HD 
HETATM   11  N   UNK A   0      -6.224  11.446  70.487  1.00  0.00    -0.313 NA 
HETATM   12  H1  UNK A   0      -6.055  15.052  71.877  1.00  0.00     0.000 HD 
HETATM   13  C   UNK A   0      -5.869  12.513  69.705  1.00  0.00    -0.123 A  
HETATM   14  C   UNK A   0      -5.850  13.821  70.172  1.00  0.00    -0.142 A  
HETATM   15  N   UNK A   0      -6.068  14.091  71.534  1.00  0.00    -0.205 NA 
HETATM   16  N   UNK A   0      -5.600  14.890  69.403  1.00  0.00    -0.094 NA 
ENDROOT
BRANCH   9  17
HETATM   17  C   UNK A   0      -6.883   9.095  70.666  1.00  0.00    -0.084 C  
HETATM   18  C   UNK A   0      -8.923   9.021  69.139  1.00  0.00    -0.140 A  
HETATM   19  C   UNK A   0      -9.779   9.854  69.881  1.00  0.00    -0.274 A  
HETATM   20  C   UNK A   0      -9.018   9.031  67.740  1.00  0.00    -0.132 A  
HETATM   21  C   UNK A   0      -7.830   8.193  69.822  1.00  0.00    -0.105 C  
HETATM   22  C   UNK A   0      -9.860   9.939  67.094  1.00  0.00    -0.235 A  
HETATM   23  C   UNK A   0     -10.624  10.762  69.236  1.00  0.00    -0.261 A  
HETATM   24  C   UNK A   0      -8.464   7.059  70.648  1.00  0.00    -0.139 C  
HETATM   25  C   UNK A   0     -10.617  10.845  67.841  1.00  0.00    -0.246 A  
BRANCH  24  26
HETATM   26  C   UNK A   0      -7.480   6.150  71.264  1.00  0.00    -0.093 C  
HETATM   27  C   UNK A   0      -6.703   5.431  71.833  1.00  0.00    -0.061 C  
ENDBRANCH  24  26
BRANCH  25  28
HETATM   28  C   UNK A   0     -11.393  11.919  67.173  1.00  0.00    -0.331 C  
HETATM   29  O   UNK A   0     -12.336  12.461  67.736  1.00  0.00    -0.281 OA 
ATOM     30  N   GLU A   1     -10.943  12.293  65.909  1.00  0.00    -0.290 N  
ATOM     31  H   GLU A   1     -10.208  11.759  65.445  1.00  0.00     0.000 HD 
BRANCH  30  32
ATOM     32  CA  GLU A   1     -11.543  13.470  65.246  1.00  0.00    -0.311 C  
ATOM     33  O   GLU A   1     -11.316  12.011  63.332  1.00  0.00    -0.415 OA 
ATOM     34  C   GLU A   1     -11.993  13.079  63.825  1.00  0.00    -0.518 C  
ATOM     35  OXT GLU A   1     -12.761  13.738  63.138  1.00  0.00    -0.743 OA 
BRANCH  32  36
ATOM     36  CB  GLU A   1     -10.522  14.619  65.174  1.00  0.00    -0.440 C  
BRANCH  36  37
ATOM     37  CG  GLU A   1     -10.431  15.432  66.471  1.00  0.00    -0.295 C  
ATOM     38  CD  GLU A   1     -10.476  16.921  66.232  1.00  0.00    -0.262 C  
ATOM     39  OE2 GLU A   1     -10.567  17.457  65.141  1.00  0.00    -0.681 OA 
ATOM     40  OE1 GLU A   1     -10.416  17.626  67.385  1.00  0.00    -0.351 OA 
ENDBRANCH  36  37
ENDBRANCH  32  36
ENDBRANCH  30  32
ENDBRANCH  25  28
ENDBRANCH   9  17
TORSDOF 6
ENDMDL
MODEL       31
REMARK 921   NORMALIZED FREE ENERGY PREDICTED BY IDOCK:   -6.14 KCAL/MOL
REMARK 922        TOTAL FREE ENERGY PREDICTED BY IDOCK:   -9.70 KCAL/MOL
REMARK 923 INTER-LIGAND FREE ENERGY PREDICTED BY IDOCK:   -8.41 KCAL/MOL
REMARK 924 INTRA-LIGAND FREE ENERGY PREDICTED BY IDOCK:   -1.29 KCAL/MOL
REMARK 927      BINDING AFFINITY PREDICTED BY RF-SCORE:    0.00 PKD
ROOT
HETATM    1  N   UNK A   0      -5.572  11.261  71.359  1.00  0.00    -0.360 NA 
HETATM    2  C   UNK A   0      -6.107  10.091  70.878  1.00  0.00    -0.069 A  
HETATM    3  H2  UNK A   0      -4.654  11.584  71.055  1.00  0.00     0.000 HD 
HETATM    4  H1  UNK A   0      -6.123  11.796  72.029  1.00  0.00     0.000 HD 
HETATM    5  N   UNK A   0      -5.389   9.393  70.004  1.00  0.00    -0.032 NA 
HETATM    6  C   UNK A   0      -5.942   8.305  69.474  1.00  0.00    -0.033 A  
HETATM    7  N   UNK A   0      -5.255   7.649  68.531  1.00  0.00    -0.025 NA 
HETATM    8  C   UNK A   0      -5.854   6.603  67.914  1.00  0.00    -0.023 A  
HETATM    9  C   UNK A   0      -7.134   6.175  68.230  1.00  0.00    -0.082 A  
HETATM   10  H2  UNK A   0      -9.070   7.335  71.619  1.00  0.00     0.000 HD 
HETATM   11  N   UNK A   0      -7.825   6.785  69.217  1.00  0.00    -0.108 NA 
HETATM   12  H1  UNK A   0      -9.588   8.869  71.957  1.00  0.00     0.000 HD 
HETATM   13  C   UNK A   0      -7.221   7.856  69.820  1.00  0.00    -0.066 A  
HETATM   14  C   UNK A   0      -7.854   8.647  70.770  1.00  0.00    -0.107 A  
HETATM   15  N   UNK A   0      -9.123   8.288  71.260  1.00  0.00    -0.148 NA 
HETATM   16  N   UNK A   0      -7.321   9.755  71.304  1.00  0.00    -0.214 NA 
ENDROOT
BRANCH   9  17
HETATM   17  C   UNK A   0      -7.852   5.120  67.422  1.00  0.00    -0.096 C  
HETATM   18  C   UNK A   0      -8.873   6.915  65.927  1.00  0.00    -0.125 A  
HETATM   19  C   UNK A   0     -10.086   7.103  66.612  1.00  0.00    -0.229 A  
HETATM   20  C   UNK A   0      -8.283   8.014  65.287  1.00  0.00    -0.148 A  
HETATM   21  C   UNK A   0      -8.139   5.570  65.960  1.00  0.00    -0.108 C  
HETATM   22  C   UNK A   0      -8.827   9.293  65.429  1.00  0.00    -0.230 A  
HETATM   23  C   UNK A   0     -10.634   8.381  66.754  1.00  0.00    -0.227 A  
HETATM   24  C   UNK A   0      -8.929   4.519  65.158  1.00  0.00    -0.147 C  
HETATM   25  C   UNK A   0      -9.967   9.484  66.212  1.00  0.00    -0.344 A  
BRANCH  24  26
HETATM   26  C   UNK A   0      -8.247   3.215  65.056  1.00  0.00    -0.094 C  
HETATM   27  C   UNK A   0      -7.739   2.127  65.021  1.00  0.00    -0.069 C  
ENDBRANCH  24  26
BRANCH  25  28
HETATM   28  C   UNK A   0     -10.467  10.850  66.506  1.00  0.00    -0.253 C  
HETATM   29  O   UNK A   0     -10.321  11.353  67.613  1.00  0.00    -0.177 OA 
ATOM     30  N   GLU A   1     -11.052  11.523  65.436  1.00  0.00    -0.233 N  
ATOM     31  H   GLU A   1     -11.227  11.037  64.556  1.00  0.00     0.000 HD 
BRANCH  30  32
ATOM     32  CA  GLU A   1     -11.417  12.947  65.588  1.00  0.00    -0.332 C  
ATOM     33  O   GLU A   1     -13.254  12.214  64.197  1.00  0.00    -0.740 OA 
ATOM     34  C   GLU A   1     -12.860  13.158  65.089  1.00  0.00    -0.300 C  
ATOM     35  OXT GLU A   1     -13.538  14.145  65.335  1.00  0.00    -0.568 OA 
BRANCH  32  36
ATOM     36  CB  GLU A   1     -10.451  13.834  64.783  1.00  0.00    -0.448 C  
BRANCH  36  37
ATOM     37  CG  GLU A   1     -10.080  15.136  65.504  1.00  0.00    -0.402 C  
ATOM     38  CD  GLU A   1     -10.708  16.353  64.870  1.00  0.00    -0.191 C  
ATOM     39  OE2 GLU A   1     -11.428  16.344  63.887  1.00  0.00    -1.063 OA 
ATOM     40  OE1 GLU A   1     -10.390  17.492  65.528  1.00  0.00    -0.620 OA 
ENDBRANCH  36  37
ENDBRANCH  32  36
ENDBRANCH  30  32
ENDBRANCH  25  28
ENDBRANCH   9  17
TORSDOF 6
ENDMDL
MODEL       32
REMARK 921   NORMALIZED FREE ENERGY PREDICTED BY IDOCK:   -6.11 KCAL/MOL
REMARK 922        TOTAL FREE ENERGY PREDICTED BY IDOCK:   -9.67 KCAL/MOL
REMARK 923 INTER-LIGAND FREE ENERGY PREDICTED BY IDOCK:   -8.11 KCAL/MOL
REMARK 924 INTRA-LIGAND FREE ENERGY PREDICTED BY IDOCK:   -1.55 KCAL/MOL
REMARK 927      BINDING AFFINITY PREDICTED BY RF-SCORE:    0.00 PKD
ROOT
HETATM    1  N   UNK A   0     -11.462   5.692  73.023  1.00  0.00    -0.497 NA 
HETATM    2  C   UNK A   0     -10.764   6.023  71.887  1.00  0.00    -0.234 A  
HETATM    3  H2  UNK A   0     -12.472   5.552  72.999  1.00  0.00     0.000 HD 
HETATM    4  H1  UNK A   0     -10.936   5.590  73.891  1.00  0.00     0.000 HD 
HETATM    5  N   UNK A   0     -11.448   6.155  70.755  1.00  0.00    -0.304 NA 
HETATM    6  C   UNK A   0     -10.762   6.391  69.639  1.00  0.00    -0.282 A  
HETATM    7  N   UNK A   0     -11.440   6.440  68.487  1.00  0.00    -0.091 NA 
HETATM    8  C   UNK A   0     -10.738   6.576  67.337  1.00  0.00    -0.340 A  
HETATM    9  C   UNK A   0      -9.356   6.686  67.306  1.00  0.00    -0.132 A  
HETATM   10  H2  UNK A   0      -7.140   7.502  70.623  1.00  0.00     0.000 HD 
HETATM   11  N   UNK A   0      -8.655   6.696  68.461  1.00  0.00    -0.125 NA 
HETATM   12  H1  UNK A   0      -6.950   6.503  71.927  1.00  0.00     0.000 HD 
HETATM   13  C   UNK A   0      -9.371   6.535  69.617  1.00  0.00    -0.142 A  
HETATM   14  C   UNK A   0      -8.775   6.414  70.866  1.00  0.00    -0.136 A  
HETATM   15  N   UNK A   0      -7.388   6.592  71.010  1.00  0.00    -0.082 NA 
HETATM   16  N   UNK A   0      -9.446   6.160  71.998  1.00  0.00    -0.153 NA 
ENDROOT
BRANCH   9  17
HETATM   17  C   UNK A   0      -8.576   6.666  66.014  1.00  0.00    -0.152 C  
HETATM   18  C   UNK A   0      -8.442   9.212  66.019  1.00  0.00    -0.139 A  
HETATM   19  C   UNK A   0      -9.577   9.491  65.237  1.00  0.00    -0.314 A  
HETATM   20  C   UNK A   0      -8.092  10.106  67.040  1.00  0.00    -0.117 A  
HETATM   21  C   UNK A   0      -7.655   7.909  65.844  1.00  0.00    -0.083 C  
HETATM   22  C   UNK A   0      -8.921  11.185  67.353  1.00  0.00    -0.139 A  
HETATM   23  C   UNK A   0     -10.408  10.571  65.547  1.00  0.00    -0.287 A  
HETATM   24  C   UNK A   0      -6.910   7.919  64.496  1.00  0.00    -0.062 C  
HETATM   25  C   UNK A   0     -10.109  11.381  66.646  1.00  0.00    -0.247 A  
BRANCH  24  26
HETATM   26  C   UNK A   0      -6.048   6.742  64.286  1.00  0.00    -0.035 C  
HETATM   27  C   UNK A   0      -5.389   5.763  64.059  1.00  0.00    -0.017 C  
ENDBRANCH  24  26
BRANCH  25  28
HETATM   28  C   UNK A   0     -11.080  12.423  67.065  1.00  0.00    -0.278 C  
HETATM   29  O   UNK A   0     -12.085  12.654  66.403  1.00  0.00    -0.530 OA 
ATOM     30  N   GLU A   1     -10.797  13.064  68.269  1.00  0.00    -0.237 N  
ATOM     31  H   GLU A   1      -9.909  12.899  68.743  1.00  0.00     0.000 HD 
BRANCH  30  32
ATOM     32  CA  GLU A   1     -11.795  13.986  68.850  1.00  0.00    -0.355 C  
ATOM     33  O   GLU A   1      -9.781  15.242  69.311  1.00  0.00    -0.230 OA 
ATOM     34  C   GLU A   1     -11.124  15.342  69.144  1.00  0.00    -0.266 C  
ATOM     35  OXT GLU A   1     -11.733  16.380  69.363  1.00  0.00    -0.178 OA 
BRANCH  32  36
ATOM     36  CB  GLU A   1     -12.373  13.396  70.149  1.00  0.00    -0.322 C  
BRANCH  36  37
ATOM     37  CG  GLU A   1     -11.976  11.932  70.379  1.00  0.00    -0.400 C  
ATOM     38  CD  GLU A   1     -12.706  11.305  71.541  1.00  0.00    -0.376 C  
ATOM     39  OE2 GLU A   1     -13.521  11.870  72.249  1.00  0.00    -0.442 OA 
ATOM     40  OE1 GLU A   1     -12.362  10.009  71.720  1.00  0.00    -0.390 OA 
ENDBRANCH  36  37
ENDBRANCH  32  36
ENDBRANCH  30  32
ENDBRANCH  25  28
ENDBRANCH   9  17
TORSDOF 6
ENDMDL
MODEL       33
REMARK 921   NORMALIZED FREE ENERGY PREDICTED BY IDOCK:   -6.07 KCAL/MOL
REMARK 922        TOTAL FREE ENERGY PREDICTED BY IDOCK:   -9.61 KCAL/MOL
REMARK 923 INTER-LIGAND FREE ENERGY PREDICTED BY IDOCK:   -8.50 KCAL/MOL
REMARK 924 INTRA-LIGAND FREE ENERGY PREDICTED BY IDOCK:   -1.11 KCAL/MOL
REMARK 927      BINDING AFFINITY PREDICTED BY RF-SCORE:    0.00 PKD
ROOT
HETATM    1  N   UNK A   0      -5.147  15.315  67.372  1.00  0.00    -0.332 NA 
HETATM    2  C   UNK A   0      -5.911  14.225  67.713  1.00  0.00    -0.098 A  
HETATM    3  H2  UNK A   0      -4.198  15.202  67.016  1.00  0.00     0.000 HD 
HETATM    4  H1  UNK A   0      -5.560  16.240  67.485  1.00  0.00     0.000 HD 
HETATM    5  N   UNK A   0      -5.372  13.019  67.565  1.00  0.00    -0.296 NA 
HETATM    6  C   UNK A   0      -6.141  11.961  67.813  1.00  0.00    -0.067 A  
HETATM    7  N   UNK A   0      -5.628  10.747  67.584  1.00  0.00    -0.043 NA 
HETATM    8  C   UNK A   0      -6.437   9.672  67.735  1.00  0.00    -0.058 A  
HETATM    9  C   UNK A   0      -7.760   9.775  68.135  1.00  0.00    -0.082 A  
HETATM   10  H2  UNK A   0      -9.304  13.164  69.782  1.00  0.00     0.000 HD 
HETATM   11  N   UNK A   0      -8.284  10.986  68.427  1.00  0.00    -0.130 NA 
HETATM   12  H1  UNK A   0      -9.512  14.608  69.002  1.00  0.00     0.000 HD 
HETATM   13  C   UNK A   0      -7.465  12.069  68.250  1.00  0.00    -0.106 A  
HETATM   14  C   UNK A   0      -7.901  13.380  68.403  1.00  0.00    -0.138 A  
HETATM   15  N   UNK A   0      -9.192  13.646  68.890  1.00  0.00     0.073 NA 
HETATM   16  N   UNK A   0      -7.148  14.457  68.142  1.00  0.00    -0.109 NA 
ENDROOT
BRANCH   9  17
HETATM   17  C   UNK A   0      -8.695   8.589  68.136  1.00  0.00    -0.142 C  
HETATM   18  C   UNK A   0     -10.293   9.807  66.567  1.00  0.00    -0.262 A  
HETATM   19  C   UNK A   0     -11.146  10.380  67.526  1.00  0.00    -0.336 A  
HETATM   20  C   UNK A   0     -10.048  10.510  65.378  1.00  0.00    -0.358 A  
HETATM   21  C   UNK A   0      -9.553   8.494  66.841  1.00  0.00    -0.257 C  
HETATM   22  C   UNK A   0     -10.542  11.804  65.206  1.00  0.00    -0.327 A  
HETATM   23  C   UNK A   0     -11.644  11.674  67.355  1.00  0.00    -0.330 A  
HETATM   24  C   UNK A   0     -10.551   7.321  66.873  1.00  0.00    -0.375 C  
HETATM   25  C   UNK A   0     -11.289  12.408  66.220  1.00  0.00    -0.388 A  
BRANCH  24  26
HETATM   26  C   UNK A   0      -9.913   6.002  67.037  1.00  0.00    -0.197 C  
HETATM   27  C   UNK A   0      -9.394   4.921  67.097  1.00  0.00    -0.139 C  
ENDBRANCH  24  26
BRANCH  25  28
HETATM   28  C   UNK A   0     -11.688  13.835  66.124  1.00  0.00    -0.370 C  
HETATM   29  O   UNK A   0     -12.739  14.163  65.590  1.00  0.00    -0.514 OA 
ATOM     30  N   GLU A   1     -10.821  14.746  66.724  1.00  0.00    -0.310 N  
ATOM     31  H   GLU A   1      -9.918  14.437  67.084  1.00  0.00     0.000 HD 
BRANCH  30  32
ATOM     32  CA  GLU A   1     -11.223  16.164  66.832  1.00  0.00     0.128 C  
ATOM     33  O   GLU A   1      -9.249  16.416  65.460  1.00  0.00    -0.419 OA 
ATOM     34  C   GLU A   1     -10.422  16.998  65.813  1.00  0.00    -0.251 C  
ATOM     35  OXT GLU A   1     -10.717  18.134  65.468  1.00  0.00    -0.599 OA 
BRANCH  32  36
ATOM     36  CB  GLU A   1     -10.961  16.685  68.256  1.00  0.00    -0.341 C  
BRANCH  36  37
ATOM     37  CG  GLU A   1      -9.495  17.058  68.506  1.00  0.00    -0.269 C  
ATOM     38  CD  GLU A   1      -9.286  18.546  68.647  1.00  0.00    -0.326 C  
ATOM     39  OE2 GLU A   1     -10.162  19.391  68.568  1.00  0.00    -0.412 OA 
ATOM     40  OE1 GLU A   1      -7.993  18.860  68.887  1.00  0.00    -0.325 OA 
ENDBRANCH  36  37
ENDBRANCH  32  36
ENDBRANCH  30  32
ENDBRANCH  25  28
ENDBRANCH   9  17
TORSDOF 6
ENDMDL
MODEL       34
REMARK 921   NORMALIZED FREE ENERGY PREDICTED BY IDOCK:   -6.04 KCAL/MOL
REMARK 922        TOTAL FREE ENERGY PREDICTED BY IDOCK:   -9.57 KCAL/MOL
REMARK 923 INTER-LIGAND FREE ENERGY PREDICTED BY IDOCK:   -8.28 KCAL/MOL
REMARK 924 INTRA-LIGAND FREE ENERGY PREDICTED BY IDOCK:   -1.29 KCAL/MOL
REMARK 927      BINDING AFFINITY PREDICTED BY RF-SCORE:    0.00 PKD
ROOT
HETATM    1  N   UNK A   0     -11.695   5.645  73.282  1.00  0.00    -0.445 NA 
HETATM    2  C   UNK A   0     -10.881   5.754  72.180  1.00  0.00    -0.244 A  
HETATM    3  H2  UNK A   0     -12.710   5.686  73.193  1.00  0.00     0.000 HD 
HETATM    4  H1  UNK A   0     -11.249   5.520  74.191  1.00  0.00     0.000 HD 
HETATM    5  N   UNK A   0     -11.461   5.916  70.995  1.00  0.00    -0.169 NA 
HETATM    6  C   UNK A   0     -10.678   5.937  69.918  1.00  0.00    -0.336 A  
HETATM    7  N   UNK A   0     -11.266   6.014  68.719  1.00  0.00    -0.266 NA 
HETATM    8  C   UNK A   0     -10.483   5.931  67.617  1.00  0.00    -0.238 A  
HETATM    9  C   UNK A   0      -9.106   5.790  67.680  1.00  0.00    -0.106 A  
HETATM   10  H2  UNK A   0      -6.978   6.459  71.088  1.00  0.00     0.000 HD 
HETATM   11  N   UNK A   0      -8.485   5.766  68.880  1.00  0.00    -0.104 NA 
HETATM   12  H1  UNK A   0      -7.054   5.548  72.466  1.00  0.00     0.000 HD 
HETATM   13  C   UNK A   0      -9.286   5.829  69.989  1.00  0.00    -0.146 A  
HETATM   14  C   UNK A   0      -8.797   5.702  71.283  1.00  0.00    -0.135 A  
HETATM   15  N   UNK A   0      -7.412   5.641  71.516  1.00  0.00    -0.094 NA 
HETATM   16  N   UNK A   0      -9.570   5.663  72.378  1.00  0.00    -0.150 NA 
ENDROOT
BRANCH   9  17
HETATM   17  C   UNK A   0      -8.266   5.529  66.452  1.00  0.00    -0.106 C  
HETATM   18  C   UNK A   0      -7.618   7.991  66.333  1.00  0.00    -0.091 A  
HETATM   19  C   UNK A   0      -8.621   8.438  65.456  1.00  0.00    -0.201 A  
HETATM   20  C   UNK A   0      -7.157   8.864  67.329  1.00  0.00    -0.083 A  
HETATM   21  C   UNK A   0      -7.103   6.549  66.287  1.00  0.00    -0.067 C  
HETATM   22  C   UNK A   0      -7.767  10.105  67.522  1.00  0.00    -0.091 A  
HETATM   23  C   UNK A   0      -9.233   9.681  65.645  1.00  0.00    -0.270 A  
HETATM   24  C   UNK A   0      -6.289   6.320  64.999  1.00  0.00    -0.034 C  
HETATM   25  C   UNK A   0      -8.844  10.487  66.719  1.00  0.00    -0.139 A  
BRANCH  24  26
HETATM   26  C   UNK A   0      -5.673   4.983  64.916  1.00  0.00    -0.017 C  
HETATM   27  C   UNK A   0      -5.238   3.865  64.854  1.00  0.00    -0.009 C  
ENDBRANCH  24  26
BRANCH  25  28
HETATM   28  C   UNK A   0      -9.607  11.727  67.009  1.00  0.00    -0.187 C  
HETATM   29  O   UNK A   0      -9.489  12.306  68.081  1.00  0.00    -0.203 OA 
ATOM     30  N   GLU A   1     -10.407  12.200  65.971  1.00  0.00    -0.231 N  
ATOM     31  H   GLU A   1     -10.538  11.643  65.127  1.00  0.00     0.000 HD 
BRANCH  30  32
ATOM     32  CA  GLU A   1     -11.061  13.518  66.105  1.00  0.00    -0.291 C  
ATOM     33  O   GLU A   1     -12.585  12.477  64.544  1.00  0.00    -0.558 OA 
ATOM     34  C   GLU A   1     -12.468  13.453  65.479  1.00  0.00    -0.483 C  
ATOM     35  OXT GLU A   1     -13.349  14.279  65.673  1.00  0.00    -0.529 OA 
BRANCH  32  36
ATOM     36  CB  GLU A   1     -10.226  14.603  65.403  1.00  0.00    -0.415 C  
BRANCH  36  37
ATOM     37  CG  GLU A   1      -9.873  15.783  66.317  1.00  0.00    -0.320 C  
ATOM     38  CD  GLU A   1     -10.414  17.097  65.811  1.00  0.00    -0.233 C  
ATOM     39  OE2 GLU A   1     -11.059  17.246  64.787  1.00  0.00    -0.954 OA 
ATOM     40  OE1 GLU A   1     -10.113  18.125  66.637  1.00  0.00    -0.332 OA 
ENDBRANCH  36  37
ENDBRANCH  32  36
ENDBRANCH  30  32
ENDBRANCH  25  28
ENDBRANCH   9  17
TORSDOF 6
ENDMDL
MODEL       35
REMARK 921   NORMALIZED FREE ENERGY PREDICTED BY IDOCK:   -6.02 KCAL/MOL
REMARK 922        TOTAL FREE ENERGY PREDICTED BY IDOCK:   -9.54 KCAL/MOL
REMARK 923 INTER-LIGAND FREE ENERGY PREDICTED BY IDOCK:   -9.64 KCAL/MOL
REMARK 924 INTRA-LIGAND FREE ENERGY PREDICTED BY IDOCK:    0.10 KCAL/MOL
REMARK 927      BINDING AFFINITY PREDICTED BY RF-SCORE:    0.00 PKD
ROOT
HETATM    1  N   UNK A   0     -12.581  15.975  72.351  1.00  0.00    -0.452 NA 
HETATM    2  C   UNK A   0     -12.441  15.106  71.296  1.00  0.00    -0.344 A  
HETATM    3  H2  UNK A   0     -12.748  15.633  73.297  1.00  0.00     0.000 HD 
HETATM    4  H1  UNK A   0     -12.513  16.974  72.156  1.00  0.00     0.000 HD 
HETATM    5  N   UNK A   0     -12.530  13.804  71.550  1.00  0.00    -0.315 NA 
HETATM    6  C   UNK A   0     -12.309  12.959  70.545  1.00  0.00    -0.283 A  
HETATM    7  N   UNK A   0     -12.315  11.649  70.817  1.00  0.00    -0.385 NA 
HETATM    8  C   UNK A   0     -11.989  10.788  69.824  1.00  0.00    -0.325 A  
HETATM    9  C   UNK A   0     -11.672  11.205  68.540  1.00  0.00    -0.298 A  
HETATM   10  H2  UNK A   0     -12.468  14.962  67.185  1.00  0.00     0.000 HD 
HETATM   11  N   UNK A   0     -11.715  12.519  68.228  1.00  0.00    -0.327 NA 
HETATM   12  H1  UNK A   0     -11.755  16.353  67.726  1.00  0.00     0.000 HD 
HETATM   13  C   UNK A   0     -12.023  13.383  69.244  1.00  0.00    -0.317 A  
HETATM   14  C   UNK A   0     -11.995  14.764  69.098  1.00  0.00    -0.282 A  
HETATM   15  N   UNK A   0     -11.776  15.339  67.834  1.00  0.00    -0.290 NA 
HETATM   16  N   UNK A   0     -12.198  15.631  70.100  1.00  0.00    -0.383 NA 
ENDROOT
BRANCH   9  17
HETATM   17  C   UNK A   0     -11.148  10.253  67.491  1.00  0.00    -0.302 C  
HETATM   18  C   UNK A   0      -9.047  11.669  67.209  1.00  0.00    -0.167 A  
HETATM   19  C   UNK A   0      -9.474  12.482  66.144  1.00  0.00    -0.184 A  
HETATM   20  C   UNK A   0      -8.177  12.213  68.165  1.00  0.00    -0.164 A  
HETATM   21  C   UNK A   0      -9.595  10.251  67.399  1.00  0.00    -0.183 C  
HETATM   22  C   UNK A   0      -7.840  13.568  68.127  1.00  0.00    -0.144 A  
HETATM   23  C   UNK A   0      -9.137  13.837  66.103  1.00  0.00     0.079 A  
HETATM   24  C   UNK A   0      -9.066   9.328  66.284  1.00  0.00    -0.213 C  
HETATM   25  C   UNK A   0      -8.369  14.392  67.130  1.00  0.00    -0.214 A  
BRANCH  24  26
HETATM   26  C   UNK A   0      -9.467   7.918  66.442  1.00  0.00    -0.258 C  
HETATM   27  C   UNK A   0      -9.723   6.753  66.588  1.00  0.00    -0.213 C  
ENDBRANCH  24  26
BRANCH  25  28
HETATM   28  C   UNK A   0      -8.152  15.860  67.163  1.00  0.00    -0.207 C  
HETATM   29  O   UNK A   0      -7.026  16.331  67.256  1.00  0.00    -0.155 OA 
ATOM     30  N   GLU A   1      -9.297  16.642  67.028  1.00  0.00    -0.219 N  
ATOM     31  H   GLU A   1     -10.221  16.209  67.037  1.00  0.00     0.000 HD 
BRANCH  30  32
ATOM     32  CA  GLU A   1      -9.159  18.106  66.873  1.00  0.00    -0.274 C  
ATOM     33  O   GLU A   1     -10.729  17.664  65.088  1.00  0.00    -0.658 OA 
ATOM     34  C   GLU A   1     -10.262  18.622  65.927  1.00  0.00    -0.253 C  
ATOM     35  OXT GLU A   1     -10.584  19.797  65.820  1.00  0.00    -0.523 OA 
BRANCH  32  36
ATOM     36  CB  GLU A   1      -7.774  18.453  66.300  1.00  0.00    -0.279 C  
BRANCH  36  37
ATOM     37  CG  GLU A   1      -7.197  19.759  66.858  1.00  0.00    -0.241 C  
ATOM     38  CD  GLU A   1      -6.848  19.665  68.323  1.00  0.00    -0.289 C  
ATOM     39  OE2 GLU A   1      -7.002  18.678  69.022  1.00  0.00    -0.286 OA 
ATOM     40  OE1 GLU A   1      -6.321  20.817  68.798  1.00  0.00    -0.295 OA 
ENDBRANCH  36  37
ENDBRANCH  32  36
ENDBRANCH  30  32
ENDBRANCH  25  28
ENDBRANCH   9  17
TORSDOF 6
ENDMDL
MODEL       36
REMARK 921   NORMALIZED FREE ENERGY PREDICTED BY IDOCK:   -6.01 KCAL/MOL
REMARK 922        TOTAL FREE ENERGY PREDICTED BY IDOCK:   -9.53 KCAL/MOL
REMARK 923 INTER-LIGAND FREE ENERGY PREDICTED BY IDOCK:   -9.05 KCAL/MOL
REMARK 924 INTRA-LIGAND FREE ENERGY PREDICTED BY IDOCK:   -0.49 KCAL/MOL
REMARK 927      BINDING AFFINITY PREDICTED BY RF-SCORE:    0.00 PKD
ROOT
HETATM    1  N   UNK A   0     -13.270  12.343  64.683  1.00  0.00    -0.731 NA 
HETATM    2  C   UNK A   0     -12.379  13.334  65.015  1.00  0.00    -0.448 A  
HETATM    3  H2  UNK A   0     -13.321  11.478  65.221  1.00  0.00     0.000 HD 
HETATM    4  H1  UNK A   0     -13.880  12.501  63.881  1.00  0.00     0.000 HD 
HETATM    5  N   UNK A   0     -11.585  13.128  66.061  1.00  0.00    -0.337 NA 
HETATM    6  C   UNK A   0     -10.781  14.122  66.435  1.00  0.00    -0.288 A  
HETATM    7  N   UNK A   0     -10.043  13.948  67.537  1.00  0.00    -0.242 NA 
HETATM    8  C   UNK A   0      -9.302  14.990  67.982  1.00  0.00    -0.185 A  
HETATM    9  C   UNK A   0      -9.262  16.216  67.336  1.00  0.00    -0.208 A  
HETATM   10  H2  UNK A   0     -10.620  16.744  63.533  1.00  0.00     0.000 HD 
HETATM   11  N   UNK A   0      -9.955  16.397  66.190  1.00  0.00    -0.319 NA 
HETATM   12  H1  UNK A   0     -12.197  16.630  63.047  1.00  0.00     0.000 HD 
HETATM   13  C   UNK A   0     -10.718  15.344  65.760  1.00  0.00    -0.351 A  
HETATM   14  C   UNK A   0     -11.567  15.424  64.663  1.00  0.00    -0.311 A  
HETATM   15  N   UNK A   0     -11.573  16.572  63.852  1.00  0.00    -1.071 NA 
HETATM   16  N   UNK A   0     -12.395  14.442  64.280  1.00  0.00    -0.660 NA 
ENDROOT
BRANCH   9  17
HETATM   17  C   UNK A   0      -8.570  17.418  67.932  1.00  0.00    -0.232 C  
HETATM   18  C   UNK A   0      -6.567  15.981  68.582  1.00  0.00    -0.123 A  
HETATM   19  C   UNK A   0      -6.953  15.652  69.894  1.00  0.00    -0.045 A  
HETATM   20  C   UNK A   0      -5.836  15.044  67.840  1.00  0.00    -0.154 A  
HETATM   21  C   UNK A   0      -7.019  17.289  67.923  1.00  0.00    -0.173 C  
HETATM   22  C   UNK A   0      -5.602  13.764  68.348  1.00  0.00    -0.102 A  
HETATM   23  C   UNK A   0      -6.718  14.373  70.406  1.00  0.00     0.059 A  
HETATM   24  C   UNK A   0      -6.318  18.487  68.591  1.00  0.00    -0.227 C  
HETATM   25  C   UNK A   0      -6.096  13.410  69.606  1.00  0.00    -0.123 A  
BRANCH  24  26
HETATM   26  C   UNK A   0      -6.622  19.782  67.956  1.00  0.00    -0.284 C  
HETATM   27  C   UNK A   0      -6.860  20.805  67.372  1.00  0.00    -0.411 C  
ENDBRANCH  24  26
BRANCH  25  28
HETATM   28  C   UNK A   0      -5.997  12.013  70.096  1.00  0.00    -0.159 C  
HETATM   29  O   UNK A   0      -5.223  11.711  70.996  1.00  0.00    -0.121 OA 
ATOM     30  N   GLU A   1      -6.872  11.103  69.507  1.00  0.00    -0.136 N  
ATOM     31  H   GLU A   1      -7.440  11.379  68.706  1.00  0.00     0.000 HD 
BRANCH  30  32
ATOM     32  CA  GLU A   1      -6.968   9.733  70.053  1.00  0.00    -0.106 C  
ATOM     33  O   GLU A   1      -6.471   9.205  67.747  1.00  0.00    -0.055 OA 
ATOM     34  C   GLU A   1      -6.417   8.733  69.018  1.00  0.00    -0.048 C  
ATOM     35  OXT GLU A   1      -6.106   7.578  69.272  1.00  0.00    -0.029 OA 
BRANCH  32  36
ATOM     36  CB  GLU A   1      -8.432   9.392  70.383  1.00  0.00    -0.247 C  
BRANCH  36  37
ATOM     37  CG  GLU A   1      -9.437  10.054  69.433  1.00  0.00    -0.237 C  
ATOM     38  CD  GLU A   1     -10.819  10.166  70.030  1.00  0.00    -0.307 C  
ATOM     39  OE2 GLU A   1     -11.141   9.777  71.139  1.00  0.00    -0.343 OA 
ATOM     40  OE1 GLU A   1     -11.690  10.771  69.190  1.00  0.00    -0.292 OA 
ENDBRANCH  36  37
ENDBRANCH  32  36
ENDBRANCH  30  32
ENDBRANCH  25  28
ENDBRANCH   9  17
TORSDOF 6
ENDMDL
MODEL       37
REMARK 921   NORMALIZED FREE ENERGY PREDICTED BY IDOCK:   -6.01 KCAL/MOL
REMARK 922        TOTAL FREE ENERGY PREDICTED BY IDOCK:   -9.53 KCAL/MOL
REMARK 923 INTER-LIGAND FREE ENERGY PREDICTED BY IDOCK:   -8.01 KCAL/MOL
REMARK 924 INTRA-LIGAND FREE ENERGY PREDICTED BY IDOCK:   -1.52 KCAL/MOL
REMARK 927      BINDING AFFINITY PREDICTED BY RF-SCORE:    0.00 PKD
ROOT
HETATM    1  N   UNK A   0      -5.162  16.542  70.709  1.00  0.00    -0.196 NA 
HETATM    2  C   UNK A   0      -6.178  16.036  69.935  1.00  0.00    -0.154 A  
HETATM    3  H2  UNK A   0      -4.466  15.929  71.132  1.00  0.00     0.000 HD 
HETATM    4  H1  UNK A   0      -5.127  17.553  70.845  1.00  0.00     0.000 HD 
HETATM    5  N   UNK A   0      -6.224  14.720  69.756  1.00  0.00    -0.132 NA 
HETATM    6  C   UNK A   0      -7.157  14.236  68.938  1.00  0.00    -0.113 A  
HETATM    7  N   UNK A   0      -7.151  12.922  68.691  1.00  0.00    -0.100 NA 
HETATM    8  C   UNK A   0      -8.030  12.438  67.781  1.00  0.00    -0.156 A  
HETATM    9  C   UNK A   0      -8.941  13.242  67.113  1.00  0.00    -0.229 A  
HETATM   10  H2  UNK A   0      -9.823  17.033  68.310  1.00  0.00     0.000 HD 
HETATM   11  N   UNK A   0      -9.003  14.563  67.388  1.00  0.00    -0.190 NA 
HETATM   12  H1  UNK A   0      -8.786  18.321  68.277  1.00  0.00     0.000 HD 
HETATM   13  C   UNK A   0      -8.097  15.047  68.293  1.00  0.00    -0.133 A  
HETATM   14  C   UNK A   0      -7.969  16.398  68.589  1.00  0.00    -0.220 A  
HETATM   15  N   UNK A   0      -8.880  17.329  68.060  1.00  0.00    -0.232 NA 
HETATM   16  N   UNK A   0      -7.028  16.905  69.397  1.00  0.00    -0.213 NA 
ENDROOT
BRANCH   9  17
HETATM   17  C   UNK A   0      -9.796  12.722  65.982  1.00  0.00    -0.258 C  
HETATM   18  C   UNK A   0     -11.462  11.746  67.647  1.00  0.00    -0.370 A  
HETATM   19  C   UNK A   0     -10.936  10.446  67.743  1.00  0.00    -0.369 A  
HETATM   20  C   UNK A   0     -12.062  12.316  68.779  1.00  0.00    -0.162 A  
HETATM   21  C   UNK A   0     -11.295  12.580  66.373  1.00  0.00    -0.379 C  
HETATM   22  C   UNK A   0     -12.029  11.654  70.007  1.00  0.00    -0.429 A  
HETATM   23  C   UNK A   0     -10.904   9.779  68.971  1.00  0.00    -0.223 A  
HETATM   24  C   UNK A   0     -12.153  11.988  65.238  1.00  0.00    -0.124 C  
HETATM   25  C   UNK A   0     -11.397  10.412  70.116  1.00  0.00    -0.397 A  
BRANCH  24  26
HETATM   26  C   UNK A   0     -12.128  12.785  63.998  1.00  0.00    -0.533 C  
HETATM   27  C   UNK A   0     -12.125  13.493  63.028  1.00  0.00     0.252 C  
ENDBRANCH  24  26
BRANCH  25  28
HETATM   28  C   UNK A   0     -11.211   9.766  71.439  1.00  0.00    -0.298 C  
HETATM   29  O   UNK A   0     -12.088   9.810  72.293  1.00  0.00    -0.129 OA 
ATOM     30  N   GLU A   1     -10.014   9.075  71.612  1.00  0.00    -0.324 N  
ATOM     31  H   GLU A   1      -9.279   9.134  70.906  1.00  0.00     0.000 HD 
BRANCH  30  32
ATOM     32  CA  GLU A   1      -9.819   8.256  72.826  1.00  0.00    -0.263 C  
ATOM     33  O   GLU A   1      -7.513   8.787  72.333  1.00  0.00    -0.324 OA 
ATOM     34  C   GLU A   1      -8.368   8.416  73.319  1.00  0.00    -0.113 C  
ATOM     35  OXT GLU A   1      -7.978   8.096  74.433  1.00  0.00    -0.227 OA 
BRANCH  32  36
ATOM     36  CB  GLU A   1     -10.110   6.776  72.524  1.00  0.00    -0.190 C  
BRANCH  36  37
ATOM     37  CG  GLU A   1      -9.651   6.341  71.126  1.00  0.00    -0.190 C  
ATOM     38  CD  GLU A   1     -10.787   6.261  70.137  1.00  0.00    -0.313 C  
ATOM     39  OE2 GLU A   1     -11.956   6.500  70.385  1.00  0.00    -0.397 OA 
ATOM     40  OE1 GLU A   1     -10.366   5.897  68.904  1.00  0.00    -0.184 OA 
ENDBRANCH  36  37
ENDBRANCH  32  36
ENDBRANCH  30  32
ENDBRANCH  25  28
ENDBRANCH   9  17
TORSDOF 6
ENDMDL
MODEL       38
REMARK 921   NORMALIZED FREE ENERGY PREDICTED BY IDOCK:   -6.00 KCAL/MOL
REMARK 922        TOTAL FREE ENERGY PREDICTED BY IDOCK:   -9.52 KCAL/MOL
REMARK 923 INTER-LIGAND FREE ENERGY PREDICTED BY IDOCK:   -7.69 KCAL/MOL
REMARK 924 INTRA-LIGAND FREE ENERGY PREDICTED BY IDOCK:   -1.82 KCAL/MOL
REMARK 927      BINDING AFFINITY PREDICTED BY RF-SCORE:    0.00 PKD
ROOT
HETATM    1  N   UNK A   0      -7.535   3.742  66.949  1.00  0.00    -0.078 NA 
HETATM    2  C   UNK A   0      -8.303   4.876  66.842  1.00  0.00    -0.106 A  
HETATM    3  H2  UNK A   0      -6.712   3.605  66.364  1.00  0.00     0.000 HD 
HETATM    4  H1  UNK A   0      -7.817   3.041  67.635  1.00  0.00     0.000 HD 
HETATM    5  N   UNK A   0      -7.936   5.790  65.949  1.00  0.00    -0.105 NA 
HETATM    6  C   UNK A   0      -8.629   6.926  65.904  1.00  0.00    -0.145 A  
HETATM    7  N   UNK A   0      -8.210   7.881  65.065  1.00  0.00    -0.143 NA 
HETATM    8  C   UNK A   0      -8.845   9.076  65.088  1.00  0.00    -0.182 A  
HETATM    9  C   UNK A   0      -9.918   9.343  65.926  1.00  0.00    -0.256 A  
HETATM   10  H2  UNK A   0     -11.978   6.415  67.866  1.00  0.00     0.000 HD 
HETATM   11  N   UNK A   0     -10.393   8.377  66.740  1.00  0.00    -0.310 NA 
HETATM   12  H1  UNK A   0     -11.380   5.452  69.071  1.00  0.00     0.000 HD 
HETATM   13  C   UNK A   0      -9.731   7.179  66.726  1.00  0.00    -0.192 A  
HETATM   14  C   UNK A   0     -10.037   6.134  67.589  1.00  0.00    -0.155 A  
HETATM   15  N   UNK A   0     -11.156   6.219  68.437  1.00  0.00    -0.329 NA 
HETATM   16  N   UNK A   0      -9.343   4.990  67.661  1.00  0.00    -0.121 NA 
ENDROOT
BRANCH   9  17
HETATM   17  C   UNK A   0     -10.506  10.727  66.063  1.00  0.00    -0.273 C  
HETATM   18  C   UNK A   0      -9.388  11.012  68.336  1.00  0.00    -0.179 A  
HETATM   19  C   UNK A   0     -10.443  10.569  69.154  1.00  0.00    -0.250 A  
HETATM   20  C   UNK A   0      -8.070  10.764  68.743  1.00  0.00    -0.143 A  
HETATM   21  C   UNK A   0      -9.655  11.659  66.973  1.00  0.00    -0.196 C  
HETATM   22  C   UNK A   0      -7.812   9.986  69.874  1.00  0.00    -0.185 A  
HETATM   23  C   UNK A   0     -10.187   9.792  70.287  1.00  0.00    -0.346 A  
HETATM   24  C   UNK A   0     -10.291  13.049  67.164  1.00  0.00    -0.243 C  
HETATM   25  C   UNK A   0      -8.871   9.450  70.610  1.00  0.00    -0.275 A  
BRANCH  24  26
HETATM   26  C   UNK A   0     -10.495  13.786  65.903  1.00  0.00    -0.300 C  
HETATM   27  C   UNK A   0     -10.635  14.447  64.910  1.00  0.00    -0.456 C  
ENDBRANCH  24  26
BRANCH  25  28
HETATM   28  C   UNK A   0      -8.621   8.494  71.718  1.00  0.00    -0.190 C  
HETATM   29  O   UNK A   0      -7.961   8.818  72.697  1.00  0.00    -0.380 OA 
ATOM     30  N   GLU A   1      -9.226   7.246  71.586  1.00  0.00    -0.146 N  
ATOM     31  H   GLU A   1      -9.697   6.991  70.718  1.00  0.00     0.000 HD 
BRANCH  30  32
ATOM     32  CA  GLU A   1      -9.179   6.296  72.718  1.00  0.00    -0.137 C  
ATOM     33  O   GLU A   1      -8.586   4.797  70.916  1.00  0.00    -0.106 OA 
ATOM     34  C   GLU A   1      -8.502   4.990  72.257  1.00  0.00    -0.124 C  
ATOM     35  OXT GLU A   1      -8.069   4.133  73.013  1.00  0.00    -0.087 OA 
BRANCH  32  36
ATOM     36  CB  GLU A   1     -10.601   5.998  73.224  1.00  0.00    -0.276 C  
BRANCH  36  37
ATOM     37  CG  GLU A   1     -11.655   6.003  72.109  1.00  0.00    -0.348 C  
ATOM     38  CD  GLU A   1     -12.367   7.327  71.984  1.00  0.00    -0.263 C  
ATOM     39  OE2 GLU A   1     -12.161   8.307  72.681  1.00  0.00    -0.384 OA 
ATOM     40  OE1 GLU A   1     -13.278   7.325  70.985  1.00  0.00    -0.283 OA 
ENDBRANCH  36  37
ENDBRANCH  32  36
ENDBRANCH  30  32
ENDBRANCH  25  28
ENDBRANCH   9  17
TORSDOF 6
ENDMDL
MODEL       39
REMARK 921   NORMALIZED FREE ENERGY PREDICTED BY IDOCK:   -5.98 KCAL/MOL
REMARK 922        TOTAL FREE ENERGY PREDICTED BY IDOCK:   -9.49 KCAL/MOL
REMARK 923 INTER-LIGAND FREE ENERGY PREDICTED BY IDOCK:   -8.24 KCAL/MOL
REMARK 924 INTRA-LIGAND FREE ENERGY PREDICTED BY IDOCK:   -1.25 KCAL/MOL
REMARK 927      BINDING AFFINITY PREDICTED BY RF-SCORE:    0.00 PKD
ROOT
HETATM    1  N   UNK A   0     -13.572   9.697  71.257  1.00  0.00    -0.425 NA 
HETATM    2  C   UNK A   0     -12.779  10.758  70.893  1.00  0.00    -0.384 A  
HETATM    3  H2  UNK A   0     -14.435   9.840  71.781  1.00  0.00     0.000 HD 
HETATM    4  H1  UNK A   0     -13.270   8.761  70.984  1.00  0.00     0.000 HD 
HETATM    5  N   UNK A   0     -13.173  11.976  71.247  1.00  0.00    -0.113 NA 
HETATM    6  C   UNK A   0     -12.450  13.011  70.822  1.00  0.00    -0.302 A  
HETATM    7  N   UNK A   0     -12.892  14.241  71.106  1.00  0.00    -0.341 NA 
HETATM    8  C   UNK A   0     -12.220  15.297  70.589  1.00  0.00    -0.364 A  
HETATM    9  C   UNK A   0     -11.089  15.156  69.799  1.00  0.00    -0.278 A  
HETATM   10  H2  UNK A   0      -9.001  11.669  69.545  1.00  0.00     0.000 HD 
HETATM   11  N   UNK A   0     -10.592  13.926  69.546  1.00  0.00     0.046 NA 
HETATM   12  H1  UNK A   0      -9.550  10.264  68.867  1.00  0.00     0.000 HD 
HETATM   13  C   UNK A   0     -11.291  12.864  70.054  1.00  0.00     0.127 A  
HETATM   14  C   UNK A   0     -10.962  11.542  69.781  1.00  0.00     0.014 A  
HETATM   15  N   UNK A   0      -9.791  11.235  69.067  1.00  0.00    -0.139 NA 
HETATM   16  N   UNK A   0     -11.685  10.488  70.186  1.00  0.00    -0.299 NA 
ENDROOT
BRANCH   9  17
HETATM   17  C   UNK A   0     -10.451  16.328  69.092  1.00  0.00    -0.280 C  
HETATM   18  C   UNK A   0     -10.811  15.203  66.834  1.00  0.00    -0.317 A  
HETATM   19  C   UNK A   0      -9.569  14.556  66.713  1.00  0.00    -0.274 A  
HETATM   20  C   UNK A   0     -11.947  14.587  66.291  1.00  0.00    -0.335 A  
HETATM   21  C   UNK A   0     -10.958  16.503  67.632  1.00  0.00    -0.207 C  
HETATM   22  C   UNK A   0     -11.867  13.302  65.751  1.00  0.00    -0.428 A  
HETATM   23  C   UNK A   0      -9.485  13.270  66.171  1.00  0.00    -0.153 A  
HETATM   24  C   UNK A   0     -10.257  17.658  66.892  1.00  0.00    -0.334 C  
HETATM   25  C   UNK A   0     -10.647  12.620  65.746  1.00  0.00    -0.296 A  
BRANCH  24  26
HETATM   26  C   UNK A   0     -10.430  18.970  67.542  1.00  0.00    -0.537 C  
HETATM   27  C   UNK A   0     -10.516  20.065  68.030  1.00  0.00    -0.448 C  
ENDBRANCH  24  26
BRANCH  25  28
HETATM   28  C   UNK A   0     -10.571  11.199  65.325  1.00  0.00    -0.238 C  
HETATM   29  O   UNK A   0     -10.848  10.863  64.180  1.00  0.00    -0.305 OA 
ATOM     30  N   GLU A   1     -10.119  10.305  66.293  1.00  0.00    -0.232 N  
ATOM     31  H   GLU A   1      -9.979  10.615  67.255  1.00  0.00     0.000 HD 
BRANCH  30  32
ATOM     32  CA  GLU A   1      -9.843   8.904  65.912  1.00  0.00    -0.129 C  
ATOM     33  O   GLU A   1     -10.729   8.544  68.132  1.00  0.00    -0.157 OA 
ATOM     34  C   GLU A   1     -10.519   7.960  66.926  1.00  0.00    -0.318 C  
ATOM     35  OXT GLU A   1     -10.709   6.767  66.737  1.00  0.00    -0.294 OA 
BRANCH  32  36
ATOM     36  CB  GLU A   1      -8.327   8.646  65.886  1.00  0.00    -0.140 C  
BRANCH  36  37
ATOM     37  CG  GLU A   1      -7.635   8.962  67.218  1.00  0.00    -0.089 C  
ATOM     38  CD  GLU A   1      -6.848  10.248  67.178  1.00  0.00    -0.082 C  
ATOM     39  OE2 GLU A   1      -6.742  10.980  66.208  1.00  0.00    -0.134 OA 
ATOM     40  OE1 GLU A   1      -6.261  10.525  68.365  1.00  0.00    -0.050 OA 
ENDBRANCH  36  37
ENDBRANCH  32  36
ENDBRANCH  30  32
ENDBRANCH  25  28
ENDBRANCH   9  17
TORSDOF 6
ENDMDL
MODEL       40
REMARK 921   NORMALIZED FREE ENERGY PREDICTED BY IDOCK:   -5.97 KCAL/MOL
REMARK 922        TOTAL FREE ENERGY PREDICTED BY IDOCK:   -9.48 KCAL/MOL
REMARK 923 INTER-LIGAND FREE ENERGY PREDICTED BY IDOCK:   -8.57 KCAL/MOL
REMARK 924 INTRA-LIGAND FREE ENERGY PREDICTED BY IDOCK:   -0.91 KCAL/MOL
REMARK 927      BINDING AFFINITY PREDICTED BY RF-SCORE:    0.00 PKD
ROOT
HETATM    1  N   UNK A   0     -14.133  12.453  72.460  1.00  0.00    -0.357 NA 
HETATM    2  C   UNK A   0     -13.281  11.545  71.878  1.00  0.00    -0.374 A  
HETATM    3  H2  UNK A   0     -14.250  13.389  72.072  1.00  0.00     0.000 HD 
HETATM    4  H1  UNK A   0     -14.644  12.160  73.292  1.00  0.00     0.000 HD 
HETATM    5  N   UNK A   0     -12.615  11.927  70.793  1.00  0.00    -0.280 NA 
HETATM    6  C   UNK A   0     -11.856  11.021  70.180  1.00  0.00    -0.357 A  
HETATM    7  N   UNK A   0     -11.252  11.378  69.041  1.00  0.00    -0.233 NA 
HETATM    8  C   UNK A   0     -10.564  10.433  68.358  1.00  0.00    -0.208 A  
HETATM    9  C   UNK A   0     -10.444   9.124  68.798  1.00  0.00    -0.212 A  
HETATM   10  H2  UNK A   0     -11.346   7.988  72.604  1.00  0.00     0.000 HD 
HETATM   11  N   UNK A   0     -10.997   8.754  69.974  1.00  0.00    -0.236 NA 
HETATM   12  H1  UNK A   0     -12.857   7.991  73.278  1.00  0.00     0.000 HD 
HETATM   13  C   UNK A   0     -11.710   9.710  70.646  1.00  0.00    -0.280 A  
HETATM   14  C   UNK A   0     -12.425   9.445  71.807  1.00  0.00    -0.391 A  
HETATM   15  N   UNK A   0     -12.331   8.186  72.426  1.00  0.00    -0.324 NA 
HETATM   16  N   UNK A   0     -13.207  10.338  72.430  1.00  0.00    -0.217 NA 
ENDROOT
BRANCH   9  17
HETATM   17  C   UNK A   0      -9.820   8.043  67.948  1.00  0.00    -0.204 C  
HETATM   18  C   UNK A   0      -7.636   9.352  67.830  1.00  0.00    -0.088 A  
HETATM   19  C   UNK A   0      -7.866  10.052  66.632  1.00  0.00    -0.111 A  
HETATM   20  C   UNK A   0      -6.888   9.974  68.840  1.00  0.00    -0.054 A  
HETATM   21  C   UNK A   0      -8.271   7.982  68.087  1.00  0.00    -0.126 C  
HETATM   22  C   UNK A   0      -6.485  11.304  68.707  1.00  0.00    -0.058 A  
HETATM   23  C   UNK A   0      -7.463  11.383  66.495  1.00  0.00    -0.068 A  
HETATM   24  C   UNK A   0      -7.632   6.923  67.169  1.00  0.00    -0.107 C  
HETATM   25  C   UNK A   0      -6.825  12.026  67.560  1.00  0.00    -0.128 A  
BRANCH  24  26
HETATM   26  C   UNK A   0      -8.118   5.553  67.416  1.00  0.00    -0.101 C  
HETATM   27  C   UNK A   0      -8.539   4.460  67.683  1.00  0.00    -0.108 C  
ENDBRANCH  24  26
BRANCH  25  28
HETATM   28  C   UNK A   0      -6.546  13.481  67.467  1.00  0.00    -0.117 C  
HETATM   29  O   UNK A   0      -5.403  13.899  67.341  1.00  0.00    -0.341 OA 
ATOM     30  N   GLU A   1      -7.664  14.312  67.478  1.00  0.00    -0.180 N  
ATOM     31  H   GLU A   1      -8.590  13.927  67.668  1.00  0.00     0.000 HD 
BRANCH  30  32
ATOM     32  CA  GLU A   1      -7.496  15.756  67.213  1.00  0.00    -0.217 C  
ATOM     33  O   GLU A   1      -8.242  15.860  69.510  1.00  0.00    -0.219 OA 
ATOM     34  C   GLU A   1      -7.561  16.529  68.545  1.00  0.00    -0.200 C  
ATOM     35  OXT GLU A   1      -7.186  17.683  68.692  1.00  0.00    -0.235 OA 
BRANCH  32  36
ATOM     36  CB  GLU A   1      -8.598  16.256  66.263  1.00  0.00    -0.374 C  
BRANCH  36  37
ATOM     37  CG  GLU A   1      -9.602  15.165  65.870  1.00  0.00    -0.373 C  
ATOM     38  CD  GLU A   1     -10.735  15.691  65.024  1.00  0.00    -0.436 C  
ATOM     39  OE2 GLU A   1     -10.876  16.851  64.677  1.00  0.00    -0.864 OA 
ATOM     40  OE1 GLU A   1     -11.601  14.715  64.668  1.00  0.00    -0.394 OA 
ENDBRANCH  36  37
ENDBRANCH  32  36
ENDBRANCH  30  32
ENDBRANCH  25  28
ENDBRANCH   9  17
TORSDOF 6
ENDMDL
MODEL       41
REMARK 921   NORMALIZED FREE ENERGY PREDICTED BY IDOCK:   -5.93 KCAL/MOL
REMARK 922        TOTAL FREE ENERGY PREDICTED BY IDOCK:   -9.42 KCAL/MOL
REMARK 923 INTER-LIGAND FREE ENERGY PREDICTED BY IDOCK:   -7.91 KCAL/MOL
REMARK 924 INTRA-LIGAND FREE ENERGY PREDICTED BY IDOCK:   -1.50 KCAL/MOL
REMARK 927      BINDING AFFINITY PREDICTED BY RF-SCORE:    0.00 PKD
ROOT
HETATM    1  N   UNK A   0      -6.403  18.404  65.206  1.00  0.00    -0.375 NA 
HETATM    2  C   UNK A   0      -7.194  17.810  66.159  1.00  0.00    -0.311 A  
HETATM    3  H2  UNK A   0      -6.648  18.362  64.217  1.00  0.00     0.000 HD 
HETATM    4  H1  UNK A   0      -5.562  18.889  65.520  1.00  0.00     0.000 HD 
HETATM    5  N   UNK A   0      -8.289  17.179  65.750  1.00  0.00    -0.466 NA 
HETATM    6  C   UNK A   0      -9.100  16.677  66.680  1.00  0.00    -0.250 A  
HETATM    7  N   UNK A   0     -10.244  16.116  66.274  1.00  0.00    -0.304 NA 
HETATM    8  C   UNK A   0     -11.121  15.697  67.217  1.00  0.00    -0.238 A  
HETATM    9  C   UNK A   0     -10.874  15.808  68.577  1.00  0.00    -0.290 A  
HETATM   10  H2  UNK A   0      -7.172  16.584  70.086  1.00  0.00     0.000 HD 
HETATM   11  N   UNK A   0      -9.701  16.319  69.010  1.00  0.00    -0.242 NA 
HETATM   12  H1  UNK A   0      -6.332  17.997  69.900  1.00  0.00     0.000 HD 
HETATM   13  C   UNK A   0      -8.830  16.760  68.049  1.00  0.00    -0.216 A  
HETATM   14  C   UNK A   0      -7.639  17.410  68.348  1.00  0.00    -0.255 A  
HETATM   15  N   UNK A   0      -7.206  17.520  69.681  1.00  0.00     0.163 NA 
HETATM   16  N   UNK A   0      -6.818  17.935  67.428  1.00  0.00    -0.179 NA 
ENDROOT
BRANCH   9  17
HETATM   17  C   UNK A   0     -11.926  15.494  69.614  1.00  0.00    -0.380 C  
HETATM   18  C   UNK A   0     -11.340  13.016  69.506  1.00  0.00    -0.223 A  
HETATM   19  C   UNK A   0     -12.282  12.612  68.544  1.00  0.00     0.040 A  
HETATM   20  C   UNK A   0     -10.097  12.369  69.546  1.00  0.00     0.883 A  
HETATM   21  C   UNK A   0     -11.607  14.209  70.430  1.00  0.00    -0.236 C  
HETATM   22  C   UNK A   0      -9.756  11.428  68.572  1.00  0.00    -0.199 A  
HETATM   23  C   UNK A   0     -11.944  11.668  67.569  1.00  0.00    -0.044 A  
HETATM   24  C   UNK A   0     -12.713  13.856  71.442  1.00  0.00    -0.445 C  
HETATM   25  C   UNK A   0     -10.658  11.123  67.549  1.00  0.00    -0.258 A  
BRANCH  24  26
HETATM   26  C   UNK A   0     -12.970  14.915  72.435  1.00  0.00    -0.439 C  
HETATM   27  C   UNK A   0     -13.248  15.753  73.249  1.00  0.00    -0.687 C  
ENDBRANCH  24  26
BRANCH  25  28
HETATM   28  C   UNK A   0     -10.258  10.248  66.419  1.00  0.00    -0.225 C  
HETATM   29  O   UNK A   0     -10.550   9.059  66.405  1.00  0.00    -0.148 OA 
ATOM     30  N   GLU A   1      -9.589  10.880  65.373  1.00  0.00    -0.212 N  
ATOM     31  H   GLU A   1      -9.294  11.853  65.464  1.00  0.00     0.000 HD 
BRANCH  30  32
ATOM     32  CA  GLU A   1      -9.310  10.128  64.132  1.00  0.00    -0.287 C  
ATOM     33  O   GLU A   1      -7.042  10.570  64.845  1.00  0.00    -0.088 OA 
ATOM     34  C   GLU A   1      -7.817   9.747  64.093  1.00  0.00    -0.134 C  
ATOM     35  OXT GLU A   1      -7.340   8.900  63.352  1.00  0.00    -0.096 OA 
BRANCH  32  36
ATOM     36  CB  GLU A   1      -9.665  10.979  62.901  1.00  0.00    -0.353 C  
BRANCH  36  37
ATOM     37  CG  GLU A   1     -10.161  12.385  63.259  1.00  0.00    -0.097 C  
ATOM     38  CD  GLU A   1     -11.665  12.468  63.355  1.00  0.00    -0.488 C  
ATOM     39  OE2 GLU A   1     -12.435  11.541  63.167  1.00  0.00    -0.326 OA 
ATOM     40  OE1 GLU A   1     -12.088  13.708  63.691  1.00  0.00    -0.508 OA 
ENDBRANCH  36  37
ENDBRANCH  32  36
ENDBRANCH  30  32
ENDBRANCH  25  28
ENDBRANCH   9  17
TORSDOF 6
ENDMDL
MODEL       42
REMARK 921   NORMALIZED FREE ENERGY PREDICTED BY IDOCK:   -5.92 KCAL/MOL
REMARK 922        TOTAL FREE ENERGY PREDICTED BY IDOCK:   -9.41 KCAL/MOL
REMARK 923 INTER-LIGAND FREE ENERGY PREDICTED BY IDOCK:   -8.82 KCAL/MOL
REMARK 924 INTRA-LIGAND FREE ENERGY PREDICTED BY IDOCK:   -0.59 KCAL/MOL
REMARK 927      BINDING AFFINITY PREDICTED BY RF-SCORE:    0.00 PKD
ROOT
HETATM    1  N   UNK A   0      -7.916  20.448  65.491  1.00  0.00    -0.438 NA 
HETATM    2  C   UNK A   0      -8.520  19.578  66.367  1.00  0.00    -0.352 A  
HETATM    3  H2  UNK A   0      -7.826  20.221  64.501  1.00  0.00     0.000 HD 
HETATM    4  H1  UNK A   0      -7.561  21.328  65.865  1.00  0.00     0.000 HD 
HETATM    5  N   UNK A   0      -8.983  18.431  65.880  1.00  0.00    -0.442 NA 
HETATM    6  C   UNK A   0      -9.644  17.626  66.711  1.00  0.00    -0.294 A  
HETATM    7  N   UNK A   0     -10.183  16.512  66.204  1.00  0.00    -0.332 NA 
HETATM    8  C   UNK A   0     -10.943  15.742  67.018  1.00  0.00    -0.221 A  
HETATM    9  C   UNK A   0     -11.168  16.049  68.352  1.00  0.00    -0.364 A  
HETATM   10  H2  UNK A   0      -8.947  18.794  70.382  1.00  0.00     0.000 HD 
HETATM   11  N   UNK A   0     -10.587  17.139  68.899  1.00  0.00    -0.336 NA 
HETATM   12  H1  UNK A   0      -8.928  20.422  70.094  1.00  0.00     0.000 HD 
HETATM   13  C   UNK A   0      -9.838  17.923  68.063  1.00  0.00    -0.320 A  
HETATM   14  C   UNK A   0      -9.276  19.130  68.459  1.00  0.00    -0.376 A  
HETATM   15  N   UNK A   0      -9.341  19.536  69.804  1.00  0.00     0.257 NA 
HETATM   16  N   UNK A   0      -8.622  19.961  67.636  1.00  0.00    -0.324 NA 
ENDROOT
BRANCH   9  17
HETATM   17  C   UNK A   0     -12.150  15.279  69.201  1.00  0.00    -0.266 C  
HETATM   18  C   UNK A   0     -11.040  13.080  68.547  1.00  0.00    -0.298 A  
HETATM   19  C   UNK A   0     -11.849  12.746  67.447  1.00  0.00    -0.404 A  
HETATM   20  C   UNK A   0      -9.687  12.711  68.524  1.00  0.00    -0.131 A  
HETATM   21  C   UNK A   0     -11.579  13.923  69.706  1.00  0.00    -0.335 C  
HETATM   22  C   UNK A   0      -9.129  12.133  67.382  1.00  0.00    -0.181 A  
HETATM   23  C   UNK A   0     -11.294  12.166  66.303  1.00  0.00    -0.411 A  
HETATM   24  C   UNK A   0     -12.606  13.110  70.517  1.00  0.00    -0.237 C  
HETATM   25  C   UNK A   0      -9.919  11.917  66.250  1.00  0.00    -0.245 A  
BRANCH  24  26
HETATM   26  C   UNK A   0     -13.108  13.811  71.713  1.00  0.00    -0.463 C  
HETATM   27  C   UNK A   0     -13.514  14.446  72.649  1.00  0.00    -0.605 C  
ENDBRANCH  24  26
BRANCH  25  28
HETATM   28  C   UNK A   0      -9.314  11.454  64.977  1.00  0.00    -0.138 C  
HETATM   29  O   UNK A   0      -9.747  11.833  63.896  1.00  0.00    -0.254 OA 
ATOM     30  N   GLU A   1      -8.206  10.618  65.103  1.00  0.00    -0.289 N  
ATOM     31  H   GLU A   1      -7.931  10.263  66.019  1.00  0.00     0.000 HD 
BRANCH  30  32
ATOM     32  CA  GLU A   1      -7.434  10.253  63.897  1.00  0.00    -0.077 C  
ATOM     33  O   GLU A   1      -8.358   8.087  64.448  1.00  0.00    -0.122 OA 
ATOM     34  C   GLU A   1      -7.844   8.838  63.441  1.00  0.00    -0.148 C  
ATOM     35  OXT GLU A   1      -7.597   8.371  62.339  1.00  0.00    -0.107 OA 
BRANCH  32  36
ATOM     36  CB  GLU A   1      -5.926  10.289  64.198  1.00  0.00    -0.132 C  
BRANCH  36  37
ATOM     37  CG  GLU A   1      -5.574   9.771  65.598  1.00  0.00    -0.055 C  
ATOM     38  CD  GLU A   1      -5.476  10.875  66.622  1.00  0.00    -0.082 C  
ATOM     39  OE2 GLU A   1      -5.643  12.061  66.398  1.00  0.00    -0.260 OA 
ATOM     40  OE1 GLU A   1      -5.186  10.403  67.856  1.00  0.00    -0.038 OA 
ENDBRANCH  36  37
ENDBRANCH  32  36
ENDBRANCH  30  32
ENDBRANCH  25  28
ENDBRANCH   9  17
TORSDOF 6
ENDMDL
MODEL       43
REMARK 921   NORMALIZED FREE ENERGY PREDICTED BY IDOCK:   -5.91 KCAL/MOL
REMARK 922        TOTAL FREE ENERGY PREDICTED BY IDOCK:   -9.40 KCAL/MOL
REMARK 923 INTER-LIGAND FREE ENERGY PREDICTED BY IDOCK:   -7.97 KCAL/MOL
REMARK 924 INTRA-LIGAND FREE ENERGY PREDICTED BY IDOCK:   -1.43 KCAL/MOL
REMARK 927      BINDING AFFINITY PREDICTED BY RF-SCORE:    0.00 PKD
ROOT
HETATM    1  N   UNK A   0     -10.964   5.352  74.132  1.00  0.00    -0.417 NA 
HETATM    2  C   UNK A   0     -10.395   5.393  72.882  1.00  0.00    -0.195 A  
HETATM    3  H2  UNK A   0     -11.890   5.742  74.302  1.00  0.00     0.000 HD 
HETATM    4  H1  UNK A   0     -10.428   4.919  74.884  1.00  0.00     0.000 HD 
HETATM    5  N   UNK A   0     -11.093   5.957  71.902  1.00  0.00    -0.266 NA 
HETATM    6  C   UNK A   0     -10.580   5.920  70.673  1.00  0.00    -0.268 A  
HETATM    7  N   UNK A   0     -11.318   6.411  69.672  1.00  0.00    -0.413 NA 
HETATM    8  C   UNK A   0     -10.849   6.283  68.409  1.00  0.00    -0.319 A  
HETATM    9  C   UNK A   0      -9.633   5.686  68.114  1.00  0.00    -0.114 A  
HETATM   10  H2  UNK A   0      -6.794   4.961  70.942  1.00  0.00     0.000 HD 
HETATM   11  N   UNK A   0      -8.845   5.233  69.113  1.00  0.00    -0.099 NA 
HETATM   12  H1  UNK A   0      -6.928   3.884  72.190  1.00  0.00     0.000 HD 
HETATM   13  C   UNK A   0      -9.337   5.347  70.385  1.00  0.00    -0.159 A  
HETATM   14  C   UNK A   0      -8.689   4.825  71.498  1.00  0.00    -0.121 A  
HETATM   15  N   UNK A   0      -7.404   4.267  71.373  1.00  0.00    -0.050 NA 
HETATM   16  N   UNK A   0      -9.196   4.838  72.738  1.00  0.00    -0.128 NA 
ENDROOT
BRANCH   9  17
HETATM   17  C   UNK A   0      -9.200   5.399  66.696  1.00  0.00    -0.132 C  
HETATM   18  C   UNK A   0      -8.107   7.695  66.530  1.00  0.00    -0.119 A  
HETATM   19  C   UNK A   0      -9.183   8.409  65.973  1.00  0.00    -0.247 A  
HETATM   20  C   UNK A   0      -7.241   8.360  67.410  1.00  0.00    -0.088 A  
HETATM   21  C   UNK A   0      -7.930   6.194  66.278  1.00  0.00    -0.106 C  
HETATM   22  C   UNK A   0      -7.513   9.667  67.819  1.00  0.00    -0.087 A  
HETATM   23  C   UNK A   0      -9.456   9.718  66.380  1.00  0.00    -0.237 A  
HETATM   24  C   UNK A   0      -7.530   5.949  64.811  1.00  0.00    -0.078 C  
HETATM   25  C   UNK A   0      -8.653  10.324  67.350  1.00  0.00    -0.125 A  
BRANCH  24  26
HETATM   26  C   UNK A   0      -7.245   4.536  64.502  1.00  0.00    -0.066 C  
HETATM   27  C   UNK A   0      -7.037   3.367  64.317  1.00  0.00    -0.057 C  
ENDBRANCH  24  26
BRANCH  25  28
HETATM   28  C   UNK A   0      -9.045  11.649  67.892  1.00  0.00    -0.171 C  
HETATM   29  O   UNK A   0      -8.201  12.456  68.261  1.00  0.00    -0.162 OA 
ATOM     30  N   GLU A   1     -10.412  11.919  67.898  1.00  0.00    -0.199 N  
ATOM     31  H   GLU A   1     -11.082  11.187  67.659  1.00  0.00     0.000 HD 
BRANCH  30  32
ATOM     32  CA  GLU A   1     -10.880  13.275  68.253  1.00  0.00    -0.256 C  
ATOM     33  O   GLU A   1     -12.175  11.982  69.833  1.00  0.00    -0.254 OA 
ATOM     34  C   GLU A   1     -11.659  13.211  69.582  1.00  0.00    -0.253 C  
ATOM     35  OXT GLU A   1     -11.928  14.185  70.270  1.00  0.00    -0.295 OA 
BRANCH  32  36
ATOM     36  CB  GLU A   1     -11.785  13.834  67.142  1.00  0.00    -0.417 C  
BRANCH  36  37
ATOM     37  CG  GLU A   1     -11.933  12.887  65.945  1.00  0.00    -0.504 C  
ATOM     38  CD  GLU A   1     -12.468  13.578  64.715  1.00  0.00    -0.355 C  
ATOM     39  OE2 GLU A   1     -12.770  14.757  64.644  1.00  0.00    -0.523 OA 
ATOM     40  OE1 GLU A   1     -12.573  12.737  63.661  1.00  0.00    -0.685 OA 
ENDBRANCH  36  37
ENDBRANCH  32  36
ENDBRANCH  30  32
ENDBRANCH  25  28
ENDBRANCH   9  17
TORSDOF 6
ENDMDL
MODEL       44
REMARK 921   NORMALIZED FREE ENERGY PREDICTED BY IDOCK:   -5.89 KCAL/MOL
REMARK 922        TOTAL FREE ENERGY PREDICTED BY IDOCK:   -9.37 KCAL/MOL
REMARK 923 INTER-LIGAND FREE ENERGY PREDICTED BY IDOCK:   -7.83 KCAL/MOL
REMARK 924 INTRA-LIGAND FREE ENERGY PREDICTED BY IDOCK:   -1.54 KCAL/MOL
REMARK 927      BINDING AFFINITY PREDICTED BY RF-SCORE:    0.00 PKD
ROOT
HETATM    1  N   UNK A   0      -5.262  11.340  71.378  1.00  0.00    -0.279 NA 
HETATM    2  C   UNK A   0      -5.770  12.174  70.413  1.00  0.00    -0.169 A  
HETATM    3  H2  UNK A   0      -4.798  11.713  72.206  1.00  0.00     0.000 HD 
HETATM    4  H1  UNK A   0      -5.364  10.334  71.239  1.00  0.00     0.000 HD 
HETATM    5  N   UNK A   0      -5.638  13.485  70.594  1.00  0.00    -0.154 NA 
HETATM    6  C   UNK A   0      -6.205  14.295  69.702  1.00  0.00    -0.126 A  
HETATM    7  N   UNK A   0      -6.146  15.612  69.928  1.00  0.00    -0.158 NA 
HETATM    8  C   UNK A   0      -6.809  16.436  69.082  1.00  0.00    -0.210 A  
HETATM    9  C   UNK A   0      -7.525  15.975  67.988  1.00  0.00    -0.126 A  
HETATM   10  H2  UNK A   0      -7.122  12.195  66.528  1.00  0.00     0.000 HD 
HETATM   11  N   UNK A   0      -7.552  14.654  67.709  1.00  0.00    -0.143 NA 
HETATM   12  H1  UNK A   0      -7.574  10.807  67.306  1.00  0.00     0.000 HD 
HETATM   13  C   UNK A   0      -6.898  13.826  68.581  1.00  0.00    -0.102 A  
HETATM   14  C   UNK A   0      -6.934  12.441  68.483  1.00  0.00    -0.092 A  
HETATM   15  N   UNK A   0      -7.547  11.824  67.378  1.00  0.00    -0.134 NA 
HETATM   16  N   UNK A   0      -6.384  11.609  69.378  1.00  0.00    -0.094 NA 
ENDROOT
BRANCH   9  17
HETATM   17  C   UNK A   0      -8.396  16.885  67.155  1.00  0.00    -0.217 C  
HETATM   18  C   UNK A   0     -10.479  15.608  67.879  1.00  0.00    -0.267 A  
HETATM   19  C   UNK A   0     -10.554  14.693  66.815  1.00  0.00    -0.288 A  
HETATM   20  C   UNK A   0     -10.903  15.198  69.151  1.00  0.00    -0.251 A  
HETATM   21  C   UNK A   0      -9.850  16.993  67.697  1.00  0.00    -0.257 C  
HETATM   22  C   UNK A   0     -11.276  13.872  69.381  1.00  0.00    -0.273 A  
HETATM   23  C   UNK A   0     -10.929  13.366  67.041  1.00  0.00    -0.298 A  
HETATM   24  C   UNK A   0     -10.753  17.870  66.808  1.00  0.00    -0.157 C  
HETATM   25  C   UNK A   0     -11.231  12.943  68.339  1.00  0.00    -0.305 A  
BRANCH  24  26
HETATM   26  C   UNK A   0     -10.271  19.255  66.657  1.00  0.00    -0.512 C  
HETATM   27  C   UNK A   0      -9.899  20.381  66.462  1.00  0.00    -0.452 C  
ENDBRANCH  24  26
BRANCH  25  28
HETATM   28  C   UNK A   0     -11.469  11.500  68.595  1.00  0.00    -0.293 C  
HETATM   29  O   UNK A   0     -12.599  11.072  68.797  1.00  0.00    -0.350 OA 
ATOM     30  N   GLU A   1     -10.344  10.682  68.534  1.00  0.00    -0.174 N  
ATOM     31  H   GLU A   1      -9.413  11.092  68.445  1.00  0.00     0.000 HD 
BRANCH  30  32
ATOM     32  CA  GLU A   1     -10.511   9.215  68.600  1.00  0.00    -0.207 C  
ATOM     33  O   GLU A   1      -9.277   9.566  70.650  1.00  0.00    -0.245 OA 
ATOM     34  C   GLU A   1     -10.126   8.723  70.010  1.00  0.00    -0.190 C  
ATOM     35  OXT GLU A   1     -10.415   7.624  70.459  1.00  0.00    -0.214 OA 
BRANCH  32  36
ATOM     36  CB  GLU A   1      -9.624   8.529  67.546  1.00  0.00    -0.194 C  
BRANCH  36  37
ATOM     37  CG  GLU A   1     -10.369   7.473  66.721  1.00  0.00    -0.332 C  
ATOM     38  CD  GLU A   1      -9.912   6.067  67.021  1.00  0.00    -0.163 C  
ATOM     39  OE2 GLU A   1      -9.042   5.764  67.819  1.00  0.00    -0.109 OA 
ATOM     40  OE1 GLU A   1     -10.592   5.145  66.302  1.00  0.00    -0.292 OA 
ENDBRANCH  36  37
ENDBRANCH  32  36
ENDBRANCH  30  32
ENDBRANCH  25  28
ENDBRANCH   9  17
TORSDOF 6
ENDMDL
MODEL       45
REMARK 921   NORMALIZED FREE ENERGY PREDICTED BY IDOCK:   -5.88 KCAL/MOL
REMARK 922        TOTAL FREE ENERGY PREDICTED BY IDOCK:   -9.36 KCAL/MOL
REMARK 923 INTER-LIGAND FREE ENERGY PREDICTED BY IDOCK:   -7.60 KCAL/MOL
REMARK 924 INTRA-LIGAND FREE ENERGY PREDICTED BY IDOCK:   -1.76 KCAL/MOL
REMARK 927      BINDING AFFINITY PREDICTED BY RF-SCORE:    0.00 PKD
ROOT
HETATM    1  N   UNK A   0      -6.182  10.469  64.845  1.00  0.00    -0.305 NA 
HETATM    2  C   UNK A   0      -7.057  10.620  65.893  1.00  0.00    -0.115 A  
HETATM    3  H2  UNK A   0      -6.340   9.767  64.123  1.00  0.00     0.000 HD 
HETATM    4  H1  UNK A   0      -5.369  11.084  64.813  1.00  0.00     0.000 HD 
HETATM    5  N   UNK A   0      -8.117   9.819  65.935  1.00  0.00    -0.112 NA 
HETATM    6  C   UNK A   0      -9.010  10.021  66.902  1.00  0.00    -0.135 A  
HETATM    7  N   UNK A   0     -10.119   9.272  66.896  1.00  0.00    -0.235 NA 
HETATM    8  C   UNK A   0     -11.077   9.542  67.814  1.00  0.00     0.034 A  
HETATM    9  C   UNK A   0     -10.949  10.542  68.766  1.00  0.00    -0.251 A  
HETATM   10  H2  UNK A   0      -7.387  12.319  69.625  1.00  0.00     0.000 HD 
HETATM   11  N   UNK A   0      -9.815  11.272  68.827  1.00  0.00    -0.204 NA 
HETATM   12  H1  UNK A   0      -6.524  13.292  68.604  1.00  0.00     0.000 HD 
HETATM   13  C   UNK A   0      -8.860  11.008  67.881  1.00  0.00    -0.134 A  
HETATM   14  C   UNK A   0      -7.695  11.753  67.753  1.00  0.00    -0.133 A  
HETATM   15  N   UNK A   0      -7.379  12.745  68.698  1.00  0.00    -0.110 NA 
HETATM   16  N   UNK A   0      -6.793  11.577  66.777  1.00  0.00    -0.135 NA 
ENDROOT
BRANCH   9  17
HETATM   17  C   UNK A   0     -12.090  10.942  69.670  1.00  0.00    -0.400 C  
HETATM   18  C   UNK A   0     -11.471   9.100  71.320  1.00  0.00    -0.405 A  
HETATM   19  C   UNK A   0     -12.315   8.084  70.838  1.00  0.00    -0.073 A  
HETATM   20  C   UNK A   0     -10.231   8.743  71.867  1.00  0.00    -0.415 A  
HETATM   21  C   UNK A   0     -11.835  10.580  71.162  1.00  0.00    -0.391 C  
HETATM   22  C   UNK A   0      -9.792   7.418  71.821  1.00  0.00    -0.187 A  
HETATM   23  C   UNK A   0     -11.879   6.757  70.793  1.00  0.00    -0.446 A  
HETATM   24  C   UNK A   0     -13.027  10.931  72.072  1.00  0.00    -0.418 C  
HETATM   25  C   UNK A   0     -10.590   6.436  71.230  1.00  0.00    -0.275 A  
BRANCH  24  26
HETATM   26  C   UNK A   0     -13.386  12.361  72.056  1.00  0.00    -0.511 C  
HETATM   27  C   UNK A   0     -13.682  13.524  72.116  1.00  0.00    -0.654 C  
ENDBRANCH  24  26
BRANCH  25  28
HETATM   28  C   UNK A   0     -10.078   5.058  71.028  1.00  0.00    -0.227 C  
HETATM   29  O   UNK A   0     -10.216   4.200  71.891  1.00  0.00    -0.175 OA 
ATOM     30  N   GLU A   1      -9.492   4.806  69.790  1.00  0.00    -0.145 N  
ATOM     31  H   GLU A   1      -9.325   5.570  69.134  1.00  0.00     0.000 HD 
BRANCH  30  32
ATOM     32  CA  GLU A   1      -9.115   3.422  69.435  1.00  0.00    -0.133 C  
ATOM     33  O   GLU A   1      -6.910   4.381  69.686  1.00  0.00    -0.043 OA 
ATOM     34  C   GLU A   1      -7.612   3.219  69.707  1.00  0.00    -0.044 C  
ATOM     35  OXT GLU A   1      -7.065   2.128  69.779  1.00  0.00    -0.033 OA 
BRANCH  32  36
ATOM     36  CB  GLU A   1      -9.421   3.149  67.952  1.00  0.00    -0.215 C  
BRANCH  36  37
ATOM     37  CG  GLU A   1      -9.708   4.423  67.148  1.00  0.00    -0.230 C  
ATOM     38  CD  GLU A   1      -8.509   4.904  66.367  1.00  0.00    -0.111 C  
ATOM     39  OE2 GLU A   1      -7.413   4.370  66.359  1.00  0.00    -0.079 OA 
ATOM     40  OE1 GLU A   1      -8.782   6.015  65.646  1.00  0.00    -0.153 OA 
ENDBRANCH  36  37
ENDBRANCH  32  36
ENDBRANCH  30  32
ENDBRANCH  25  28
ENDBRANCH   9  17
TORSDOF 6
ENDMDL
MODEL       46
REMARK 921   NORMALIZED FREE ENERGY PREDICTED BY IDOCK:   -5.88 KCAL/MOL
REMARK 922        TOTAL FREE ENERGY PREDICTED BY IDOCK:   -9.36 KCAL/MOL
REMARK 923 INTER-LIGAND FREE ENERGY PREDICTED BY IDOCK:   -8.72 KCAL/MOL
REMARK 924 INTRA-LIGAND FREE ENERGY PREDICTED BY IDOCK:   -0.64 KCAL/MOL
REMARK 927      BINDING AFFINITY PREDICTED BY RF-SCORE:    0.00 PKD
ROOT
HETATM    1  N   UNK A   0      -9.357   9.347  62.369  1.00  0.00    -0.580 NA 
HETATM    2  C   UNK A   0      -9.619  10.379  63.238  1.00  0.00    -0.308 A  
HETATM    3  H2  UNK A   0      -9.936   9.194  61.544  1.00  0.00     0.000 HD 
HETATM    4  H1  UNK A   0      -8.564   8.740  62.578  1.00  0.00     0.000 HD 
HETATM    5  N   UNK A   0     -10.652  11.170  62.967  1.00  0.00    -0.119 NA 
HETATM    6  C   UNK A   0     -10.855  12.220  63.761  1.00  0.00    -0.442 A  
HETATM    7  N   UNK A   0     -11.841  13.065  63.440  1.00  0.00    -0.524 NA 
HETATM    8  C   UNK A   0     -11.987  14.188  64.182  1.00  0.00    -0.393 A  
HETATM    9  C   UNK A   0     -11.174  14.487  65.264  1.00  0.00    -0.352 A  
HETATM   10  H2  UNK A   0      -8.751  11.729  67.026  1.00  0.00     0.000 HD 
HETATM   11  N   UNK A   0     -10.207  13.622  65.640  1.00  0.00    -0.299 NA 
HETATM   12  H1  UNK A   0      -7.427  11.023  66.329  1.00  0.00     0.000 HD 
HETATM   13  C   UNK A   0     -10.053  12.499  64.872  1.00  0.00    -0.226 A  
HETATM   14  C   UNK A   0      -9.031  11.580  65.071  1.00  0.00     0.147 A  
HETATM   15  N   UNK A   0      -8.178  11.698  66.183  1.00  0.00     0.003 NA 
HETATM   16  N   UNK A   0      -8.801  10.526  64.275  1.00  0.00    -0.193 NA 
ENDROOT
BRANCH   9  17
HETATM   17  C   UNK A   0     -11.237  15.818  65.975  1.00  0.00     0.018 C  
HETATM   18  C   UNK A   0     -10.703  14.693  68.198  1.00  0.00    -0.242 A  
HETATM   19  C   UNK A   0     -12.016  14.477  68.653  1.00  0.00    -0.320 A  
HETATM   20  C   UNK A   0      -9.711  13.760  68.535  1.00  0.00    -0.193 A  
HETATM   21  C   UNK A   0     -10.365  15.858  67.263  1.00  0.00    -0.293 C  
HETATM   22  C   UNK A   0     -10.045  12.581  69.204  1.00  0.00     0.293 A  
HETATM   23  C   UNK A   0     -12.352  13.298  69.325  1.00  0.00    -0.054 A  
HETATM   24  C   UNK A   0     -10.483  17.194  68.020  1.00  0.00    -0.369 C  
HETATM   25  C   UNK A   0     -11.375  12.323  69.545  1.00  0.00    -0.258 A  
BRANCH  24  26
HETATM   26  C   UNK A   0     -10.083  18.367  67.221  1.00  0.00    -0.369 C  
HETATM   27  C   UNK A   0      -9.825  19.324  66.543  1.00  0.00    -0.444 C  
ENDBRANCH  24  26
BRANCH  25  28
HETATM   28  C   UNK A   0     -11.774  11.011  70.112  1.00  0.00    -0.356 C  
HETATM   29  O   UNK A   0     -12.951  10.740  70.312  1.00  0.00    -0.257 OA 
ATOM     30  N   GLU A   1     -10.736  10.110  70.340  1.00  0.00    -0.364 N  
ATOM     31  H   GLU A   1      -9.765  10.407  70.236  1.00  0.00     0.000 HD 
BRANCH  30  32
ATOM     32  CA  GLU A   1     -11.055   8.722  70.734  1.00  0.00    -0.260 C  
ATOM     33  O   GLU A   1      -8.968   9.001  71.922  1.00  0.00    -0.364 OA 
ATOM     34  C   GLU A   1     -10.127   8.295  71.888  1.00  0.00    -0.245 C  
ATOM     35  OXT GLU A   1     -10.321   7.326  72.607  1.00  0.00    -0.196 OA 
BRANCH  32  36
ATOM     36  CB  GLU A   1     -10.873   7.772  69.537  1.00  0.00    -0.157 C  
BRANCH  36  37
ATOM     37  CG  GLU A   1      -9.890   8.302  68.486  1.00  0.00    -0.188 C  
ATOM     38  CD  GLU A   1     -10.124   7.714  67.117  1.00  0.00    -0.253 C  
ATOM     39  OE2 GLU A   1     -10.986   6.898  66.838  1.00  0.00    -0.377 OA 
ATOM     40  OE1 GLU A   1      -9.264   8.206  66.196  1.00  0.00    -0.183 OA 
ENDBRANCH  36  37
ENDBRANCH  32  36
ENDBRANCH  30  32
ENDBRANCH  25  28
ENDBRANCH   9  17
TORSDOF 6
ENDMDL
MODEL       47
REMARK 921   NORMALIZED FREE ENERGY PREDICTED BY IDOCK:   -5.87 KCAL/MOL
REMARK 922        TOTAL FREE ENERGY PREDICTED BY IDOCK:   -9.35 KCAL/MOL
REMARK 923 INTER-LIGAND FREE ENERGY PREDICTED BY IDOCK:   -7.94 KCAL/MOL
REMARK 924 INTRA-LIGAND FREE ENERGY PREDICTED BY IDOCK:   -1.40 KCAL/MOL
REMARK 927      BINDING AFFINITY PREDICTED BY RF-SCORE:    0.00 PKD
ROOT
HETATM    1  N   UNK A   0     -12.993  14.153  71.406  1.00  0.00    -0.334 NA 
HETATM    2  C   UNK A   0     -12.760  12.848  71.043  1.00  0.00    -0.251 A  
HETATM    3  H2  UNK A   0     -13.321  14.389  72.342  1.00  0.00     0.000 HD 
HETATM    4  H1  UNK A   0     -12.825  14.877  70.707  1.00  0.00     0.000 HD 
HETATM    5  N   UNK A   0     -12.977  11.904  71.954  1.00  0.00    -0.384 NA 
HETATM    6  C   UNK A   0     -12.671  10.649  71.631  1.00  0.00    -0.426 A  
HETATM    7  N   UNK A   0     -12.809   9.709  72.574  1.00  0.00    -0.230 NA 
HETATM    8  C   UNK A   0     -12.402   8.450  72.286  1.00  0.00    -0.376 A  
HETATM    9  C   UNK A   0     -11.870   8.093  71.057  1.00  0.00    -0.260 A  
HETATM   10  H2  UNK A   0     -12.189  10.449  67.751  1.00  0.00     0.000 HD 
HETATM   11  N   UNK A   0     -11.773   9.012  70.072  1.00  0.00     0.080 NA 
HETATM   12  H1  UNK A   0     -11.468  11.923  67.544  1.00  0.00     0.000 HD 
HETATM   13  C   UNK A   0     -12.167  10.287  70.378  1.00  0.00    -0.261 A  
HETATM   14  C   UNK A   0     -12.020  11.356  69.503  1.00  0.00    -0.341 A  
HETATM   15  N   UNK A   0     -11.576  11.138  68.186  1.00  0.00    -0.477 NA 
HETATM   16  N   UNK A   0     -12.307  12.627  69.813  1.00  0.00    -0.102 NA 
ENDROOT
BRANCH   9  17
HETATM   17  C   UNK A   0     -11.265   6.732  70.807  1.00  0.00    -0.352 C  
HETATM   18  C   UNK A   0      -9.033   7.800  70.197  1.00  0.00    -0.146 A  
HETATM   19  C   UNK A   0      -9.208   7.890  68.805  1.00  0.00    -0.143 A  
HETATM   20  C   UNK A   0      -8.287   8.793  70.848  1.00  0.00    -0.196 A  
HETATM   21  C   UNK A   0      -9.724   6.707  71.018  1.00  0.00    -0.185 C  
HETATM   22  C   UNK A   0      -7.833   9.912  70.147  1.00  0.00    -0.186 A  
HETATM   23  C   UNK A   0      -8.752   9.008  68.101  1.00  0.00    -0.130 A  
HETATM   24  C   UNK A   0      -9.102   5.334  70.700  1.00  0.00    -0.175 C  
HETATM   25  C   UNK A   0      -8.118  10.048  68.786  1.00  0.00    -0.106 A  
BRANCH  24  26
HETATM   26  C   UNK A   0      -9.643   4.233  71.517  1.00  0.00    -0.234 C  
HETATM   27  C   UNK A   0     -10.030   3.349  72.233  1.00  0.00    -0.234 C  
ENDBRANCH  24  26
BRANCH  25  28
HETATM   28  C   UNK A   0      -7.784  11.298  68.060  1.00  0.00    -0.108 C  
HETATM   29  O   UNK A   0      -7.493  11.281  66.871  1.00  0.00    -0.131 OA 
ATOM     30  N   GLU A   1      -7.879  12.472  68.804  1.00  0.00    -0.308 N  
ATOM     31  H   GLU A   1      -8.045  12.433  69.810  1.00  0.00     0.000 HD 
BRANCH  30  32
ATOM     32  CA  GLU A   1      -7.739  13.775  68.121  1.00  0.00    -0.140 C  
ATOM     33  O   GLU A   1      -5.523  13.583  69.068  1.00  0.00    -0.072 OA 
ATOM     34  C   GLU A   1      -6.249  14.172  68.085  1.00  0.00    -0.133 C  
ATOM     35  OXT GLU A   1      -5.784  15.039  67.360  1.00  0.00    -0.341 OA 
BRANCH  32  36
ATOM     36  CB  GLU A   1      -8.550  14.855  68.858  1.00  0.00    -0.177 C  
BRANCH  36  37
ATOM     37  CG  GLU A   1      -9.949  15.072  68.267  1.00  0.00    -0.225 C  
ATOM     38  CD  GLU A   1     -10.920  15.655  69.263  1.00  0.00    -0.267 C  
ATOM     39  OE2 GLU A   1     -10.661  15.930  70.422  1.00  0.00    -0.296 OA 
ATOM     40  OE1 GLU A   1     -12.143  15.861  68.724  1.00  0.00    -0.297 OA 
ENDBRANCH  36  37
ENDBRANCH  32  36
ENDBRANCH  30  32
ENDBRANCH  25  28
ENDBRANCH   9  17
TORSDOF 6
ENDMDL
MODEL       48
REMARK 921   NORMALIZED FREE ENERGY PREDICTED BY IDOCK:   -5.87 KCAL/MOL
REMARK 922        TOTAL FREE ENERGY PREDICTED BY IDOCK:   -9.34 KCAL/MOL
REMARK 923 INTER-LIGAND FREE ENERGY PREDICTED BY IDOCK:   -7.83 KCAL/MOL
REMARK 924 INTRA-LIGAND FREE ENERGY PREDICTED BY IDOCK:   -1.51 KCAL/MOL
REMARK 927      BINDING AFFINITY PREDICTED BY RF-SCORE:    0.00 PKD
ROOT
HETATM    1  N   UNK A   0      -5.568  10.454  62.335  1.00  0.00    -0.112 NA 
HETATM    2  C   UNK A   0      -5.932  10.149  63.624  1.00  0.00    -0.139 A  
HETATM    3  H2  UNK A   0      -5.956   9.943  61.543  1.00  0.00     0.000 HD 
HETATM    4  H1  UNK A   0      -4.897  11.210  62.197  1.00  0.00     0.000 HD 
HETATM    5  N   UNK A   0      -6.808   9.165  63.804  1.00  0.00    -0.089 NA 
HETATM    6  C   UNK A   0      -7.226   8.926  65.046  1.00  0.00    -0.091 A  
HETATM    7  N   UNK A   0      -8.169   7.994  65.219  1.00  0.00    -0.141 NA 
HETATM    8  C   UNK A   0      -8.673   7.818  66.464  1.00  0.00    -0.148 A  
HETATM    9  C   UNK A   0      -8.241   8.546  67.562  1.00  0.00    -0.117 A  
HETATM   10  H2  UNK A   0      -4.807  10.734  67.537  1.00  0.00     0.000 HD 
HETATM   11  N   UNK A   0      -7.250   9.453  67.421  1.00  0.00    -0.086 NA 
HETATM   12  H1  UNK A   0      -4.534  12.091  66.632  1.00  0.00     0.000 HD 
HETATM   13  C   UNK A   0      -6.761   9.640  66.155  1.00  0.00    -0.083 A  
HETATM   14  C   UNK A   0      -5.823  10.615  65.842  1.00  0.00    -0.133 A  
HETATM   15  N   UNK A   0      -5.223  11.375  66.862  1.00  0.00    -0.085 NA 
HETATM   16  N   UNK A   0      -5.402  10.882  64.599  1.00  0.00    -0.160 NA 
ENDROOT
BRANCH   9  17
HETATM   17  C   UNK A   0      -8.926   8.460  68.904  1.00  0.00    -0.146 C  
HETATM   18  C   UNK A   0     -10.480  10.379  68.270  1.00  0.00    -0.221 A  
HETATM   19  C   UNK A   0      -9.737  11.446  68.806  1.00  0.00    -0.155 A  
HETATM   20  C   UNK A   0     -11.232  10.599  67.107  1.00  0.00    -0.177 A  
HETATM   21  C   UNK A   0     -10.396   8.970  68.867  1.00  0.00    -0.232 C  
HETATM   22  C   UNK A   0     -11.149  11.816  66.429  1.00  0.00    -0.360 A  
HETATM   23  C   UNK A   0      -9.653  12.666  68.129  1.00  0.00    -0.219 A  
HETATM   24  C   UNK A   0     -11.071   8.943  70.251  1.00  0.00    -0.251 C  
HETATM   25  C   UNK A   0     -10.312  12.827  66.907  1.00  0.00    -0.245 A  
BRANCH  24  26
HETATM   26  C   UNK A   0     -11.122   7.601  70.860  1.00  0.00    -0.275 C  
HETATM   27  C   UNK A   0     -11.169   6.540  71.422  1.00  0.00    -0.331 C  
ENDBRANCH  24  26
BRANCH  25  28
HETATM   28  C   UNK A   0     -10.087  14.065  66.119  1.00  0.00    -0.309 C  
HETATM   29  O   UNK A   0     -10.536  14.183  64.986  1.00  0.00    -0.378 OA 
ATOM     30  N   GLU A   1      -9.390  15.079  66.772  1.00  0.00    -0.236 N  
ATOM     31  H   GLU A   1      -8.964  14.906  67.684  1.00  0.00     0.000 HD 
BRANCH  30  32
ATOM     32  CA  GLU A   1      -9.273  16.405  66.132  1.00  0.00    -0.330 C  
ATOM     33  O   GLU A   1      -7.164  16.349  67.313  1.00  0.00    -0.140 OA 
ATOM     34  C   GLU A   1      -7.822  16.909  66.267  1.00  0.00    -0.311 C  
ATOM     35  OXT GLU A   1      -7.347  17.826  65.613  1.00  0.00    -0.518 OA 
BRANCH  32  36
ATOM     36  CB  GLU A   1     -10.237  17.404  66.796  1.00  0.00    -0.318 C  
BRANCH  36  37
ATOM     37  CG  GLU A   1     -10.103  17.454  68.322  1.00  0.00    -0.339 C  
ATOM     38  CD  GLU A   1     -11.071  16.534  69.025  1.00  0.00    -0.284 C  
ATOM     39  OE2 GLU A   1     -11.890  15.819  68.473  1.00  0.00    -0.363 OA 
ATOM     40  OE1 GLU A   1     -10.928  16.572  70.369  1.00  0.00    -0.309 OA 
ENDBRANCH  36  37
ENDBRANCH  32  36
ENDBRANCH  30  32
ENDBRANCH  25  28
ENDBRANCH   9  17
TORSDOF 6
ENDMDL
MODEL       49
REMARK 921   NORMALIZED FREE ENERGY PREDICTED BY IDOCK:   -5.83 KCAL/MOL
REMARK 922        TOTAL FREE ENERGY PREDICTED BY IDOCK:   -9.29 KCAL/MOL
REMARK 923 INTER-LIGAND FREE ENERGY PREDICTED BY IDOCK:   -9.58 KCAL/MOL
REMARK 924 INTRA-LIGAND FREE ENERGY PREDICTED BY IDOCK:    0.28 KCAL/MOL
REMARK 927      BINDING AFFINITY PREDICTED BY RF-SCORE:    0.00 PKD
ROOT
HETATM    1  N   UNK A   0     -13.910  11.993  72.697  1.00  0.00    -0.280 NA 
HETATM    2  C   UNK A   0     -13.381  13.147  72.172  1.00  0.00    -0.524 A  
HETATM    3  H2  UNK A   0     -14.074  11.175  72.111  1.00  0.00     0.000 HD 
HETATM    4  H1  UNK A   0     -14.132  11.982  73.692  1.00  0.00     0.000 HD 
HETATM    5  N   UNK A   0     -13.090  13.161  70.875  1.00  0.00    -0.054 NA 
HETATM    6  C   UNK A   0     -12.499  14.248  70.383  1.00  0.00    -0.362 A  
HETATM    7  N   UNK A   0     -12.129  14.231  69.097  1.00  0.00    -0.326 NA 
HETATM    8  C   UNK A   0     -11.435  15.290  68.618  1.00  0.00    -0.337 A  
HETATM    9  C   UNK A   0     -11.111  16.393  69.394  1.00  0.00    -0.300 A  
HETATM   10  H2  UNK A   0     -12.868  17.145  72.990  1.00  0.00     0.000 HD 
HETATM   11  N   UNK A   0     -11.523  16.456  70.679  1.00  0.00    -0.277 NA 
HETATM   12  H1  UNK A   0     -12.694  16.232  74.358  1.00  0.00     0.000 HD 
HETATM   13  C   UNK A   0     -12.205  15.372  71.161  1.00  0.00    -0.371 A  
HETATM   14  C   UNK A   0     -12.590  15.250  72.491  1.00  0.00    -0.359 A  
HETATM   15  N   UNK A   0     -12.411  16.322  73.382  1.00  0.00    -0.520 NA 
HETATM   16  N   UNK A   0     -13.171  14.159  73.008  1.00  0.00    -0.611 NA 
ENDROOT
BRANCH   9  17
HETATM   17  C   UNK A   0     -10.195  17.485  68.897  1.00  0.00    -0.353 C  
HETATM   18  C   UNK A   0      -9.129  15.878  67.230  1.00  0.00    -0.218 A  
HETATM   19  C   UNK A   0      -8.048  15.437  68.014  1.00  0.00    -0.143 A  
HETATM   20  C   UNK A   0      -9.713  14.981  66.324  1.00  0.00    -0.316 A  
HETATM   21  C   UNK A   0      -9.740  17.269  67.425  1.00  0.00    -0.258 C  
HETATM   22  C   UNK A   0      -9.310  13.645  66.289  1.00  0.00    -0.153 A  
HETATM   23  C   UNK A   0      -7.641  14.101  67.980  1.00  0.00    -0.142 A  
HETATM   24  C   UNK A   0      -8.754  18.350  66.942  1.00  0.00    -0.275 C  
HETATM   25  C   UNK A   0      -8.315  13.192  67.159  1.00  0.00    -0.146 A  
BRANCH  24  26
HETATM   26  C   UNK A   0      -9.298  19.719  67.003  1.00  0.00    -0.460 C  
HETATM   27  C   UNK A   0      -9.758  20.823  67.124  1.00  0.00    -0.457 C  
ENDBRANCH  24  26
BRANCH  25  28
HETATM   28  C   UNK A   0      -7.984  11.748  67.250  1.00  0.00    -0.161 C  
HETATM   29  O   UNK A   0      -8.010  11.159  68.323  1.00  0.00    -0.114 OA 
ATOM     30  N   GLU A   1      -7.701  11.116  66.041  1.00  0.00    -0.345 N  
ATOM     31  H   GLU A   1      -7.610  11.662  65.183  1.00  0.00     0.000 HD 
BRANCH  30  32
ATOM     32  CA  GLU A   1      -7.535   9.648  66.013  1.00  0.00    -0.099 C  
ATOM     33  O   GLU A   1      -5.588  10.292  64.732  1.00  0.00    -0.102 OA 
ATOM     34  C   GLU A   1      -6.123   9.307  65.496  1.00  0.00    -0.063 C  
ATOM     35  OXT GLU A   1      -5.590   8.213  65.618  1.00  0.00    -0.038 OA 
BRANCH  32  36
ATOM     36  CB  GLU A   1      -8.595   9.008  65.100  1.00  0.00    -0.204 C  
BRANCH  36  37
ATOM     37  CG  GLU A   1      -9.838   9.885  64.907  1.00  0.00    -0.282 C  
ATOM     38  CD  GLU A   1      -9.739  10.781  63.697  1.00  0.00    -0.327 C  
ATOM     39  OE2 GLU A   1      -8.787  10.837  62.937  1.00  0.00    -0.207 OA 
ATOM     40  OE1 GLU A   1     -10.850  11.534  63.526  1.00  0.00    -0.392 OA 
ENDBRANCH  36  37
ENDBRANCH  32  36
ENDBRANCH  30  32
ENDBRANCH  25  28
ENDBRANCH   9  17
TORSDOF 6
ENDMDL
MODEL       50
REMARK 921   NORMALIZED FREE ENERGY PREDICTED BY IDOCK:   -5.81 KCAL/MOL
REMARK 922        TOTAL FREE ENERGY PREDICTED BY IDOCK:   -9.26 KCAL/MOL
REMARK 923 INTER-LIGAND FREE ENERGY PREDICTED BY IDOCK:   -8.21 KCAL/MOL
REMARK 924 INTRA-LIGAND FREE ENERGY PREDICTED BY IDOCK:   -1.05 KCAL/MOL
REMARK 927      BINDING AFFINITY PREDICTED BY RF-SCORE:    0.00 PKD
ROOT
HETATM    1  N   UNK A   0     -13.510  11.796  72.490  1.00  0.00    -0.451 NA 
HETATM    2  C   UNK A   0     -13.078  12.975  71.931  1.00  0.00    -0.384 A  
HETATM    3  H2  UNK A   0     -13.688  10.974  71.914  1.00  0.00     0.000 HD 
HETATM    4  H1  UNK A   0     -13.646  11.771  73.501  1.00  0.00     0.000 HD 
HETATM    5  N   UNK A   0     -12.900  13.007  70.615  1.00  0.00    -0.084 NA 
HETATM    6  C   UNK A   0     -12.401  14.122  70.083  1.00  0.00    -0.351 A  
HETATM    7  N   UNK A   0     -12.142  14.127  68.771  1.00  0.00    -0.327 NA 
HETATM    8  C   UNK A   0     -11.538  15.218  68.243  1.00  0.00    -0.341 A  
HETATM    9  C   UNK A   0     -11.197  16.330  68.997  1.00  0.00    -0.326 A  
HETATM   10  H2  UNK A   0     -12.672  16.988  72.736  1.00  0.00     0.000 HD 
HETATM   11  N   UNK A   0     -11.500  16.370  70.313  1.00  0.00    -0.222 NA 
HETATM   12  H1  UNK A   0     -12.342  16.078  74.077  1.00  0.00     0.000 HD 
HETATM   13  C   UNK A   0     -12.091  15.254  70.843  1.00  0.00    -0.344 A  
HETATM   14  C   UNK A   0     -12.356  15.109  72.199  1.00  0.00    -0.358 A  
HETATM   15  N   UNK A   0     -12.148  16.184  73.081  1.00  0.00    -0.508 NA 
HETATM   16  N   UNK A   0     -12.843  13.991  72.755  1.00  0.00    -0.353 NA 
ENDROOT
BRANCH   9  17
HETATM   17  C   UNK A   0     -10.376  17.464  68.433  1.00  0.00    -0.379 C  
HETATM   18  C   UNK A   0      -8.529  15.838  67.767  1.00  0.00    -0.162 A  
HETATM   19  C   UNK A   0      -7.728  15.935  68.918  1.00  0.00    -0.194 A  
HETATM   20  C   UNK A   0      -8.593  14.610  67.092  1.00  0.00    -0.244 A  
HETATM   21  C   UNK A   0      -9.406  17.006  67.306  1.00  0.00    -0.238 C  
HETATM   22  C   UNK A   0      -7.972  13.477  67.622  1.00  0.00    -0.177 A  
HETATM   23  C   UNK A   0      -7.103  14.803  69.450  1.00  0.00    -0.170 A  
HETATM   24  C   UNK A   0      -8.523  18.152  66.777  1.00  0.00    -0.273 C  
HETATM   25  C   UNK A   0      -7.278  13.561  68.832  1.00  0.00    -0.070 A  
BRANCH  24  26
HETATM   26  C   UNK A   0      -9.289  19.284  66.222  1.00  0.00    -0.375 C  
HETATM   27  C   UNK A   0      -9.971  20.182  65.807  1.00  0.00    -0.329 C  
ENDBRANCH  24  26
BRANCH  25  28
HETATM   28  C   UNK A   0      -6.747  12.342  69.491  1.00  0.00     0.015 C  
HETATM   29  O   UNK A   0      -5.754  12.391  70.206  1.00  0.00    -0.139 OA 
ATOM     30  N   GLU A   1      -7.481  11.176  69.284  1.00  0.00    -0.259 N  
ATOM     31  H   GLU A   1      -8.252  11.164  68.616  1.00  0.00     0.000 HD 
BRANCH  30  32
ATOM     32  CA  GLU A   1      -7.130   9.956  70.041  1.00  0.00    -0.127 C  
ATOM     33  O   GLU A   1      -6.140   9.397  67.907  1.00  0.00    -0.052 OA 
ATOM     34  C   GLU A   1      -6.096   9.140  69.239  1.00  0.00    -0.041 C  
ATOM     35  OXT GLU A   1      -5.412   8.242  69.708  1.00  0.00    -0.026 OA 
BRANCH  32  36
ATOM     36  CB  GLU A   1      -8.386   9.105  70.293  1.00  0.00    -0.187 C  
BRANCH  36  37
ATOM     37  CG  GLU A   1      -9.602   9.562  69.478  1.00  0.00    -0.198 C  
ATOM     38  CD  GLU A   1      -9.751   8.809  68.179  1.00  0.00    -0.158 C  
ATOM     39  OE2 GLU A   1      -9.002   7.933  67.782  1.00  0.00    -0.129 OA 
ATOM     40  OE1 GLU A   1     -10.839   9.207  67.480  1.00  0.00    -0.242 OA 
ENDBRANCH  36  37
ENDBRANCH  32  36
ENDBRANCH  30  32
ENDBRANCH  25  28
ENDBRANCH   9  17
TORSDOF 6
ENDMDL
MODEL       51
REMARK 921   NORMALIZED FREE ENERGY PREDICTED BY IDOCK:   -5.80 KCAL/MOL
REMARK 922        TOTAL FREE ENERGY PREDICTED BY IDOCK:   -9.24 KCAL/MOL
REMARK 923 INTER-LIGAND FREE ENERGY PREDICTED BY IDOCK:   -7.68 KCAL/MOL
REMARK 924 INTRA-LIGAND FREE ENERGY PREDICTED BY IDOCK:   -1.56 KCAL/MOL
REMARK 927      BINDING AFFINITY PREDICTED BY RF-SCORE:    0.00 PKD
ROOT
HETATM    1  N   UNK A   0     -12.481  11.697  63.151  1.00  0.00    -0.949 NA 
HETATM    2  C   UNK A   0     -11.973  12.314  64.269  1.00  0.00    -0.407 A  
HETATM    3  H2  UNK A   0     -12.305  12.068  62.218  1.00  0.00     0.000 HD 
HETATM    4  H1  UNK A   0     -13.039  10.854  63.287  1.00  0.00     0.000 HD 
HETATM    5  N   UNK A   0     -11.245  13.413  64.093  1.00  0.00    -0.375 NA 
HETATM    6  C   UNK A   0     -10.682  13.963  65.167  1.00  0.00    -0.362 A  
HETATM    7  N   UNK A   0      -9.881  15.018  64.982  1.00  0.00    -0.164 NA 
HETATM    8  C   UNK A   0      -9.224  15.518  66.055  1.00  0.00    -0.326 A  
HETATM    9  C   UNK A   0      -9.362  14.997  67.333  1.00  0.00    -0.201 A  
HETATM   10  H2  UNK A   0     -12.373  12.456  68.360  1.00  0.00     0.000 HD 
HETATM   11  N   UNK A   0     -10.208  13.968  67.553  1.00  0.00    -0.243 NA 
HETATM   12  H1  UNK A   0     -12.567  10.913  67.798  1.00  0.00     0.000 HD 
HETATM   13  C   UNK A   0     -10.852  13.455  66.459  1.00  0.00    -0.282 A  
HETATM   14  C   UNK A   0     -11.663  12.329  66.517  1.00  0.00    -0.352 A  
HETATM   15  N   UNK A   0     -11.971  11.739  67.755  1.00  0.00    -0.600 NA 
HETATM   16  N   UNK A   0     -12.225  11.751  65.446  1.00  0.00    -0.155 NA 
ENDROOT
BRANCH   9  17
HETATM   17  C   UNK A   0      -8.499  15.453  68.485  1.00  0.00    -0.163 C  
HETATM   18  C   UNK A   0      -7.040  13.375  68.255  1.00  0.00    -0.109 A  
HETATM   19  C   UNK A   0      -7.697  12.545  69.180  1.00  0.00     0.302 A  
HETATM   20  C   UNK A   0      -6.453  12.791  67.123  1.00  0.00     0.059 A  
HETATM   21  C   UNK A   0      -7.046  14.900  68.408  1.00  0.00    -0.113 C  
HETATM   22  C   UNK A   0      -6.625  11.431  66.858  1.00  0.00    -0.141 A  
HETATM   23  C   UNK A   0      -7.869  11.183  68.918  1.00  0.00    -0.131 A  
HETATM   24  C   UNK A   0      -6.187  15.313  69.618  1.00  0.00    -0.147 C  
HETATM   25  C   UNK A   0      -7.383  10.640  67.725  1.00  0.00    -0.089 A  
BRANCH  24  26
HETATM   26  C   UNK A   0      -6.058  16.772  69.784  1.00  0.00    -0.224 C  
HETATM   27  C   UNK A   0      -5.884  17.955  69.895  1.00  0.00    -0.237 C  
ENDBRANCH  24  26
BRANCH  25  28
HETATM   28  C   UNK A   0      -7.710   9.234  67.381  1.00  0.00    -0.095 C  
HETATM   29  O   UNK A   0      -7.135   8.656  66.468  1.00  0.00    -0.077 OA 
ATOM     30  N   GLU A   1      -8.659   8.618  68.195  1.00  0.00    -0.140 N  
ATOM     31  H   GLU A   1      -9.171   9.161  68.891  1.00  0.00     0.000 HD 
BRANCH  30  32
ATOM     32  CA  GLU A   1      -8.916   7.171  68.039  1.00  0.00    -0.127 C  
ATOM     33  O   GLU A   1     -10.897   8.044  66.961  1.00  0.00    -0.283 OA 
ATOM     34  C   GLU A   1     -10.077   6.965  67.046  1.00  0.00    -0.221 C  
ATOM     35  OXT GLU A   1     -10.340   5.902  66.503  1.00  0.00    -0.204 OA 
BRANCH  32  36
ATOM     36  CB  GLU A   1      -9.273   6.544  69.398  1.00  0.00    -0.144 C  
BRANCH  36  37
ATOM     37  CG  GLU A   1      -9.174   7.531  70.567  1.00  0.00    -0.157 C  
ATOM     38  CD  GLU A   1     -10.524   7.972  71.076  1.00  0.00    -0.203 C  
ATOM     39  OE2 GLU A   1     -11.599   7.611  70.628  1.00  0.00    -0.285 OA 
ATOM     40  OE1 GLU A   1     -10.422   8.826  72.120  1.00  0.00    -0.337 OA 
ENDBRANCH  36  37
ENDBRANCH  32  36
ENDBRANCH  30  32
ENDBRANCH  25  28
ENDBRANCH   9  17
TORSDOF 6
ENDMDL
MODEL       52
REMARK 921   NORMALIZED FREE ENERGY PREDICTED BY IDOCK:   -5.79 KCAL/MOL
REMARK 922        TOTAL FREE ENERGY PREDICTED BY IDOCK:   -9.23 KCAL/MOL
REMARK 923 INTER-LIGAND FREE ENERGY PREDICTED BY IDOCK:   -8.25 KCAL/MOL
REMARK 924 INTRA-LIGAND FREE ENERGY PREDICTED BY IDOCK:   -0.99 KCAL/MOL
REMARK 927      BINDING AFFINITY PREDICTED BY RF-SCORE:    0.00 PKD
ROOT
HETATM    1  N   UNK A   0      -9.381   4.809  63.839  1.00  0.00    -0.351 NA 
HETATM    2  C   UNK A   0      -9.290   4.751  65.208  1.00  0.00    -0.143 A  
HETATM    3  H2  UNK A   0      -9.306   5.697  63.343  1.00  0.00     0.000 HD 
HETATM    4  H1  UNK A   0      -9.526   3.935  63.334  1.00  0.00     0.000 HD 
HETATM    5  N   UNK A   0      -9.100   5.890  65.866  1.00  0.00    -0.150 NA 
HETATM    6  C   UNK A   0      -8.926   5.824  67.184  1.00  0.00    -0.113 A  
HETATM    7  N   UNK A   0      -8.651   6.959  67.836  1.00  0.00    -0.123 NA 
HETATM    8  C   UNK A   0      -8.370   6.885  69.159  1.00  0.00    -0.125 A  
HETATM    9  C   UNK A   0      -8.375   5.692  69.864  1.00  0.00    -0.117 A  
HETATM   10  H2  UNK A   0     -10.056   2.281  68.407  1.00  0.00     0.000 HD 
HETATM   11  N   UNK A   0      -8.705   4.541  69.239  1.00  0.00    -0.085 NA 
HETATM   12  H1  UNK A   0      -9.511   1.416  67.107  1.00  0.00     0.000 HD 
HETATM   13  C   UNK A   0      -8.966   4.622  67.898  1.00  0.00    -0.114 A  
HETATM   14  C   UNK A   0      -9.208   3.507  67.104  1.00  0.00    -0.192 A  
HETATM   15  N   UNK A   0      -9.333   2.235  67.689  1.00  0.00    -0.168 NA 
HETATM   16  N   UNK A   0      -9.370   3.551  65.775  1.00  0.00    -0.160 NA 
ENDROOT
BRANCH   9  17
HETATM   17  C   UNK A   0      -7.897   5.600  71.294  1.00  0.00    -0.111 C  
HETATM   18  C   UNK A   0      -9.949   6.882  72.096  1.00  0.00    -0.176 A  
HETATM   19  C   UNK A   0      -9.412   8.181  72.083  1.00  0.00    -0.291 A  
HETATM   20  C   UNK A   0     -11.308   6.712  71.795  1.00  0.00    -0.320 A  
HETATM   21  C   UNK A   0      -9.061   5.655  72.325  1.00  0.00    -0.144 C  
HETATM   22  C   UNK A   0     -12.081   7.795  71.373  1.00  0.00    -0.335 A  
HETATM   23  C   UNK A   0     -10.184   9.268  71.663  1.00  0.00    -0.271 A  
HETATM   24  C   UNK A   0      -8.565   5.627  73.784  1.00  0.00    -0.119 C  
HETATM   25  C   UNK A   0     -11.503   9.061  71.249  1.00  0.00    -0.390 A  
BRANCH  24  26
HETATM   26  C   UNK A   0      -7.779   4.426  74.121  1.00  0.00    -0.085 C  
HETATM   27  C   UNK A   0      -7.183   3.409  74.351  1.00  0.00    -0.052 C  
ENDBRANCH  24  26
BRANCH  25  28
HETATM   28  C   UNK A   0     -12.262  10.188  70.652  1.00  0.00    -0.302 C  
HETATM   29  O   UNK A   0     -13.468  10.304  70.830  1.00  0.00    -0.307 OA 
ATOM     30  N   GLU A   1     -11.506  11.114  69.938  1.00  0.00    -0.316 N  
ATOM     31  H   GLU A   1     -10.520  10.935  69.746  1.00  0.00     0.000 HD 
BRANCH  30  32
ATOM     32  CA  GLU A   1     -12.146  12.358  69.461  1.00  0.00    -0.189 C  
ATOM     33  O   GLU A   1     -10.307  12.234  67.896  1.00  0.00    -0.199 OA 
ATOM     34  C   GLU A   1     -11.549  12.745  68.093  1.00  0.00    -0.336 C  
ATOM     35  OXT GLU A   1     -12.053  13.550  67.323  1.00  0.00    -0.368 OA 
BRANCH  32  36
ATOM     36  CB  GLU A   1     -11.920  13.496  70.471  1.00  0.00    -0.344 C  
BRANCH  36  37
ATOM     37  CG  GLU A   1     -13.181  13.866  71.261  1.00  0.00    -0.352 C  
ATOM     38  CD  GLU A   1     -13.137  15.271  71.809  1.00  0.00    -0.403 C  
ATOM     39  OE2 GLU A   1     -12.213  16.053  71.669  1.00  0.00    -0.449 OA 
ATOM     40  OE1 GLU A   1     -14.264  15.591  72.485  1.00  0.00    -0.548 OA 
ENDBRANCH  36  37
ENDBRANCH  32  36
ENDBRANCH  30  32
ENDBRANCH  25  28
ENDBRANCH   9  17
TORSDOF 6
ENDMDL
MODEL       53
REMARK 921   NORMALIZED FREE ENERGY PREDICTED BY IDOCK:   -5.77 KCAL/MOL
REMARK 922        TOTAL FREE ENERGY PREDICTED BY IDOCK:   -9.21 KCAL/MOL
REMARK 923 INTER-LIGAND FREE ENERGY PREDICTED BY IDOCK:   -7.56 KCAL/MOL
REMARK 924 INTRA-LIGAND FREE ENERGY PREDICTED BY IDOCK:   -1.65 KCAL/MOL
REMARK 927      BINDING AFFINITY PREDICTED BY RF-SCORE:    0.00 PKD
ROOT
HETATM    1  N   UNK A   0      -8.825   8.418  64.420  1.00  0.00    -0.394 NA 
HETATM    2  C   UNK A   0      -8.689   7.814  65.647  1.00  0.00    -0.104 A  
HETATM    3  H2  UNK A   0      -9.683   8.320  63.878  1.00  0.00     0.000 HD 
HETATM    4  H1  UNK A   0      -8.040   8.968  64.072  1.00  0.00     0.000 HD 
HETATM    5  N   UNK A   0      -9.712   7.098  66.102  1.00  0.00     0.021 NA 
HETATM    6  C   UNK A   0      -9.614   6.584  67.327  1.00  0.00    -0.126 A  
HETATM    7  N   UNK A   0     -10.675   5.935  67.819  1.00  0.00    -0.269 NA 
HETATM    8  C   UNK A   0     -10.620   5.500  69.100  1.00  0.00    -0.230 A  
HETATM    9  C   UNK A   0      -9.510   5.681  69.911  1.00  0.00    -0.156 A  
HETATM   10  H2  UNK A   0      -5.865   6.751  68.443  1.00  0.00     0.000 HD 
HETATM   11  N   UNK A   0      -8.406   6.283  69.417  1.00  0.00    -0.120 NA 
HETATM   12  H1  UNK A   0      -5.495   8.206  67.748  1.00  0.00     0.000 HD 
HETATM   13  C   UNK A   0      -8.478   6.739  68.128  1.00  0.00    -0.121 A  
HETATM   14  C   UNK A   0      -7.464   7.474  67.527  1.00  0.00    -0.104 A  
HETATM   15  N   UNK A   0      -6.239   7.666  68.189  1.00  0.00    -0.043 NA 
HETATM   16  N   UNK A   0      -7.550   8.014  66.303  1.00  0.00    -0.088 NA 
ENDROOT
BRANCH   9  17
HETATM   17  C   UNK A   0      -9.524   5.344  71.383  1.00  0.00    -0.188 C  
HETATM   18  C   UNK A   0     -11.219   7.196  71.823  1.00  0.00    -0.278 A  
HETATM   19  C   UNK A   0     -10.328   8.232  72.150  1.00  0.00    -0.370 A  
HETATM   20  C   UNK A   0     -12.413   7.517  71.162  1.00  0.00    -0.306 A  
HETATM   21  C   UNK A   0     -10.862   5.728  72.078  1.00  0.00    -0.306 C  
HETATM   22  C   UNK A   0     -12.655   8.823  70.730  1.00  0.00     0.128 A  
HETATM   23  C   UNK A   0     -10.568   9.541  71.721  1.00  0.00     0.051 A  
HETATM   24  C   UNK A   0     -10.850   5.442  73.592  1.00  0.00    -0.321 C  
HETATM   25  C   UNK A   0     -11.704   9.821  70.956  1.00  0.00    -0.453 A  
BRANCH  24  26
HETATM   26  C   UNK A   0     -10.609   4.027  73.927  1.00  0.00    -0.293 C  
HETATM   27  C   UNK A   0     -10.483   2.869  74.219  1.00  0.00    -0.231 C  
ENDBRANCH  24  26
BRANCH  25  28
HETATM   28  C   UNK A   0     -11.868  11.174  70.369  1.00  0.00    -0.369 C  
HETATM   29  O   UNK A   0     -12.519  12.038  70.941  1.00  0.00    -0.369 OA 
ATOM     30  N   GLU A   1     -11.192  11.398  69.171  1.00  0.00    -0.250 N  
ATOM     31  H   GLU A   1     -10.730  10.627  68.689  1.00  0.00     0.000 HD 
BRANCH  30  32
ATOM     32  CA  GLU A   1     -11.153  12.763  68.607  1.00  0.00    -0.266 C  
ATOM     33  O   GLU A   1     -11.797  11.535  66.626  1.00  0.00    -0.470 OA 
ATOM     34  C   GLU A   1     -11.816  12.758  67.215  1.00  0.00    -0.350 C  
ATOM     35  OXT GLU A   1     -12.183  13.761  66.622  1.00  0.00    -0.426 OA 
BRANCH  32  36
ATOM     36  CB  GLU A   1      -9.698  13.251  68.491  1.00  0.00    -0.146 C  
BRANCH  36  37
ATOM     37  CG  GLU A   1      -9.033  12.866  67.164  1.00  0.00    -0.219 C  
ATOM     38  CD  GLU A   1      -8.405  11.494  67.201  1.00  0.00    -0.160 C  
ATOM     39  OE2 GLU A   1      -8.398  10.748  68.165  1.00  0.00    -0.113 OA 
ATOM     40  OE1 GLU A   1      -7.840  11.159  66.018  1.00  0.00    -0.123 OA 
ENDBRANCH  36  37
ENDBRANCH  32  36
ENDBRANCH  30  32
ENDBRANCH  25  28
ENDBRANCH   9  17
TORSDOF 6
ENDMDL
MODEL       54
REMARK 921   NORMALIZED FREE ENERGY PREDICTED BY IDOCK:   -5.77 KCAL/MOL
REMARK 922        TOTAL FREE ENERGY PREDICTED BY IDOCK:   -9.20 KCAL/MOL
REMARK 923 INTER-LIGAND FREE ENERGY PREDICTED BY IDOCK:   -7.29 KCAL/MOL
REMARK 924 INTRA-LIGAND FREE ENERGY PREDICTED BY IDOCK:   -1.91 KCAL/MOL
REMARK 927      BINDING AFFINITY PREDICTED BY RF-SCORE:    0.00 PKD
ROOT
HETATM    1  N   UNK A   0      -8.770  13.521  67.809  1.00  0.00    -0.176 NA 
HETATM    2  C   UNK A   0      -8.263  12.307  67.411  1.00  0.00    -0.178 A  
HETATM    3  H2  UNK A   0      -9.611  13.906  67.382  1.00  0.00     0.000 HD 
HETATM    4  H1  UNK A   0      -8.276  14.023  68.547  1.00  0.00     0.000 HD 
HETATM    5  N   UNK A   0      -8.907  11.653  66.450  1.00  0.00    -0.191 NA 
HETATM    6  C   UNK A   0      -8.467  10.439  66.123  1.00  0.00    -0.147 A  
HETATM    7  N   UNK A   0      -9.163   9.745  65.216  1.00  0.00    -0.219 NA 
HETATM    8  C   UNK A   0      -8.782   8.472  64.955  1.00  0.00    -0.088 A  
HETATM    9  C   UNK A   0      -7.696   7.869  65.571  1.00  0.00    -0.101 A  
HETATM   10  H2  UNK A   0      -4.879   9.978  67.621  1.00  0.00     0.000 HD 
HETATM   11  N   UNK A   0      -6.944   8.570  66.448  1.00  0.00    -0.077 NA 
HETATM   12  H1  UNK A   0      -5.127  10.794  69.038  1.00  0.00     0.000 HD 
HETATM   13  C   UNK A   0      -7.350   9.849  66.722  1.00  0.00    -0.095 A  
HETATM   14  C   UNK A   0      -6.742  10.646  67.684  1.00  0.00    -0.072 A  
HETATM   15  N   UNK A   0      -5.573  10.209  68.332  1.00  0.00    -0.038 NA 
HETATM   16  N   UNK A   0      -7.179  11.862  68.038  1.00  0.00    -0.083 NA 
ENDROOT
BRANCH   9  17
HETATM   17  C   UNK A   0      -7.385   6.402  65.399  1.00  0.00    -0.076 C  
HETATM   18  C   UNK A   0      -9.295   5.781  66.970  1.00  0.00    -0.122 A  
HETATM   19  C   UNK A   0      -8.572   5.711  68.173  1.00  0.00    -0.104 A  
HETATM   20  C   UNK A   0     -10.626   6.220  67.007  1.00  0.00    -0.386 A  
HETATM   21  C   UNK A   0      -8.627   5.491  65.621  1.00  0.00    -0.148 C  
HETATM   22  C   UNK A   0     -11.182   6.693  68.197  1.00  0.00    -0.207 A  
HETATM   23  C   UNK A   0      -9.127   6.183  69.366  1.00  0.00    -0.135 A  
HETATM   24  C   UNK A   0      -8.293   3.991  65.509  1.00  0.00    -0.109 C  
HETATM   25  C   UNK A   0     -10.413   6.731  69.362  1.00  0.00    -0.244 A  
BRANCH  24  26
HETATM   26  C   UNK A   0      -7.733   3.604  64.202  1.00  0.00    -0.080 C  
HETATM   27  C   UNK A   0      -7.292   3.218  63.153  1.00  0.00    -0.053 C  
ENDBRANCH  24  26
BRANCH  25  28
HETATM   28  C   UNK A   0     -10.930   7.376  70.595  1.00  0.00    -0.256 C  
HETATM   29  O   UNK A   0     -10.532   7.036  71.702  1.00  0.00    -0.201 OA 
ATOM     30  N   GLU A   1     -11.842   8.411  70.398  1.00  0.00    -0.476 N  
ATOM     31  H   GLU A   1     -12.207   8.605  69.466  1.00  0.00     0.000 HD 
BRANCH  30  32
ATOM     32  CA  GLU A   1     -12.273   9.224  71.554  1.00  0.00    -0.362 C  
ATOM     33  O   GLU A   1     -14.381   8.179  70.997  1.00  0.00    -0.209 OA 
ATOM     34  C   GLU A   1     -13.681   8.775  71.995  1.00  0.00    -0.443 C  
ATOM     35  OXT GLU A   1     -14.189   9.055  73.071  1.00  0.00    -0.444 OA 
BRANCH  32  36
ATOM     36  CB  GLU A   1     -12.294  10.716  71.178  1.00  0.00    -0.505 C  
BRANCH  36  37
ATOM     37  CG  GLU A   1     -12.198  10.963  69.668  1.00  0.00    -0.354 C  
ATOM     38  CD  GLU A   1     -11.905  12.403  69.328  1.00  0.00    -0.304 C  
ATOM     39  OE2 GLU A   1     -11.763  13.304  70.137  1.00  0.00    -0.272 OA 
ATOM     40  OE1 GLU A   1     -11.802  12.603  67.994  1.00  0.00    -0.338 OA 
ENDBRANCH  36  37
ENDBRANCH  32  36
ENDBRANCH  30  32
ENDBRANCH  25  28
ENDBRANCH   9  17
TORSDOF 6
ENDMDL
MODEL       55
REMARK 921   NORMALIZED FREE ENERGY PREDICTED BY IDOCK:   -5.72 KCAL/MOL
REMARK 922        TOTAL FREE ENERGY PREDICTED BY IDOCK:   -9.13 KCAL/MOL
REMARK 923 INTER-LIGAND FREE ENERGY PREDICTED BY IDOCK:   -7.69 KCAL/MOL
REMARK 924 INTRA-LIGAND FREE ENERGY PREDICTED BY IDOCK:   -1.44 KCAL/MOL
REMARK 927      BINDING AFFINITY PREDICTED BY RF-SCORE:    0.00 PKD
ROOT
HETATM    1  N   UNK A   0      -5.344  14.464  67.416  1.00  0.00    -0.300 NA 
HETATM    2  C   UNK A   0      -5.440  13.160  67.839  1.00  0.00    -0.117 A  
HETATM    3  H2  UNK A   0      -5.149  14.688  66.440  1.00  0.00     0.000 HD 
HETATM    4  H1  UNK A   0      -5.474  15.200  68.110  1.00  0.00     0.000 HD 
HETATM    5  N   UNK A   0      -5.271  12.201  66.935  1.00  0.00    -0.312 NA 
HETATM    6  C   UNK A   0      -5.448  10.941  67.326  1.00  0.00    -0.044 A  
HETATM    7  N   UNK A   0      -5.362   9.980  66.400  1.00  0.00    -0.043 NA 
HETATM    8  C   UNK A   0      -5.643   8.708  66.769  1.00  0.00    -0.040 A  
HETATM    9  C   UNK A   0      -5.996   8.360  68.064  1.00  0.00    -0.043 A  
HETATM   10  H2  UNK A   0      -5.438  10.847  71.240  1.00  0.00     0.000 HD 
HETATM   11  N   UNK A   0      -6.035   9.305  69.028  1.00  0.00    -0.042 NA 
HETATM   12  H1  UNK A   0      -6.229  12.277  71.496  1.00  0.00     0.000 HD 
HETATM   13  C   UNK A   0      -5.770  10.591  68.641  1.00  0.00    -0.040 A  
HETATM   14  C   UNK A   0      -5.883  11.678  69.499  1.00  0.00    -0.080 A  
HETATM   15  N   UNK A   0      -6.146  11.479  70.866  1.00  0.00    -0.307 NA 
HETATM   16  N   UNK A   0      -5.724  12.954  69.121  1.00  0.00    -0.073 NA 
ENDROOT
BRANCH   9  17
HETATM   17  C   UNK A   0      -6.470   6.972  68.423  1.00  0.00    -0.040 C  
HETATM   18  C   UNK A   0      -8.807   7.512  67.559  1.00  0.00    -0.127 A  
HETATM   19  C   UNK A   0      -9.391   7.938  68.765  1.00  0.00    -0.146 A  
HETATM   20  C   UNK A   0      -9.222   8.110  66.361  1.00  0.00    -0.250 A  
HETATM   21  C   UNK A   0      -7.662   6.494  67.544  1.00  0.00    -0.106 C  
HETATM   22  C   UNK A   0     -10.107   9.190  66.377  1.00  0.00    -0.345 A  
HETATM   23  C   UNK A   0     -10.279   9.017  68.784  1.00  0.00    -0.226 A  
HETATM   24  C   UNK A   0      -8.185   5.105  67.956  1.00  0.00    -0.098 C  
HETATM   25  C   UNK A   0     -10.588   9.681  67.593  1.00  0.00    -0.334 A  
BRANCH  24  26
HETATM   26  C   UNK A   0      -7.168   4.040  67.878  1.00  0.00    -0.060 C  
HETATM   27  C   UNK A   0      -6.293   3.223  67.788  1.00  0.00    -0.036 C  
ENDBRANCH  24  26
BRANCH  25  28
HETATM   28  C   UNK A   0     -11.400  10.922  67.645  1.00  0.00    -0.270 C  
HETATM   29  O   UNK A   0     -12.238  11.094  68.521  1.00  0.00    -0.600 OA 
ATOM     30  N   GLU A   1     -11.104  11.878  66.675  1.00  0.00    -0.295 N  
ATOM     31  H   GLU A   1     -10.458  11.660  65.917  1.00  0.00     0.000 HD 
BRANCH  30  32
ATOM     32  CA  GLU A   1     -11.737  13.212  66.757  1.00  0.00    -0.385 C  
ATOM     33  O   GLU A   1     -12.126  12.731  64.420  1.00  0.00    -0.370 OA 
ATOM     34  C   GLU A   1     -12.558  13.464  65.477  1.00  0.00    -0.465 C  
ATOM     35  OXT GLU A   1     -13.406  14.337  65.363  1.00  0.00    -0.649 OA 
BRANCH  32  36
ATOM     36  CB  GLU A   1     -10.663  14.303  66.913  1.00  0.00    -0.290 C  
BRANCH  36  37
ATOM     37  CG  GLU A   1     -11.135  15.505  67.740  1.00  0.00    -0.315 C  
ATOM     38  CD  GLU A   1     -10.474  16.796  67.325  1.00  0.00    -0.310 C  
ATOM     39  OE2 GLU A   1      -9.643  16.909  66.440  1.00  0.00    -0.258 OA 
ATOM     40  OE1 GLU A   1     -10.915  17.851  68.048  1.00  0.00    -0.276 OA 
ENDBRANCH  36  37
ENDBRANCH  32  36
ENDBRANCH  30  32
ENDBRANCH  25  28
ENDBRANCH   9  17
TORSDOF 6
ENDMDL
MODEL       56
REMARK 921   NORMALIZED FREE ENERGY PREDICTED BY IDOCK:   -5.69 KCAL/MOL
REMARK 922        TOTAL FREE ENERGY PREDICTED BY IDOCK:   -9.09 KCAL/MOL
REMARK 923 INTER-LIGAND FREE ENERGY PREDICTED BY IDOCK:   -7.51 KCAL/MOL
REMARK 924 INTRA-LIGAND FREE ENERGY PREDICTED BY IDOCK:   -1.58 KCAL/MOL
REMARK 927      BINDING AFFINITY PREDICTED BY RF-SCORE:    0.00 PKD
ROOT
HETATM    1  N   UNK A   0      -6.888   7.207  62.989  1.00  0.00    -0.052 NA 
HETATM    2  C   UNK A   0      -7.033   6.941  64.329  1.00  0.00    -0.052 A  
HETATM    3  H2  UNK A   0      -7.577   6.883  62.310  1.00  0.00     0.000 HD 
HETATM    4  H1  UNK A   0      -6.069   7.739  62.695  1.00  0.00     0.000 HD 
HETATM    5  N   UNK A   0      -8.100   6.248  64.712  1.00  0.00    -0.134 NA 
HETATM    6  C   UNK A   0      -8.286   6.064  66.017  1.00  0.00    -0.125 A  
HETATM    7  N   UNK A   0      -9.403   5.441  66.409  1.00  0.00    -0.145 NA 
HETATM    8  C   UNK A   0      -9.648   5.342  67.736  1.00  0.00    -0.128 A  
HETATM    9  C   UNK A   0      -8.786   5.840  68.701  1.00  0.00    -0.108 A  
HETATM   10  H2  UNK A   0      -4.948   6.921  67.875  1.00  0.00     0.000 HD 
HETATM   11  N   UNK A   0      -7.625   6.423  68.331  1.00  0.00    -0.098 NA 
HETATM   12  H1  UNK A   0      -4.488   8.193  66.923  1.00  0.00     0.000 HD 
HETATM   13  C   UNK A   0      -7.395   6.538  66.986  1.00  0.00    -0.079 A  
HETATM   14  C   UNK A   0      -6.301   7.213  66.460  1.00  0.00    -0.047 A  
HETATM   15  N   UNK A   0      -5.291   7.698  67.309  1.00  0.00    -0.029 NA 
HETATM   16  N   UNK A   0      -6.105   7.423  65.151  1.00  0.00    -0.038 NA 
ENDROOT
BRANCH   9  17
HETATM   17  C   UNK A   0      -9.151   5.874  70.166  1.00  0.00    -0.155 C  
HETATM   18  C   UNK A   0     -10.208   8.177  69.881  1.00  0.00    -0.204 A  
HETATM   19  C   UNK A   0      -9.097   8.969  70.221  1.00  0.00    -0.227 A  
HETATM   20  C   UNK A   0     -11.108   8.656  68.919  1.00  0.00     0.216 A  
HETATM   21  C   UNK A   0     -10.389   6.769  70.460  1.00  0.00    -0.226 C  
HETATM   22  C   UNK A   0     -10.842   9.837  68.226  1.00  0.00    -0.256 A  
HETATM   23  C   UNK A   0      -8.829  10.154  69.529  1.00  0.00    -0.198 A  
HETATM   24  C   UNK A   0     -10.719   6.854  71.962  1.00  0.00    -0.244 C  
HETATM   25  C   UNK A   0      -9.672  10.554  68.489  1.00  0.00    -0.170 A  
BRANCH  24  26
HETATM   26  C   UNK A   0     -11.005   5.548  72.582  1.00  0.00    -0.320 C  
HETATM   27  C   UNK A   0     -11.171   4.486  73.118  1.00  0.00    -0.339 C  
ENDBRANCH  24  26
BRANCH  25  28
HETATM   28  C   UNK A   0      -9.292  11.722  67.655  1.00  0.00    -0.180 C  
HETATM   29  O   UNK A   0      -8.120  12.051  67.525  1.00  0.00    -0.141 OA 
ATOM     30  N   GLU A   1     -10.341  12.366  67.004  1.00  0.00    -0.219 N  
ATOM     31  H   GLU A   1     -11.308  12.110  67.206  1.00  0.00     0.000 HD 
BRANCH  30  32
ATOM     32  CA  GLU A   1     -10.039  13.424  66.017  1.00  0.00    -0.304 C  
ATOM     33  O   GLU A   1     -12.235  14.153  66.720  1.00  0.00    -0.447 OA 
ATOM     34  C   GLU A   1     -11.068  14.564  66.163  1.00  0.00    -0.334 C  
ATOM     35  OXT GLU A   1     -10.928  15.683  65.693  1.00  0.00    -0.323 OA 
BRANCH  32  36
ATOM     36  CB  GLU A   1     -10.091  12.853  64.589  1.00  0.00    -0.254 C  
BRANCH  36  37
ATOM     37  CG  GLU A   1     -11.250  11.873  64.370  1.00  0.00    -0.401 C  
ATOM     38  CD  GLU A   1     -12.394  12.484  63.599  1.00  0.00    -0.522 C  
ATOM     39  OE2 GLU A   1     -12.433  13.631  63.187  1.00  0.00    -0.786 OA 
ATOM     40  OE1 GLU A   1     -13.400  11.603  63.395  1.00  0.00    -0.446 OA 
ENDBRANCH  36  37
ENDBRANCH  32  36
ENDBRANCH  30  32
ENDBRANCH  25  28
ENDBRANCH   9  17
TORSDOF 6
ENDMDL
MODEL       57
REMARK 921   NORMALIZED FREE ENERGY PREDICTED BY IDOCK:   -5.64 KCAL/MOL
REMARK 922        TOTAL FREE ENERGY PREDICTED BY IDOCK:   -9.03 KCAL/MOL
REMARK 923 INTER-LIGAND FREE ENERGY PREDICTED BY IDOCK:   -7.91 KCAL/MOL
REMARK 924 INTRA-LIGAND FREE ENERGY PREDICTED BY IDOCK:   -1.12 KCAL/MOL
REMARK 927      BINDING AFFINITY PREDICTED BY RF-SCORE:    0.00 PKD
ROOT
HETATM    1  N   UNK A   0     -12.609  14.263  63.940  1.00  0.00    -0.886 NA 
HETATM    2  C   UNK A   0     -11.917  13.106  64.206  1.00  0.00    -0.411 A  
HETATM    3  H2  UNK A   0     -13.235  14.673  64.633  1.00  0.00     0.000 HD 
HETATM    4  H1  UNK A   0     -12.476  14.698  63.028  1.00  0.00     0.000 HD 
HETATM    5  N   UNK A   0     -12.090  12.540  65.396  1.00  0.00    -0.498 NA 
HETATM    6  C   UNK A   0     -11.356  11.467  65.685  1.00  0.00    -0.085 A  
HETATM    7  N   UNK A   0     -11.467  10.946  66.912  1.00  0.00    -0.296 NA 
HETATM    8  C   UNK A   0     -10.649   9.921  67.248  1.00  0.00    -0.252 A  
HETATM    9  C   UNK A   0      -9.720   9.380  66.371  1.00  0.00    -0.250 A  
HETATM   10  H2  UNK A   0      -9.795  10.102  62.364  1.00  0.00     0.000 HD 
HETATM   11  N   UNK A   0      -9.630   9.852  65.109  1.00  0.00    -0.284 NA 
HETATM   12  H1  UNK A   0      -9.506  11.561  61.642  1.00  0.00     0.000 HD 
HETATM   13  C   UNK A   0     -10.445  10.904  64.786  1.00  0.00    -0.303 A  
HETATM   14  C   UNK A   0     -10.382  11.563  63.564  1.00  0.00    -0.433 A  
HETATM   15  N   UNK A   0      -9.553  11.077  62.538  1.00  0.00    -0.235 NA 
HETATM   16  N   UNK A   0     -11.101  12.652  63.260  1.00  0.00    -0.309 NA 
ENDROOT
BRANCH   9  17
HETATM   17  C   UNK A   0      -8.702   8.355  66.810  1.00  0.00    -0.138 C  
HETATM   18  C   UNK A   0      -7.515  10.099  68.241  1.00  0.00    -0.082 A  
HETATM   19  C   UNK A   0      -6.559  10.533  67.306  1.00  0.00    -0.072 A  
HETATM   20  C   UNK A   0      -8.025  11.025  69.162  1.00  0.00    -0.081 A  
HETATM   21  C   UNK A   0      -8.081   8.676  68.200  1.00  0.00    -0.115 C  
HETATM   22  C   UNK A   0      -7.682  12.376  69.073  1.00  0.00     0.170 A  
HETATM   23  C   UNK A   0      -6.212  11.884  67.216  1.00  0.00    -0.140 A  
HETATM   24  C   UNK A   0      -6.996   7.665  68.615  1.00  0.00    -0.075 C  
HETATM   25  C   UNK A   0      -6.822  12.814  68.063  1.00  0.00    -0.100 A  
BRANCH  24  26
HETATM   26  C   UNK A   0      -7.480   6.274  68.697  1.00  0.00    -0.088 C  
HETATM   27  C   UNK A   0      -7.895   5.147  68.693  1.00  0.00    -0.079 C  
ENDBRANCH  24  26
BRANCH  25  28
HETATM   28  C   UNK A   0      -6.570  14.261  67.853  1.00  0.00    -0.165 C  
HETATM   29  O   UNK A   0      -5.522  14.656  67.359  1.00  0.00    -0.338 OA 
ATOM     30  N   GLU A   1      -7.616  15.113  68.201  1.00  0.00    -0.107 N  
ATOM     31  H   GLU A   1      -8.437  14.749  68.685  1.00  0.00     0.000 HD 
BRANCH  30  32
ATOM     32  CA  GLU A   1      -7.523  16.549  67.864  1.00  0.00    -0.150 C  
ATOM     33  O   GLU A   1      -9.805  16.476  68.659  1.00  0.00    -0.230 OA 
ATOM     34  C   GLU A   1      -8.739  17.290  68.455  1.00  0.00    -0.273 C  
ATOM     35  OXT GLU A   1      -8.810  18.503  68.587  1.00  0.00    -0.326 OA 
BRANCH  32  36
ATOM     36  CB  GLU A   1      -7.489  16.736  66.337  1.00  0.00    -0.302 C  
BRANCH  36  37
ATOM     37  CG  GLU A   1      -6.435  17.750  65.874  1.00  0.00    -0.264 C  
ATOM     38  CD  GLU A   1      -7.031  19.085  65.504  1.00  0.00    -0.198 C  
ATOM     39  OE2 GLU A   1      -8.217  19.364  65.546  1.00  0.00    -0.311 OA 
ATOM     40  OE1 GLU A   1      -6.089  19.976  65.117  1.00  0.00    -0.205 OA 
ENDBRANCH  36  37
ENDBRANCH  32  36
ENDBRANCH  30  32
ENDBRANCH  25  28
ENDBRANCH   9  17
TORSDOF 6
ENDMDL
MODEL       58
REMARK 921   NORMALIZED FREE ENERGY PREDICTED BY IDOCK:   -5.63 KCAL/MOL
REMARK 922        TOTAL FREE ENERGY PREDICTED BY IDOCK:   -9.01 KCAL/MOL
REMARK 923 INTER-LIGAND FREE ENERGY PREDICTED BY IDOCK:   -7.45 KCAL/MOL
REMARK 924 INTRA-LIGAND FREE ENERGY PREDICTED BY IDOCK:   -1.56 KCAL/MOL
REMARK 927      BINDING AFFINITY PREDICTED BY RF-SCORE:    0.00 PKD
ROOT
HETATM    1  N   UNK A   0     -12.512  14.190  63.450  1.00  0.00    -1.116 NA 
HETATM    2  C   UNK A   0     -11.479  13.427  63.941  1.00  0.00    -0.309 A  
HETATM    3  H2  UNK A   0     -12.971  13.952  62.572  1.00  0.00     0.000 HD 
HETATM    4  H1  UNK A   0     -12.803  15.002  63.995  1.00  0.00     0.000 HD 
HETATM    5  N   UNK A   0     -11.100  12.369  63.231  1.00  0.00    -0.390 NA 
HETATM    6  C   UNK A   0     -10.158  11.582  63.747  1.00  0.00    -0.366 A  
HETATM    7  N   UNK A   0      -9.834  10.471  63.075  1.00  0.00    -0.290 NA 
HETATM    8  C   UNK A   0      -8.954   9.614  63.643  1.00  0.00    -0.216 A  
HETATM    9  C   UNK A   0      -8.363   9.848  64.876  1.00  0.00    -0.150 A  
HETATM   10  H2  UNK A   0      -8.417  13.495  66.686  1.00  0.00     0.000 HD 
HETATM   11  N   UNK A   0      -8.631  10.989  65.546  1.00  0.00    -0.147 NA 
HETATM   12  H1  UNK A   0      -9.760  14.259  67.276  1.00  0.00     0.000 HD 
HETATM   13  C   UNK A   0      -9.539  11.840  64.974  1.00  0.00    -0.130 A  
HETATM   14  C   UNK A   0      -9.995  12.993  65.601  1.00  0.00    -0.230 A  
HETATM   15  N   UNK A   0      -9.426  13.412  66.816  1.00  0.00    -0.255 NA 
HETATM   16  N   UNK A   0     -10.953  13.789  65.106  1.00  0.00    -0.320 NA 
ENDROOT
BRANCH   9  17
HETATM   17  C   UNK A   0      -7.517   8.809  65.572  1.00  0.00    -0.086 C  
HETATM   18  C   UNK A   0      -9.080   8.840  67.586  1.00  0.00    -0.145 A  
HETATM   19  C   UNK A   0      -8.409   9.796  68.367  1.00  0.00    -0.110 A  
HETATM   20  C   UNK A   0     -10.479   8.774  67.657  1.00  0.00    -0.310 A  
HETATM   21  C   UNK A   0      -8.326   7.953  66.590  1.00  0.00    -0.125 C  
HETATM   22  C   UNK A   0     -11.196   9.718  68.395  1.00  0.00    -0.076 A  
HETATM   23  C   UNK A   0      -9.124  10.741  69.108  1.00  0.00    -0.109 A  
HETATM   24  C   UNK A   0      -7.448   6.939  67.346  1.00  0.00    -0.097 C  
HETATM   25  C   UNK A   0     -10.521  10.737  69.071  1.00  0.00    -0.239 A  
BRANCH  24  26
HETATM   26  C   UNK A   0      -6.758   5.979  66.465  1.00  0.00    -0.060 C  
HETATM   27  C   UNK A   0      -6.223   5.233  65.690  1.00  0.00    -0.034 C  
ENDBRANCH  24  26
BRANCH  25  28
HETATM   28  C   UNK A   0     -11.268  11.839  69.728  1.00  0.00    -0.090 C  
HETATM   29  O   UNK A   0     -12.256  11.612  70.415  1.00  0.00    -0.350 OA 
ATOM     30  N   GLU A   1     -10.740  13.115  69.552  1.00  0.00    -0.423 N  
ATOM     31  H   GLU A   1      -9.965  13.267  68.905  1.00  0.00     0.000 HD 
BRANCH  30  32
ATOM     32  CA  GLU A   1     -11.312  14.247  70.311  1.00  0.00    -0.086 C  
ATOM     33  O   GLU A   1     -12.368  14.631  68.170  1.00  0.00    -0.134 OA 
ATOM     34  C   GLU A   1     -12.469  14.867  69.503  1.00  0.00    -0.088 C  
ATOM     35  OXT GLU A   1     -13.308  15.624  69.969  1.00  0.00     0.003 OA 
BRANCH  32  36
ATOM     36  CB  GLU A   1     -10.233  15.310  70.580  1.00  0.00     0.104 C  
BRANCH  36  37
ATOM     37  CG  GLU A   1      -9.221  15.450  69.435  1.00  0.00    -0.268 C  
ATOM     38  CD  GLU A   1      -9.356  16.756  68.693  1.00  0.00    -0.252 C  
ATOM     39  OE2 GLU A   1     -10.173  17.627  68.940  1.00  0.00    -0.360 OA 
ATOM     40  OE1 GLU A   1      -8.445  16.876  67.700  1.00  0.00    -0.196 OA 
ENDBRANCH  36  37
ENDBRANCH  32  36
ENDBRANCH  30  32
ENDBRANCH  25  28
ENDBRANCH   9  17
TORSDOF 6
ENDMDL
MODEL       59
REMARK 921   NORMALIZED FREE ENERGY PREDICTED BY IDOCK:   -5.61 KCAL/MOL
REMARK 922        TOTAL FREE ENERGY PREDICTED BY IDOCK:   -8.99 KCAL/MOL
REMARK 923 INTER-LIGAND FREE ENERGY PREDICTED BY IDOCK:   -8.29 KCAL/MOL
REMARK 924 INTRA-LIGAND FREE ENERGY PREDICTED BY IDOCK:   -0.70 KCAL/MOL
REMARK 927      BINDING AFFINITY PREDICTED BY RF-SCORE:    0.00 PKD
ROOT
HETATM    1  N   UNK A   0      -9.286   7.464  74.230  1.00  0.00    -0.419 NA 
HETATM    2  C   UNK A   0      -9.238   7.776  72.893  1.00  0.00    -0.208 A  
HETATM    3  H2  UNK A   0      -9.922   6.748  74.581  1.00  0.00     0.000 HD 
HETATM    4  H1  UNK A   0      -8.665   7.972  74.859  1.00  0.00     0.000 HD 
HETATM    5  N   UNK A   0     -10.048   7.114  72.073  1.00  0.00    -0.178 NA 
HETATM    6  C   UNK A   0      -9.941   7.354  70.767  1.00  0.00    -0.182 A  
HETATM    7  N   UNK A   0     -10.695   6.628  69.934  1.00  0.00    -0.230 NA 
HETATM    8  C   UNK A   0     -10.517   6.794  68.602  1.00  0.00    -0.206 A  
HETATM    9  C   UNK A   0      -9.606   7.694  68.070  1.00  0.00    -0.145 A  
HETATM   10  H2  UNK A   0      -7.886  10.651  70.280  1.00  0.00     0.000 HD 
HETATM   11  N   UNK A   0      -8.875   8.478  68.892  1.00  0.00    -0.138 NA 
HETATM   12  H1  UNK A   0      -6.817  10.428  71.523  1.00  0.00     0.000 HD 
HETATM   13  C   UNK A   0      -9.045   8.288  70.237  1.00  0.00    -0.150 A  
HETATM   14  C   UNK A   0      -8.282   8.941  71.197  1.00  0.00    -0.173 A  
HETATM   15  N   UNK A   0      -7.378   9.949  70.818  1.00  0.00    -0.314 NA 
HETATM   16  N   UNK A   0      -8.363   8.702  72.513  1.00  0.00    -0.400 NA 
ENDROOT
BRANCH   9  17
HETATM   17  C   UNK A   0      -9.297   7.748  66.593  1.00  0.00    -0.238 C  
HETATM   18  C   UNK A   0      -9.294  10.297  66.654  1.00  0.00    -0.192 A  
HETATM   19  C   UNK A   0     -10.636  10.524  66.301  1.00  0.00    -0.203 A  
HETATM   20  C   UNK A   0      -8.669  11.188  67.538  1.00  0.00    -0.129 A  
HETATM   21  C   UNK A   0      -8.546   9.047  66.179  1.00  0.00    -0.149 C  
HETATM   22  C   UNK A   0      -9.400  12.209  68.149  1.00  0.00    -0.204 A  
HETATM   23  C   UNK A   0     -11.369  11.546  66.910  1.00  0.00    -0.324 A  
HETATM   24  C   UNK A   0      -8.291   9.129  64.662  1.00  0.00    -0.179 C  
HETATM   25  C   UNK A   0     -10.763  12.350  67.880  1.00  0.00    -0.245 A  
BRANCH  24  26
HETATM   26  C   UNK A   0      -7.490   8.009  64.133  1.00  0.00    -0.107 C  
HETATM   27  C   UNK A   0      -6.880   7.051  63.743  1.00  0.00    -0.051 C  
ENDBRANCH  24  26
BRANCH  25  28
HETATM   28  C   UNK A   0     -11.591  13.323  68.636  1.00  0.00    -0.327 C  
HETATM   29  O   UNK A   0     -12.233  14.191  68.058  1.00  0.00    -0.310 OA 
ATOM     30  N   GLU A   1     -11.624  13.144  70.017  1.00  0.00    -0.520 N  
ATOM     31  H   GLU A   1     -11.010  12.462  70.463  1.00  0.00     0.000 HD 
BRANCH  30  32
ATOM     32  CA  GLU A   1     -12.557  13.952  70.830  1.00  0.00    -0.354 C  
ATOM     33  O   GLU A   1     -10.616  15.391  70.907  1.00  0.00    -0.241 OA 
ATOM     34  C   GLU A   1     -11.968  15.362  71.029  1.00  0.00    -0.359 C  
ATOM     35  OXT GLU A   1     -12.609  16.330  71.410  1.00  0.00    -0.204 OA 
BRANCH  32  36
ATOM     36  CB  GLU A   1     -12.790  13.284  72.197  1.00  0.00    -0.291 C  
BRANCH  36  37
ATOM     37  CG  GLU A   1     -13.704  12.055  72.124  1.00  0.00    -0.080 C  
ATOM     38  CD  GLU A   1     -12.961  10.796  71.750  1.00  0.00    -0.463 C  
ATOM     39  OE2 GLU A   1     -11.767  10.725  71.516  1.00  0.00    -0.030 OA 
ATOM     40  OE1 GLU A   1     -13.774   9.716  71.710  1.00  0.00    -0.342 OA 
ENDBRANCH  36  37
ENDBRANCH  32  36
ENDBRANCH  30  32
ENDBRANCH  25  28
ENDBRANCH   9  17
TORSDOF 6
ENDMDL
MODEL       60
REMARK 921   NORMALIZED FREE ENERGY PREDICTED BY IDOCK:   -5.59 KCAL/MOL
REMARK 922        TOTAL FREE ENERGY PREDICTED BY IDOCK:   -8.96 KCAL/MOL
REMARK 923 INTER-LIGAND FREE ENERGY PREDICTED BY IDOCK:   -7.84 KCAL/MOL
REMARK 924 INTRA-LIGAND FREE ENERGY PREDICTED BY IDOCK:   -1.11 KCAL/MOL
REMARK 927      BINDING AFFINITY PREDICTED BY RF-SCORE:    0.00 PKD
ROOT
HETATM    1  N   UNK A   0     -14.181   8.827  73.113  1.00  0.00    -1.172 NA 
HETATM    2  C   UNK A   0     -13.141   8.558  72.257  1.00  0.00    -0.334 A  
HETATM    3  H2  UNK A   0     -14.707   9.699  73.047  1.00  0.00     0.000 HD 
HETATM    4  H1  UNK A   0     -14.411   8.126  73.817  1.00  0.00     0.000 HD 
HETATM    5  N   UNK A   0     -12.842   9.472  71.339  1.00  0.00    -0.341 NA 
HETATM    6  C   UNK A   0     -11.891   9.176  70.455  1.00  0.00    -0.095 A  
HETATM    7  N   UNK A   0     -11.647  10.058  69.480  1.00  0.00    -0.122 NA 
HETATM    8  C   UNK A   0     -10.755   9.719  68.519  1.00  0.00    -0.215 A  
HETATM    9  C   UNK A   0     -10.075   8.511  68.515  1.00  0.00    -0.194 A  
HETATM   10  H2  UNK A   0      -9.898   6.074  71.774  1.00  0.00     0.000 HD 
HETATM   11  N   UNK A   0     -10.264   7.628  69.520  1.00  0.00    -0.203 NA 
HETATM   12  H1  UNK A   0     -11.175   5.261  72.440  1.00  0.00     0.000 HD 
HETATM   13  C   UNK A   0     -11.183   7.970  70.476  1.00  0.00    -0.250 A  
HETATM   14  C   UNK A   0     -11.561   7.115  71.504  1.00  0.00    -0.278 A  
HETATM   15  N   UNK A   0     -10.897   5.889  71.686  1.00  0.00    -0.256 NA 
HETATM   16  N   UNK A   0     -12.526   7.388  72.392  1.00  0.00    -0.072 NA 
ENDROOT
BRANCH   9  17
HETATM   17  C   UNK A   0      -9.215   8.075  67.353  1.00  0.00    -0.155 C  
HETATM   18  C   UNK A   0      -7.739  10.134  67.632  1.00  0.00    -0.091 A  
HETATM   19  C   UNK A   0      -8.389  10.992  66.727  1.00  0.00    -0.147 A  
HETATM   20  C   UNK A   0      -7.148  10.686  68.778  1.00  0.00    -0.076 A  
HETATM   21  C   UNK A   0      -7.758   8.614  67.443  1.00  0.00    -0.098 C  
HETATM   22  C   UNK A   0      -7.309  12.041  69.075  1.00  0.00    -0.018 A  
HETATM   23  C   UNK A   0      -8.549  12.349  67.021  1.00  0.00    -0.191 A  
HETATM   24  C   UNK A   0      -6.902   8.222  66.224  1.00  0.00    -0.065 C  
HETATM   25  C   UNK A   0      -8.060  12.859  68.227  1.00  0.00    -0.151 A  
BRANCH  24  26
HETATM   26  C   UNK A   0      -6.786   6.766  66.023  1.00  0.00    -0.052 C  
HETATM   27  C   UNK A   0      -6.625   5.592  65.829  1.00  0.00    -0.041 C  
ENDBRANCH  24  26
BRANCH  25  28
HETATM   28  C   UNK A   0      -8.375  14.259  68.604  1.00  0.00    -0.135 C  
HETATM   29  O   UNK A   0      -7.598  15.172  68.353  1.00  0.00    -0.110 OA 
ATOM     30  N   GLU A   1      -9.618  14.459  69.201  1.00  0.00    -0.403 N  
ATOM     31  H   GLU A   1     -10.196  13.661  69.465  1.00  0.00     0.000 HD 
BRANCH  30  32
ATOM     32  CA  GLU A   1     -10.089  15.838  69.447  1.00  0.00    -0.268 C  
ATOM     33  O   GLU A   1     -11.650  14.630  70.844  1.00  0.00    -0.281 OA 
ATOM     34  C   GLU A   1     -11.061  15.837  70.644  1.00  0.00    -0.354 C  
ATOM     35  OXT GLU A   1     -11.399  16.837  71.259  1.00  0.00    -0.105 OA 
BRANCH  32  36
ATOM     36  CB  GLU A   1     -10.797  16.391  68.198  1.00  0.00    -0.346 C  
BRANCH  36  37
ATOM     37  CG  GLU A   1     -11.508  15.309  67.375  1.00  0.00    -0.246 C  
ATOM     38  CD  GLU A   1     -10.853  15.068  66.037  1.00  0.00    -0.334 C  
ATOM     39  OE2 GLU A   1      -9.870  15.655  65.618  1.00  0.00    -0.330 OA 
ATOM     40  OE1 GLU A   1     -11.476  14.098  65.331  1.00  0.00    -0.311 OA 
ENDBRANCH  36  37
ENDBRANCH  32  36
ENDBRANCH  30  32
ENDBRANCH  25  28
ENDBRANCH   9  17
TORSDOF 6
ENDMDL
MODEL       61
REMARK 921   NORMALIZED FREE ENERGY PREDICTED BY IDOCK:   -5.58 KCAL/MOL
REMARK 922        TOTAL FREE ENERGY PREDICTED BY IDOCK:   -8.95 KCAL/MOL
REMARK 923 INTER-LIGAND FREE ENERGY PREDICTED BY IDOCK:   -8.77 KCAL/MOL
REMARK 924 INTRA-LIGAND FREE ENERGY PREDICTED BY IDOCK:   -0.18 KCAL/MOL
REMARK 927      BINDING AFFINITY PREDICTED BY RF-SCORE:    0.00 PKD
ROOT
HETATM    1  N   UNK A   0     -13.588   8.988  72.894  1.00  0.00    -0.903 NA 
HETATM    2  C   UNK A   0     -13.221  10.049  72.102  1.00  0.00    -0.390 A  
HETATM    3  H2  UNK A   0     -13.261   8.043  72.694  1.00  0.00     0.000 HD 
HETATM    4  H1  UNK A   0     -14.198   9.177  73.689  1.00  0.00     0.000 HD 
HETATM    5  N   UNK A   0     -12.425   9.803  71.066  1.00  0.00    -0.323 NA 
HETATM    6  C   UNK A   0     -12.000  10.842  70.350  1.00  0.00    -0.357 A  
HETATM    7  N   UNK A   0     -11.133  10.606  69.359  1.00  0.00    -0.241 NA 
HETATM    8  C   UNK A   0     -10.617  11.666  68.694  1.00  0.00    -0.209 A  
HETATM    9  C   UNK A   0     -10.964  12.977  68.982  1.00  0.00    -0.196 A  
HETATM   10  H2  UNK A   0     -14.207  13.949  71.245  1.00  0.00     0.000 HD 
HETATM   11  N   UNK A   0     -11.880  13.237  69.940  1.00  0.00    -0.320 NA 
HETATM   12  H1  UNK A   0     -14.388  13.632  72.858  1.00  0.00     0.000 HD 
HETATM   13  C   UNK A   0     -12.380  12.160  70.622  1.00  0.00    -0.295 A  
HETATM   14  C   UNK A   0     -13.242  12.283  71.704  1.00  0.00    -0.257 A  
HETATM   15  N   UNK A   0     -13.755  13.542  72.063  1.00  0.00    -0.472 NA 
HETATM   16  N   UNK A   0     -13.668  11.252  72.448  1.00  0.00     0.190 NA 
ENDROOT
BRANCH   9  17
HETATM   17  C   UNK A   0     -10.258  14.153  68.351  1.00  0.00    -0.247 C  
HETATM   18  C   UNK A   0      -9.921  12.836  66.195  1.00  0.00    -0.272 A  
HETATM   19  C   UNK A   0      -8.643  12.312  66.459  1.00  0.00    -0.039 A  
HETATM   20  C   UNK A   0     -10.822  12.068  65.443  1.00  0.00    -0.336 A  
HETATM   21  C   UNK A   0     -10.376  14.168  66.800  1.00  0.00    -0.274 C  
HETATM   22  C   UNK A   0     -10.500  10.762  65.069  1.00  0.00    -0.307 A  
HETATM   23  C   UNK A   0      -8.318  11.005  66.083  1.00  0.00    -0.163 A  
HETATM   24  C   UNK A   0      -9.600  15.332  66.155  1.00  0.00    -0.353 C  
HETATM   25  C   UNK A   0      -9.272  10.211  65.442  1.00  0.00    -0.249 A  
BRANCH  24  26
HETATM   26  C   UNK A   0     -10.042  16.664  66.609  1.00  0.00    -0.305 C  
HETATM   27  C   UNK A   0     -10.331  17.767  66.987  1.00  0.00    -0.344 C  
ENDBRANCH  24  26
BRANCH  25  28
HETATM   28  C   UNK A   0      -8.975   8.778  65.193  1.00  0.00    -0.100 C  
HETATM   29  O   UNK A   0      -8.269   8.432  64.254  1.00  0.00    -0.159 OA 
ATOM     30  N   GLU A   1      -9.503   7.882  66.120  1.00  0.00    -0.383 N  
ATOM     31  H   GLU A   1     -10.152   8.206  66.838  1.00  0.00     0.000 HD 
BRANCH  30  32
ATOM     32  CA  GLU A   1      -9.113   6.458  66.054  1.00  0.00    -0.097 C  
ATOM     33  O   GLU A   1     -11.208   6.240  67.239  1.00  0.00    -0.332 OA 
ATOM     34  C   GLU A   1     -10.315   5.582  66.457  1.00  0.00    -0.256 C  
ATOM     35  OXT GLU A   1     -10.399   4.382  66.239  1.00  0.00    -0.235 OA 
BRANCH  32  36
ATOM     36  CB  GLU A   1      -7.927   6.185  66.996  1.00  0.00    -0.102 C  
BRANCH  36  37
ATOM     37  CG  GLU A   1      -8.060   6.883  68.355  1.00  0.00    -0.120 C  
ATOM     38  CD  GLU A   1      -8.380   5.925  69.476  1.00  0.00    -0.114 C  
ATOM     39  OE2 GLU A   1      -8.533   4.722  69.353  1.00  0.00    -0.082 OA 
ATOM     40  OE1 GLU A   1      -8.473   6.551  70.672  1.00  0.00    -0.131 OA 
ENDBRANCH  36  37
ENDBRANCH  32  36
ENDBRANCH  30  32
ENDBRANCH  25  28
ENDBRANCH   9  17
TORSDOF 6
ENDMDL
MODEL       62
REMARK 921   NORMALIZED FREE ENERGY PREDICTED BY IDOCK:   -5.57 KCAL/MOL
REMARK 922        TOTAL FREE ENERGY PREDICTED BY IDOCK:   -8.93 KCAL/MOL
REMARK 923 INTER-LIGAND FREE ENERGY PREDICTED BY IDOCK:   -7.79 KCAL/MOL
REMARK 924 INTRA-LIGAND FREE ENERGY PREDICTED BY IDOCK:   -1.14 KCAL/MOL
REMARK 927      BINDING AFFINITY PREDICTED BY RF-SCORE:    0.00 PKD
ROOT
HETATM    1  N   UNK A   0     -12.888  11.946  63.445  1.00  0.00    -0.784 NA 
HETATM    2  C   UNK A   0     -12.476  12.889  64.356  1.00  0.00    -0.375 A  
HETATM    3  H2  UNK A   0     -12.920  12.157  62.448  1.00  0.00     0.000 HD 
HETATM    4  H1  UNK A   0     -13.160  11.029  63.800  1.00  0.00     0.000 HD 
HETATM    5  N   UNK A   0     -12.122  14.084  63.894  1.00  0.00    -0.507 NA 
HETATM    6  C   UNK A   0     -11.642  14.968  64.766  1.00  0.00    -0.395 A  
HETATM    7  N   UNK A   0     -11.205  16.141  64.292  1.00  0.00    -0.692 NA 
HETATM    8  C   UNK A   0     -10.621  17.003  65.156  1.00  0.00    -0.015 A  
HETATM    9  C   UNK A   0     -10.475  16.732  66.508  1.00  0.00    -0.258 A  
HETATM   10  H2  UNK A   0     -12.498  13.735  68.382  1.00  0.00     0.000 HD 
HETATM   11  N   UNK A   0     -10.959  15.579  67.020  1.00  0.00    -0.311 NA 
HETATM   12  H1  UNK A   0     -12.286  12.116  68.116  1.00  0.00     0.000 HD 
HETATM   13  C   UNK A   0     -11.528  14.703  66.134  1.00  0.00    -0.339 A  
HETATM   14  C   UNK A   0     -11.966  13.436  66.498  1.00  0.00    -0.400 A  
HETATM   15  N   UNK A   0     -11.966  13.046  67.849  1.00  0.00    -0.333 NA 
HETATM   16  N   UNK A   0     -12.436  12.526  65.634  1.00  0.00    -0.611 NA 
ENDROOT
BRANCH   9  17
HETATM   17  C   UNK A   0      -9.675  17.624  67.426  1.00  0.00    -0.283 C  
HETATM   18  C   UNK A   0      -8.016  15.738  67.864  1.00  0.00    -0.147 A  
HETATM   19  C   UNK A   0      -8.599  15.201  69.025  1.00  0.00    -0.219 A  
HETATM   20  C   UNK A   0      -7.362  14.872  66.976  1.00  0.00     0.115 A  
HETATM   21  C   UNK A   0      -8.174  17.219  67.505  1.00  0.00    -0.204 C  
HETATM   22  C   UNK A   0      -7.396  13.491  67.179  1.00  0.00     0.117 A  
HETATM   23  C   UNK A   0      -8.633  13.819  69.232  1.00  0.00     0.566 A  
HETATM   24  C   UNK A   0      -7.374  18.090  68.492  1.00  0.00    -0.276 C  
HETATM   25  C   UNK A   0      -8.083  12.962  68.274  1.00  0.00    -0.151 A  
BRANCH  24  26
HETATM   26  C   UNK A   0      -7.391  19.528  68.164  1.00  0.00    -0.334 C  
HETATM   27  C   UNK A   0      -7.374  20.712  67.962  1.00  0.00    -0.151 C  
ENDBRANCH  24  26
BRANCH  25  28
HETATM   28  C   UNK A   0      -8.266  11.497  68.421  1.00  0.00    -0.152 C  
HETATM   29  O   UNK A   0      -8.941  11.032  69.332  1.00  0.00     0.012 OA 
ATOM     30  N   GLU A   1      -7.673  10.711  67.436  1.00  0.00    -0.104 N  
ATOM     31  H   GLU A   1      -7.053  11.134  66.744  1.00  0.00     0.000 HD 
BRANCH  30  32
ATOM     32  CA  GLU A   1      -7.950   9.260  67.402  1.00  0.00    -0.106 C  
ATOM     33  O   GLU A   1      -5.805   9.280  66.286  1.00  0.00    -0.055 OA 
ATOM     34  C   GLU A   1      -6.668   8.508  66.993  1.00  0.00    -0.062 C  
ATOM     35  OXT GLU A   1      -6.497   7.306  67.142  1.00  0.00    -0.054 OA 
BRANCH  32  36
ATOM     36  CB  GLU A   1      -9.077   8.956  66.400  1.00  0.00    -0.217 C  
BRANCH  36  37
ATOM     37  CG  GLU A   1     -10.288   8.266  67.040  1.00  0.00    -0.393 C  
ATOM     38  CD  GLU A   1     -10.177   6.761  67.028  1.00  0.00    -0.237 C  
ATOM     39  OE2 GLU A   1      -9.247   6.126  66.562  1.00  0.00    -0.142 OA 
ATOM     40  OE1 GLU A   1     -11.242   6.166  67.615  1.00  0.00    -0.294 OA 
ENDBRANCH  36  37
ENDBRANCH  32  36
ENDBRANCH  30  32
ENDBRANCH  25  28
ENDBRANCH   9  17
TORSDOF 6
ENDMDL
MODEL       63
REMARK 921   NORMALIZED FREE ENERGY PREDICTED BY IDOCK:   -5.51 KCAL/MOL
REMARK 922        TOTAL FREE ENERGY PREDICTED BY IDOCK:   -8.85 KCAL/MOL
REMARK 923 INTER-LIGAND FREE ENERGY PREDICTED BY IDOCK:   -7.52 KCAL/MOL
REMARK 924 INTRA-LIGAND FREE ENERGY PREDICTED BY IDOCK:   -1.33 KCAL/MOL
REMARK 927      BINDING AFFINITY PREDICTED BY RF-SCORE:    0.00 PKD
ROOT
HETATM    1  N   UNK A   0     -10.550  17.942  67.748  1.00  0.00    -0.404 NA 
HETATM    2  C   UNK A   0     -10.756  16.705  68.309  1.00  0.00    -0.351 A  
HETATM    3  H2  UNK A   0     -10.457  18.054  66.739  1.00  0.00     0.000 HD 
HETATM    4  H1  UNK A   0     -10.493  18.745  68.375  1.00  0.00     0.000 HD 
HETATM    5  N   UNK A   0     -10.831  15.659  67.492  1.00  0.00    -0.313 NA 
HETATM    6  C   UNK A   0     -11.116  14.473  68.026  1.00  0.00    -0.276 A  
HETATM    7  N   UNK A   0     -11.275  13.435  67.197  1.00  0.00    -0.293 NA 
HETATM    8  C   UNK A   0     -11.666  12.251  67.723  1.00  0.00    -0.337 A  
HETATM    9  C   UNK A   0     -11.888  12.065  69.079  1.00  0.00    -0.315 A  
HETATM   10  H2  UNK A   0     -10.607  14.707  71.901  1.00  0.00     0.000 HD 
HETATM   11  N   UNK A   0     -11.679  13.083  69.942  1.00  0.00    -0.289 NA 
HETATM   12  H1  UNK A   0     -11.167  16.249  72.103  1.00  0.00     0.000 HD 
HETATM   13  C   UNK A   0     -11.305  14.283  69.399  1.00  0.00    -0.282 A  
HETATM   14  C   UNK A   0     -11.164  15.443  70.150  1.00  0.00    -0.302 A  
HETATM   15  N   UNK A   0     -11.270  15.398  71.551  1.00  0.00    -0.380 NA 
HETATM   16  N   UNK A   0     -10.894  16.648  69.629  1.00  0.00    -0.334 NA 
ENDROOT
BRANCH   9  17
HETATM   17  C   UNK A   0     -12.485  10.792  69.629  1.00  0.00    -0.166 C  
HETATM   18  C   UNK A   0     -10.236   9.611  69.425  1.00  0.00    -0.220 A  
HETATM   19  C   UNK A   0     -10.403   9.044  68.150  1.00  0.00    -0.262 A  
HETATM   20  C   UNK A   0      -8.952  10.015  69.820  1.00  0.00    -0.209 A  
HETATM   21  C   UNK A   0     -11.435   9.888  70.337  1.00  0.00    -0.372 C  
HETATM   22  C   UNK A   0      -7.887   9.969  68.919  1.00  0.00    -0.095 A  
HETATM   23  C   UNK A   0      -9.337   8.994  67.247  1.00  0.00    -0.172 A  
HETATM   24  C   UNK A   0     -12.034   8.561  70.841  1.00  0.00    -0.204 C  
HETATM   25  C   UNK A   0      -8.093   9.515  67.614  1.00  0.00    -0.110 A  
BRANCH  24  26
HETATM   26  C   UNK A   0     -13.136   8.735  71.804  1.00  0.00    -0.406 C  
HETATM   27  C   UNK A   0     -14.011   8.945  72.600  1.00  0.00    -0.374 C  
ENDBRANCH  24  26
BRANCH  25  28
HETATM   28  C   UNK A   0      -7.016   9.606  66.597  1.00  0.00    -0.085 C  
HETATM   29  O   UNK A   0      -5.906  10.034  66.888  1.00  0.00    -0.050 OA 
ATOM     30  N   GLU A   1      -7.339   9.126  65.330  1.00  0.00    -0.091 N  
ATOM     31  H   GLU A   1      -8.298   8.856  65.111  1.00  0.00     0.000 HD 
BRANCH  30  32
ATOM     32  CA  GLU A   1      -6.279   9.014  64.307  1.00  0.00    -0.071 C  
ATOM     33  O   GLU A   1      -7.814  10.463  63.129  1.00  0.00    -0.151 OA 
ATOM     34  C   GLU A   1      -6.518  10.069  63.209  1.00  0.00    -0.134 C  
ATOM     35  OXT GLU A   1      -5.680  10.412  62.387  1.00  0.00    -0.107 OA 
BRANCH  32  36
ATOM     36  CB  GLU A   1      -6.283   7.605  63.687  1.00  0.00    -0.054 C  
BRANCH  36  37
ATOM     37  CG  GLU A   1      -6.005   6.493  64.706  1.00  0.00    -0.034 C  
ATOM     38  CD  GLU A   1      -7.263   5.953  65.340  1.00  0.00    -0.074 C  
ATOM     39  OE2 GLU A   1      -8.394   6.339  65.100  1.00  0.00    -0.142 OA 
ATOM     40  OE1 GLU A   1      -7.005   4.960  66.221  1.00  0.00    -0.063 OA 
ENDBRANCH  36  37
ENDBRANCH  32  36
ENDBRANCH  30  32
ENDBRANCH  25  28
ENDBRANCH   9  17
TORSDOF 6
ENDMDL
MODEL       64
REMARK 921   NORMALIZED FREE ENERGY PREDICTED BY IDOCK:   -5.50 KCAL/MOL
REMARK 922        TOTAL FREE ENERGY PREDICTED BY IDOCK:   -8.84 KCAL/MOL
REMARK 923 INTER-LIGAND FREE ENERGY PREDICTED BY IDOCK:   -7.90 KCAL/MOL
REMARK 924 INTRA-LIGAND FREE ENERGY PREDICTED BY IDOCK:   -0.94 KCAL/MOL
REMARK 927      BINDING AFFINITY PREDICTED BY RF-SCORE:    0.00 PKD
ROOT
HETATM    1  N   UNK A   0     -12.677  14.971  72.247  1.00  0.00    -0.321 NA 
HETATM    2  C   UNK A   0     -12.048  14.676  71.062  1.00  0.00    -0.329 A  
HETATM    3  H2  UNK A   0     -13.477  14.427  72.568  1.00  0.00     0.000 HD 
HETATM    4  H1  UNK A   0     -12.316  15.751  72.795  1.00  0.00     0.000 HD 
HETATM    5  N   UNK A   0     -12.518  13.658  70.347  1.00  0.00    -0.318 NA 
HETATM    6  C   UNK A   0     -11.857  13.318  69.243  1.00  0.00    -0.331 A  
HETATM    7  N   UNK A   0     -12.278  12.242  68.568  1.00  0.00    -0.186 NA 
HETATM    8  C   UNK A   0     -11.551  11.829  67.503  1.00  0.00    -0.291 A  
HETATM    9  C   UNK A   0     -10.406  12.483  67.074  1.00  0.00    -0.224 A  
HETATM   10  H2  UNK A   0      -9.423  16.238  68.307  1.00  0.00     0.000 HD 
HETATM   11  N   UNK A   0      -9.993  13.604  67.705  1.00  0.00    -0.230 NA 
HETATM   12  H1  UNK A   0      -8.994  16.667  69.846  1.00  0.00     0.000 HD 
HETATM   13  C   UNK A   0     -10.723  14.002  68.794  1.00  0.00    -0.259 A  
HETATM   14  C   UNK A   0     -10.353  15.068  69.605  1.00  0.00    -0.187 A  
HETATM   15  N   UNK A   0      -9.265  15.884  69.250  1.00  0.00    -0.252 NA 
HETATM   16  N   UNK A   0     -10.995  15.415  70.729  1.00  0.00    -0.331 NA 
ENDROOT
BRANCH   9  17
HETATM   17  C   UNK A   0      -9.513  11.918  65.996  1.00  0.00    -0.241 C  
HETATM   18  C   UNK A   0      -9.379   9.691  67.228  1.00  0.00    -0.163 A  
HETATM   19  C   UNK A   0      -8.206   9.922  67.968  1.00  0.00    -0.113 A  
HETATM   20  C   UNK A   0     -10.388   8.899  67.795  1.00  0.00    -0.301 A  
HETATM   21  C   UNK A   0      -9.615  10.370  65.875  1.00  0.00    -0.258 C  
HETATM   22  C   UNK A   0     -10.281   8.451  69.113  1.00  0.00    -0.217 A  
HETATM   23  C   UNK A   0      -8.095   9.473  69.287  1.00  0.00    -0.103 A  
HETATM   24  C   UNK A   0      -8.655   9.791  64.819  1.00  0.00    -0.195 C  
HETATM   25  C   UNK A   0      -9.162   8.789  69.877  1.00  0.00    -0.160 A  
BRANCH  24  26
HETATM   26  C   UNK A   0      -8.877  10.320  63.461  1.00  0.00    -0.232 C  
HETATM   27  C   UNK A   0      -9.023  10.813  62.375  1.00  0.00    -0.347 C  
ENDBRANCH  24  26
BRANCH  25  28
HETATM   28  C   UNK A   0      -9.101   8.459  71.323  1.00  0.00    -0.178 C  
HETATM   29  O   UNK A   0      -8.955   9.336  72.166  1.00  0.00    -0.197 OA 
ATOM     30  N   GLU A   1      -9.274   7.115  71.644  1.00  0.00    -0.145 N  
ATOM     31  H   GLU A   1      -9.310   6.410  70.908  1.00  0.00     0.000 HD 
BRANCH  30  32
ATOM     32  CA  GLU A   1      -9.404   6.721  73.063  1.00  0.00    -0.135 C  
ATOM     33  O   GLU A   1      -8.274   4.761  72.209  1.00  0.00    -0.110 OA 
ATOM     34  C   GLU A   1      -8.522   5.485  73.330  1.00  0.00    -0.117 C  
ATOM     35  OXT GLU A   1      -8.201   5.095  74.443  1.00  0.00    -0.101 OA 
BRANCH  32  36
ATOM     36  CB  GLU A   1     -10.872   6.397  73.393  1.00  0.00    -0.243 C  
BRANCH  36  37
ATOM     37  CG  GLU A   1     -11.731   6.139  72.149  1.00  0.00    -0.361 C  
ATOM     38  CD  GLU A   1     -12.639   7.298  71.816  1.00  0.00    -0.341 C  
ATOM     39  OE2 GLU A   1     -12.716   8.337  72.448  1.00  0.00    -0.312 OA 
ATOM     40  OE1 GLU A   1     -13.376   7.066  70.705  1.00  0.00    -0.071 OA 
ENDBRANCH  36  37
ENDBRANCH  32  36
ENDBRANCH  30  32
ENDBRANCH  25  28
ENDBRANCH   9  17
TORSDOF 6
ENDMDL
MODEL       65
REMARK 921   NORMALIZED FREE ENERGY PREDICTED BY IDOCK:   -5.48 KCAL/MOL
REMARK 922        TOTAL FREE ENERGY PREDICTED BY IDOCK:   -8.82 KCAL/MOL
REMARK 923 INTER-LIGAND FREE ENERGY PREDICTED BY IDOCK:   -7.55 KCAL/MOL
REMARK 924 INTRA-LIGAND FREE ENERGY PREDICTED BY IDOCK:   -1.26 KCAL/MOL
REMARK 927      BINDING AFFINITY PREDICTED BY RF-SCORE:    0.00 PKD
ROOT
HETATM    1  N   UNK A   0      -5.196   7.359  66.286  1.00  0.00    -0.023 NA 
HETATM    2  C   UNK A   0      -6.363   7.767  66.886  1.00  0.00    -0.054 A  
HETATM    3  H2  UNK A   0      -4.288   7.625  66.665  1.00  0.00     0.000 HD 
HETATM    4  H1  UNK A   0      -5.269   6.780  65.449  1.00  0.00     0.000 HD 
HETATM    5  N   UNK A   0      -6.268   8.520  67.977  1.00  0.00    -0.051 NA 
HETATM    6  C   UNK A   0      -7.396   8.845  68.607  1.00  0.00    -0.077 A  
HETATM    7  N   UNK A   0      -7.297   9.531  69.751  1.00  0.00    -0.080 NA 
HETATM    8  C   UNK A   0      -8.431   9.774  70.450  1.00  0.00    -0.058 A  
HETATM    9  C   UNK A   0      -9.683   9.361  70.022  1.00  0.00    -0.224 A  
HETATM   10  H2  UNK A   0     -10.406   8.113  66.213  1.00  0.00     0.000 HD 
HETATM   11  N   UNK A   0      -9.814   8.716  68.842  1.00  0.00    -0.174 NA 
HETATM   12  H1  UNK A   0      -9.805   6.738  65.519  1.00  0.00     0.000 HD 
HETATM   13  C   UNK A   0      -8.660   8.455  68.153  1.00  0.00    -0.139 A  
HETATM   14  C   UNK A   0      -8.629   7.704  66.984  1.00  0.00    -0.122 A  
HETATM   15  N   UNK A   0      -9.827   7.289  66.376  1.00  0.00    -0.114 NA 
HETATM   16  N   UNK A   0      -7.505   7.354  66.345  1.00  0.00    -0.082 NA 
ENDROOT
BRANCH   9  17
HETATM   17  C   UNK A   0     -10.913   9.489  70.889  1.00  0.00    -0.407 C  
HETATM   18  C   UNK A   0     -11.890  11.228  69.302  1.00  0.00    -0.423 A  
HETATM   19  C   UNK A   0     -11.418  12.391  69.937  1.00  0.00    -0.172 A  
HETATM   20  C   UNK A   0     -12.010  11.225  67.905  1.00  0.00    -0.080 A  
HETATM   21  C   UNK A   0     -12.169   9.946  70.093  1.00  0.00    -0.040 C  
HETATM   22  C   UNK A   0     -11.556  12.310  67.153  1.00  0.00    -0.423 A  
HETATM   23  C   UNK A   0     -10.964  13.479  69.186  1.00  0.00    -0.220 A  
HETATM   24  C   UNK A   0     -13.406  10.139  70.992  1.00  0.00    -0.333 C  
HETATM   25  C   UNK A   0     -10.978  13.410  67.790  1.00  0.00    -0.281 A  
BRANCH  24  26
HETATM   26  C   UNK A   0     -13.806   8.921  71.719  1.00  0.00    -0.465 C  
HETATM   27  C   UNK A   0     -14.112   7.889  72.254  1.00  0.00    -0.205 C  
ENDBRANCH  24  26
BRANCH  25  28
HETATM   28  C   UNK A   0     -10.346  14.499  67.004  1.00  0.00    -0.263 C  
HETATM   29  O   UNK A   0     -10.832  14.880  65.946  1.00  0.00    -0.315 OA 
ATOM     30  N   GLU A   1      -9.216  15.080  67.576  1.00  0.00    -0.185 N  
ATOM     31  H   GLU A   1      -8.800  14.677  68.416  1.00  0.00     0.000 HD 
BRANCH  30  32
ATOM     32  CA  GLU A   1      -8.627  16.284  66.953  1.00  0.00    -0.215 C  
ATOM     33  O   GLU A   1      -6.651  15.379  68.013  1.00  0.00    -0.121 OA 
ATOM     34  C   GLU A   1      -7.090  16.188  67.015  1.00  0.00    -0.213 C  
ATOM     35  OXT GLU A   1      -6.329  16.876  66.352  1.00  0.00    -0.236 OA 
BRANCH  32  36
ATOM     36  CB  GLU A   1      -9.102  17.550  67.687  1.00  0.00    -0.243 C  
BRANCH  36  37
ATOM     37  CG  GLU A   1     -10.299  18.230  67.010  1.00  0.00    -0.408 C  
ATOM     38  CD  GLU A   1      -9.891  19.371  66.110  1.00  0.00    -0.390 C  
ATOM     39  OE2 GLU A   1      -8.746  19.746  65.923  1.00  0.00    -0.369 OA 
ATOM     40  OE1 GLU A   1     -10.953  19.948  65.504  1.00  0.00    -0.350 OA 
ENDBRANCH  36  37
ENDBRANCH  32  36
ENDBRANCH  30  32
ENDBRANCH  25  28
ENDBRANCH   9  17
TORSDOF 6
ENDMDL
MODEL       66
REMARK 921   NORMALIZED FREE ENERGY PREDICTED BY IDOCK:   -5.48 KCAL/MOL
REMARK 922        TOTAL FREE ENERGY PREDICTED BY IDOCK:   -8.81 KCAL/MOL
REMARK 923 INTER-LIGAND FREE ENERGY PREDICTED BY IDOCK:   -7.63 KCAL/MOL
REMARK 924 INTRA-LIGAND FREE ENERGY PREDICTED BY IDOCK:   -1.18 KCAL/MOL
REMARK 927      BINDING AFFINITY PREDICTED BY RF-SCORE:    0.00 PKD
ROOT
HETATM    1  N   UNK A   0      -6.467  15.071  67.363  1.00  0.00    -0.310 NA 
HETATM    2  C   UNK A   0      -6.246  13.863  67.979  1.00  0.00    -0.142 A  
HETATM    3  H2  UNK A   0      -6.629  15.129  66.358  1.00  0.00     0.000 HD 
HETATM    4  H1  UNK A   0      -6.465  15.909  67.945  1.00  0.00     0.000 HD 
HETATM    5  N   UNK A   0      -6.249  12.771  67.221  1.00  0.00    -0.262 NA 
HETATM    6  C   UNK A   0      -6.120  11.594  67.828  1.00  0.00    -0.052 A  
HETATM    7  N   UNK A   0      -6.209  10.490  67.077  1.00  0.00    -0.063 NA 
HETATM    8  C   UNK A   0      -6.182   9.288  67.701  1.00  0.00    -0.058 A  
HETATM    9  C   UNK A   0      -6.049   9.155  69.074  1.00  0.00    -0.043 A  
HETATM   10  H2  UNK A   0      -4.838  12.214  71.474  1.00  0.00     0.000 HD 
HETATM   11  N   UNK A   0      -5.902  10.254  69.847  1.00  0.00    -0.046 NA 
HETATM   12  H1  UNK A   0      -5.689  13.601  71.773  1.00  0.00     0.000 HD 
HETATM   13  C   UNK A   0      -5.951  11.465  69.210  1.00  0.00    -0.059 A  
HETATM   14  C   UNK A   0      -5.927  12.678  69.887  1.00  0.00    -0.141 A  
HETATM   15  N   UNK A   0      -5.707  12.710  71.276  1.00  0.00    -0.354 NA 
HETATM   16  N   UNK A   0      -6.071  13.872  69.297  1.00  0.00    -0.093 NA 
ENDROOT
BRANCH   9  17
HETATM   17  C   UNK A   0      -6.191   7.823  69.771  1.00  0.00    -0.030 C  
HETATM   18  C   UNK A   0      -8.725   7.919  69.507  1.00  0.00    -0.134 A  
HETATM   19  C   UNK A   0      -9.050   8.509  70.740  1.00  0.00    -0.196 A  
HETATM   20  C   UNK A   0      -9.516   8.217  68.388  1.00  0.00    -0.146 A  
HETATM   21  C   UNK A   0      -7.473   7.051  69.344  1.00  0.00    -0.097 C  
HETATM   22  C   UNK A   0     -10.529   9.174  68.471  1.00  0.00    -0.238 A  
HETATM   23  C   UNK A   0     -10.065   9.466  70.827  1.00  0.00    -0.366 A  
HETATM   24  C   UNK A   0      -7.648   5.723  70.104  1.00  0.00    -0.086 C  
HETATM   25  C   UNK A   0     -10.763   9.842  69.675  1.00  0.00    -0.264 A  
BRANCH  24  26
HETATM   26  C   UNK A   0      -6.527   4.782  69.924  1.00  0.00    -0.035 C  
HETATM   27  C   UNK A   0      -5.568   4.073  69.789  1.00  0.00    -0.016 C  
ENDBRANCH  24  26
BRANCH  25  28
HETATM   28  C   UNK A   0     -11.724  10.971  69.745  1.00  0.00    -0.335 C  
HETATM   29  O   UNK A   0     -12.906  10.780  70.001  1.00  0.00    -0.230 OA 
ATOM     30  N   GLU A   1     -11.180  12.239  69.557  1.00  0.00    -0.457 N  
ATOM     31  H   GLU A   1     -10.208  12.345  69.265  1.00  0.00     0.000 HD 
BRANCH  30  32
ATOM     32  CA  GLU A   1     -12.025  13.430  69.783  1.00  0.00    -0.330 C  
ATOM     33  O   GLU A   1     -10.088  14.499  68.809  1.00  0.00    -0.233 OA 
ATOM     34  C   GLU A   1     -11.419  14.633  69.034  1.00  0.00    -0.291 C  
ATOM     35  OXT GLU A   1     -12.019  15.672  68.798  1.00  0.00    -0.348 OA 
BRANCH  32  36
ATOM     36  CB  GLU A   1     -12.115  13.742  71.287  1.00  0.00    -0.194 C  
BRANCH  36  37
ATOM     37  CG  GLU A   1     -13.193  14.779  71.628  1.00  0.00    -0.431 C  
ATOM     38  CD  GLU A   1     -13.059  15.322  73.030  1.00  0.00    -0.506 C  
ATOM     39  OE2 GLU A   1     -12.207  14.990  73.836  1.00  0.00    -0.533 OA 
ATOM     40  OE1 GLU A   1     -14.002  16.250  73.310  1.00  0.00    -0.511 OA 
ENDBRANCH  36  37
ENDBRANCH  32  36
ENDBRANCH  30  32
ENDBRANCH  25  28
ENDBRANCH   9  17
TORSDOF 6
ENDMDL
MODEL       67
REMARK 921   NORMALIZED FREE ENERGY PREDICTED BY IDOCK:   -5.39 KCAL/MOL
REMARK 922        TOTAL FREE ENERGY PREDICTED BY IDOCK:   -8.69 KCAL/MOL
REMARK 923 INTER-LIGAND FREE ENERGY PREDICTED BY IDOCK:   -7.73 KCAL/MOL
REMARK 924 INTRA-LIGAND FREE ENERGY PREDICTED BY IDOCK:   -0.97 KCAL/MOL
REMARK 927      BINDING AFFINITY PREDICTED BY RF-SCORE:    0.00 PKD
ROOT
HETATM    1  N   UNK A   0     -13.089  12.445  62.912  1.00  0.00    -0.284 NA 
HETATM    2  C   UNK A   0     -12.119  11.941  63.746  1.00  0.00    -0.443 A  
HETATM    3  H2  UNK A   0     -13.026  12.329  61.902  1.00  0.00     0.000 HD 
HETATM    4  H1  UNK A   0     -13.873  12.937  63.339  1.00  0.00     0.000 HD 
HETATM    5  N   UNK A   0     -11.097  11.299  63.191  1.00  0.00    -0.048 NA 
HETATM    6  C   UNK A   0     -10.203  10.737  64.002  1.00  0.00    -0.322 A  
HETATM    7  N   UNK A   0      -9.220  10.018  63.447  1.00  0.00    -0.275 NA 
HETATM    8  C   UNK A   0      -8.368   9.359  64.268  1.00  0.00    -0.173 A  
HETATM    9  C   UNK A   0      -8.460   9.414  65.650  1.00  0.00    -0.136 A  
HETATM   10  H2  UNK A   0     -10.700  12.201  67.598  1.00  0.00     0.000 HD 
HETATM   11  N   UNK A   0      -9.409  10.178  66.233  1.00  0.00    -0.166 NA 
HETATM   12  H1  UNK A   0     -12.350  12.307  67.565  1.00  0.00     0.000 HD 
HETATM   13  C   UNK A   0     -10.280  10.823  65.395  1.00  0.00    -0.276 A  
HETATM   14  C   UNK A   0     -11.371  11.552  65.853  1.00  0.00    -0.108 A  
HETATM   15  N   UNK A   0     -11.549  11.773  67.230  1.00  0.00    -0.531 NA 
HETATM   16  N   UNK A   0     -12.290  12.110  65.054  1.00  0.00    -0.451 NA 
ENDROOT
BRANCH   9  17
HETATM   17  C   UNK A   0      -7.614   8.543  66.548  1.00  0.00    -0.088 C  
HETATM   18  C   UNK A   0      -7.163  10.520  68.093  1.00  0.00    -0.087 A  
HETATM   19  C   UNK A   0      -5.958  10.969  67.525  1.00  0.00    -0.046 A  
HETATM   20  C   UNK A   0      -8.038  11.464  68.648  1.00  0.00    -0.141 A  
HETATM   21  C   UNK A   0      -7.578   9.047  68.020  1.00  0.00    -0.092 C  
HETATM   22  C   UNK A   0      -7.776  12.830  68.530  1.00  0.00    -0.113 A  
HETATM   23  C   UNK A   0      -5.691  12.336  67.407  1.00  0.00    -0.139 A  
HETATM   24  C   UNK A   0      -6.662   8.195  68.918  1.00  0.00    -0.049 C  
HETATM   25  C   UNK A   0      -6.632  13.266  67.857  1.00  0.00    -0.145 A  
BRANCH  24  26
HETATM   26  C   UNK A   0      -7.050   6.774  68.984  1.00  0.00    -0.089 C  
HETATM   27  C   UNK A   0      -7.433   5.636  69.013  1.00  0.00    -0.083 C  
ENDBRANCH  24  26
BRANCH  25  28
HETATM   28  C   UNK A   0      -6.415  14.709  67.582  1.00  0.00    -0.135 C  
HETATM   29  O   UNK A   0      -5.286  15.168  67.468  1.00  0.00    -0.321 OA 
ATOM     30  N   GLU A   1      -7.569  15.471  67.412  1.00  0.00    -0.182 N  
ATOM     31  H   GLU A   1      -8.486  15.065  67.597  1.00  0.00     0.000 HD 
BRANCH  30  32
ATOM     32  CA  GLU A   1      -7.449  16.874  66.962  1.00  0.00    -0.196 C  
ATOM     33  O   GLU A   1      -7.940  17.249  69.299  1.00  0.00    -0.083 OA 
ATOM     34  C   GLU A   1      -7.378  17.799  68.193  1.00  0.00    -0.238 C  
ATOM     35  OXT GLU A   1      -7.004  18.962  68.161  1.00  0.00    -0.234 OA 
BRANCH  32  36
ATOM     36  CB  GLU A   1      -8.656  17.258  66.088  1.00  0.00    -0.207 C  
BRANCH  36  37
ATOM     37  CG  GLU A   1      -9.575  16.073  65.768  1.00  0.00    -0.311 C  
ATOM     38  CD  GLU A   1     -10.795  16.476  64.978  1.00  0.00    -0.229 C  
ATOM     39  OE2 GLU A   1     -11.061  17.612  64.622  1.00  0.00    -0.906 OA 
ATOM     40  OE1 GLU A   1     -11.586  15.419  64.684  1.00  0.00    -0.399 OA 
ENDBRANCH  36  37
ENDBRANCH  32  36
ENDBRANCH  30  32
ENDBRANCH  25  28
ENDBRANCH   9  17
TORSDOF 6
ENDMDL
MODEL       68
REMARK 921   NORMALIZED FREE ENERGY PREDICTED BY IDOCK:   -5.39 KCAL/MOL
REMARK 922        TOTAL FREE ENERGY PREDICTED BY IDOCK:   -8.69 KCAL/MOL
REMARK 923 INTER-LIGAND FREE ENERGY PREDICTED BY IDOCK:   -7.49 KCAL/MOL
REMARK 924 INTRA-LIGAND FREE ENERGY PREDICTED BY IDOCK:   -1.20 KCAL/MOL
REMARK 927      BINDING AFFINITY PREDICTED BY RF-SCORE:    0.00 PKD
ROOT
HETATM    1  N   UNK A   0      -6.892  15.940  68.063  1.00  0.00    -0.117 NA 
HETATM    2  C   UNK A   0      -6.986  14.570  68.015  1.00  0.00    -0.141 A  
HETATM    3  H2  UNK A   0      -6.079  16.426  67.686  1.00  0.00     0.000 HD 
HETATM    4  H1  UNK A   0      -7.663  16.455  68.489  1.00  0.00     0.000 HD 
HETATM    5  N   UNK A   0      -5.981  13.900  67.460  1.00  0.00    -0.349 NA 
HETATM    6  C   UNK A   0      -6.109  12.580  67.336  1.00  0.00    -0.155 A  
HETATM    7  N   UNK A   0      -5.137  11.914  66.703  1.00  0.00    -0.309 NA 
HETATM    8  C   UNK A   0      -5.309  10.590  66.481  1.00  0.00    -0.055 A  
HETATM    9  C   UNK A   0      -6.434   9.896  66.899  1.00  0.00    -0.066 A  
HETATM   10  H2  UNK A   0      -9.067  11.404  69.615  1.00  0.00     0.000 HD 
HETATM   11  N   UNK A   0      -7.402  10.535  67.591  1.00  0.00    -0.086 NA 
HETATM   12  H1  UNK A   0     -10.059  12.706  69.377  1.00  0.00     0.000 HD 
HETATM   13  C   UNK A   0      -7.230  11.879  67.791  1.00  0.00    -0.104 A  
HETATM   14  C   UNK A   0      -8.193  12.685  68.385  1.00  0.00    -0.129 A  
HETATM   15  N   UNK A   0      -9.352  12.114  68.941  1.00  0.00     0.105 NA 
HETATM   16  N   UNK A   0      -8.090  14.016  68.504  1.00  0.00    -0.142 NA 
ENDROOT
BRANCH   9  17
HETATM   17  C   UNK A   0      -6.690   8.462  66.500  1.00  0.00    -0.060 C  
HETATM   18  C   UNK A   0      -8.013   9.233  64.462  1.00  0.00    -0.128 A  
HETATM   19  C   UNK A   0      -9.302   9.223  65.024  1.00  0.00    -0.196 A  
HETATM   20  C   UNK A   0      -7.711  10.193  63.486  1.00  0.00    -0.144 A  
HETATM   21  C   UNK A   0      -6.916   8.292  64.970  1.00  0.00    -0.074 C  
HETATM   22  C   UNK A   0      -8.631  11.194  63.169  1.00  0.00     0.017 A  
HETATM   23  C   UNK A   0     -10.226  10.222  64.706  1.00  0.00    -0.238 A  
HETATM   24  C   UNK A   0      -7.241   6.839  64.574  1.00  0.00    -0.072 C  
HETATM   25  C   UNK A   0      -9.865  11.243  63.823  1.00  0.00    -0.361 A  
BRANCH  24  26
HETATM   26  C   UNK A   0      -6.187   5.874  64.939  1.00  0.00    -0.030 C  
HETATM   27  C   UNK A   0      -5.330   5.117  65.305  1.00  0.00    -0.013 C  
ENDBRANCH  24  26
BRANCH  25  28
HETATM   28  C   UNK A   0     -10.790  12.386  63.617  1.00  0.00    -0.462 C  
HETATM   29  O   UNK A   0     -11.735  12.303  62.843  1.00  0.00    -0.097 OA 
ATOM     30  N   GLU A   1     -10.539  13.514  64.395  1.00  0.00    -0.510 N  
ATOM     31  H   GLU A   1      -9.694  13.569  64.965  1.00  0.00     0.000 HD 
BRANCH  30  32
ATOM     32  CA  GLU A   1     -11.509  14.629  64.387  1.00  0.00    -0.263 C  
ATOM     33  O   GLU A   1      -9.691  15.694  65.572  1.00  0.00    -0.321 OA 
ATOM     34  C   GLU A   1     -10.796  15.925  64.820  1.00  0.00    -0.324 C  
ATOM     35  OXT GLU A   1     -11.246  17.049  64.650  1.00  0.00    -0.968 OA 
BRANCH  32  36
ATOM     36  CB  GLU A   1     -12.675  14.328  65.344  1.00  0.00    -0.385 C  
BRANCH  36  37
ATOM     37  CG  GLU A   1     -12.334  14.588  66.817  1.00  0.00    -0.111 C  
ATOM     38  CD  GLU A   1     -12.012  13.323  67.574  1.00  0.00    -0.324 C  
ATOM     39  OE2 GLU A   1     -12.021  12.198  67.104  1.00  0.00    -0.580 OA 
ATOM     40  OE1 GLU A   1     -11.693  13.568  68.865  1.00  0.00    -0.293 OA 
ENDBRANCH  36  37
ENDBRANCH  32  36
ENDBRANCH  30  32
ENDBRANCH  25  28
ENDBRANCH   9  17
TORSDOF 6
ENDMDL
MODEL       69
REMARK 921   NORMALIZED FREE ENERGY PREDICTED BY IDOCK:   -5.36 KCAL/MOL
REMARK 922        TOTAL FREE ENERGY PREDICTED BY IDOCK:   -8.65 KCAL/MOL
REMARK 923 INTER-LIGAND FREE ENERGY PREDICTED BY IDOCK:   -7.09 KCAL/MOL
REMARK 924 INTRA-LIGAND FREE ENERGY PREDICTED BY IDOCK:   -1.56 KCAL/MOL
REMARK 927      BINDING AFFINITY PREDICTED BY RF-SCORE:    0.00 PKD
ROOT
HETATM    1  N   UNK A   0     -11.510  12.637  63.074  1.00  0.00    -0.738 NA 
HETATM    2  C   UNK A   0     -10.596  11.702  63.498  1.00  0.00    -0.435 A  
HETATM    3  H2  UNK A   0     -12.396  12.765  63.561  1.00  0.00     0.000 HD 
HETATM    4  H1  UNK A   0     -11.271  13.198  62.257  1.00  0.00     0.000 HD 
HETATM    5  N   UNK A   0     -10.907  10.970  64.563  1.00  0.00    -0.268 NA 
HETATM    6  C   UNK A   0      -9.988  10.125  65.025  1.00  0.00    -0.305 A  
HETATM    7  N   UNK A   0     -10.266   9.450  66.146  1.00  0.00    -0.249 NA 
HETATM    8  C   UNK A   0      -9.298   8.668  66.679  1.00  0.00    -0.192 A  
HETATM    9  C   UNK A   0      -8.045   8.523  66.103  1.00  0.00    -0.105 A  
HETATM   10  H2  UNK A   0      -7.233   9.671  62.281  1.00  0.00     0.000 HD 
HETATM   11  N   UNK A   0      -7.760   9.150  64.941  1.00  0.00    -0.106 NA 
HETATM   12  H1  UNK A   0      -7.220  11.228  61.724  1.00  0.00     0.000 HD 
HETATM   13  C   UNK A   0      -8.738   9.957  64.421  1.00  0.00    -0.202 A  
HETATM   14  C   UNK A   0      -8.547  10.748  63.296  1.00  0.00    -0.107 A  
HETATM   15  N   UNK A   0      -7.360  10.646  62.550  1.00  0.00    -0.122 NA 
HETATM   16  N   UNK A   0      -9.453  11.617  62.825  1.00  0.00    -0.303 NA 
ENDROOT
BRANCH   9  17
HETATM   17  C   UNK A   0      -6.922   7.786  66.793  1.00  0.00    -0.072 C  
HETATM   18  C   UNK A   0      -6.459   9.810  68.271  1.00  0.00    -0.056 A  
HETATM   19  C   UNK A   0      -5.467  10.427  67.490  1.00  0.00    -0.040 A  
HETATM   20  C   UNK A   0      -7.332  10.619  69.013  1.00  0.00    -0.108 A  
HETATM   21  C   UNK A   0      -6.667   8.293  68.242  1.00  0.00    -0.065 C  
HETATM   22  C   UNK A   0      -7.295  12.008  68.882  1.00  0.00    -0.067 A  
HETATM   23  C   UNK A   0      -5.425  11.818  67.358  1.00  0.00    -0.094 A  
HETATM   24  C   UNK A   0      -5.480   7.584  68.921  1.00  0.00    -0.022 C  
HETATM   25  C   UNK A   0      -6.381  12.604  68.009  1.00  0.00    -0.093 A  
BRANCH  24  26
HETATM   26  C   UNK A   0      -5.641   6.122  69.023  1.00  0.00    -0.015 C  
HETATM   27  C   UNK A   0      -5.703   4.927  69.131  1.00  0.00    -0.016 C  
ENDBRANCH  24  26
BRANCH  25  28
HETATM   28  C   UNK A   0      -6.430  14.062  67.735  1.00  0.00    -0.170 C  
HETATM   29  O   UNK A   0      -5.412  14.692  67.480  1.00  0.00    -0.340 OA 
ATOM     30  N   GLU A   1      -7.700  14.634  67.734  1.00  0.00    -0.141 N  
ATOM     31  H   GLU A   1      -8.510  14.090  68.032  1.00  0.00     0.000 HD 
BRANCH  30  32
ATOM     32  CA  GLU A   1      -7.862  16.037  67.299  1.00  0.00    -0.181 C  
ATOM     33  O   GLU A   1      -9.108  16.119  69.369  1.00  0.00    -0.240 OA 
ATOM     34  C   GLU A   1      -8.427  16.870  68.466  1.00  0.00    -0.258 C  
ATOM     35  OXT GLU A   1      -8.412  18.091  68.514  1.00  0.00    -0.304 OA 
BRANCH  32  36
ATOM     36  CB  GLU A   1      -8.814  16.115  66.092  1.00  0.00    -0.367 C  
BRANCH  36  37
ATOM     37  CG  GLU A   1     -10.285  15.898  66.465  1.00  0.00    -0.297 C  
ATOM     38  CD  GLU A   1     -10.733  14.471  66.273  1.00  0.00    -0.309 C  
ATOM     39  OE2 GLU A   1     -10.034  13.562  65.859  1.00  0.00    -0.294 OA 
ATOM     40  OE1 GLU A   1     -12.027  14.289  66.625  1.00  0.00    -0.410 OA 
ENDBRANCH  36  37
ENDBRANCH  32  36
ENDBRANCH  30  32
ENDBRANCH  25  28
ENDBRANCH   9  17
TORSDOF 6
ENDMDL
MODEL       70
REMARK 921   NORMALIZED FREE ENERGY PREDICTED BY IDOCK:   -5.36 KCAL/MOL
REMARK 922        TOTAL FREE ENERGY PREDICTED BY IDOCK:   -8.65 KCAL/MOL
REMARK 923 INTER-LIGAND FREE ENERGY PREDICTED BY IDOCK:   -7.50 KCAL/MOL
REMARK 924 INTRA-LIGAND FREE ENERGY PREDICTED BY IDOCK:   -1.15 KCAL/MOL
REMARK 927      BINDING AFFINITY PREDICTED BY RF-SCORE:    0.00 PKD
ROOT
HETATM    1  N   UNK A   0     -13.974   9.307  72.917  1.00  0.00    -1.002 NA 
HETATM    2  C   UNK A   0     -12.850   8.986  72.195  1.00  0.00    -0.410 A  
HETATM    3  H2  UNK A   0     -14.606  10.045  72.607  1.00  0.00     0.000 HD 
HETATM    4  H1  UNK A   0     -14.156   8.782  73.772  1.00  0.00     0.000 HD 
HETATM    5  N   UNK A   0     -12.613   9.669  71.080  1.00  0.00    -0.322 NA 
HETATM    6  C   UNK A   0     -11.571   9.301  70.336  1.00  0.00    -0.173 A  
HETATM    7  N   UNK A   0     -11.381   9.931  69.172  1.00  0.00    -0.105 NA 
HETATM    8  C   UNK A   0     -10.387   9.494  68.363  1.00  0.00    -0.206 A  
HETATM    9  C   UNK A   0      -9.552   8.439  68.699  1.00  0.00    -0.149 A  
HETATM   10  H2  UNK A   0      -9.276   6.969  72.486  1.00  0.00     0.000 HD 
HETATM   11  N   UNK A   0      -9.689   7.825  69.894  1.00  0.00    -0.175 NA 
HETATM   12  H1  UNK A   0     -10.475   6.173  73.301  1.00  0.00     0.000 HD 
HETATM   13  C   UNK A   0     -10.711   8.259  70.695  1.00  0.00    -0.220 A  
HETATM   14  C   UNK A   0     -11.041   7.648  71.899  1.00  0.00    -0.249 A  
HETATM   15  N   UNK A   0     -10.233   6.621  72.418  1.00  0.00    -0.179 NA 
HETATM   16  N   UNK A   0     -12.093   7.993  72.653  1.00  0.00    -0.292 NA 
ENDROOT
BRANCH   9  17
HETATM   17  C   UNK A   0      -8.562   7.854  67.720  1.00  0.00    -0.128 C  
HETATM   18  C   UNK A   0      -7.033   9.873  68.010  1.00  0.00    -0.077 A  
HETATM   19  C   UNK A   0      -7.504  10.657  66.943  1.00  0.00    -0.115 A  
HETATM   20  C   UNK A   0      -6.580  10.517  69.171  1.00  0.00    -0.057 A  
HETATM   21  C   UNK A   0      -7.105   8.343  67.968  1.00  0.00    -0.086 C  
HETATM   22  C   UNK A   0      -6.708  11.900  69.310  1.00  0.00    -0.099 A  
HETATM   23  C   UNK A   0      -7.631  12.043  67.079  1.00  0.00    -0.111 A  
HETATM   24  C   UNK A   0      -6.109   7.796  66.928  1.00  0.00    -0.052 C  
HETATM   25  C   UNK A   0      -7.289  12.654  68.288  1.00  0.00    -0.116 A  
BRANCH  24  26
HETATM   26  C   UNK A   0      -6.042   6.324  66.887  1.00  0.00    -0.025 C  
HETATM   27  C   UNK A   0      -5.917   5.129  66.871  1.00  0.00    -0.026 C  
ENDBRANCH  24  26
BRANCH  25  28
HETATM   28  C   UNK A   0      -7.580  14.097  68.479  1.00  0.00    -0.129 C  
HETATM   29  O   UNK A   0      -6.848  14.805  69.159  1.00  0.00    -0.114 OA 
ATOM     30  N   GLU A   1      -8.692  14.585  67.796  1.00  0.00    -0.166 N  
ATOM     31  H   GLU A   1      -9.319  13.944  67.309  1.00  0.00     0.000 HD 
BRANCH  30  32
ATOM     32  CA  GLU A   1      -8.954  16.040  67.785  1.00  0.00    -0.188 C  
ATOM     33  O   GLU A   1     -11.227  15.229  67.919  1.00  0.00    -0.309 OA 
ATOM     34  C   GLU A   1     -10.425  16.294  68.169  1.00  0.00    -0.289 C  
ATOM     35  OXT GLU A   1     -10.870  17.379  68.515  1.00  0.00    -0.308 OA 
BRANCH  32  36
ATOM     36  CB  GLU A   1      -8.669  16.622  66.389  1.00  0.00    -0.345 C  
BRANCH  36  37
ATOM     37  CG  GLU A   1      -7.664  17.780  66.409  1.00  0.00    -0.318 C  
ATOM     38  CD  GLU A   1      -8.304  19.115  66.118  1.00  0.00    -0.244 C  
ATOM     39  OE2 GLU A   1      -9.486  19.293  65.880  1.00  0.00    -0.429 OA 
ATOM     40  OE1 GLU A   1      -7.410  20.129  66.159  1.00  0.00    -0.282 OA 
ENDBRANCH  36  37
ENDBRANCH  32  36
ENDBRANCH  30  32
ENDBRANCH  25  28
ENDBRANCH   9  17
TORSDOF 6
ENDMDL
MODEL       71
REMARK 921   NORMALIZED FREE ENERGY PREDICTED BY IDOCK:   -5.31 KCAL/MOL
REMARK 922        TOTAL FREE ENERGY PREDICTED BY IDOCK:   -8.59 KCAL/MOL
REMARK 923 INTER-LIGAND FREE ENERGY PREDICTED BY IDOCK:   -8.13 KCAL/MOL
REMARK 924 INTRA-LIGAND FREE ENERGY PREDICTED BY IDOCK:   -0.46 KCAL/MOL
REMARK 927      BINDING AFFINITY PREDICTED BY RF-SCORE:    0.00 PKD
ROOT
HETATM    1  N   UNK A   0      -6.840   7.698  62.545  1.00  0.00    -0.075 NA 
HETATM    2  C   UNK A   0      -7.441   8.680  63.295  1.00  0.00    -0.106 A  
HETATM    3  H2  UNK A   0      -7.228   7.409  61.647  1.00  0.00     0.000 HD 
HETATM    4  H1  UNK A   0      -5.992   7.269  62.916  1.00  0.00     0.000 HD 
HETATM    5  N   UNK A   0      -8.546   9.240  62.812  1.00  0.00    -0.214 NA 
HETATM    6  C   UNK A   0      -9.080  10.249  63.496  1.00  0.00    -0.264 A  
HETATM    7  N   UNK A   0     -10.142  10.869  62.969  1.00  0.00    -0.272 NA 
HETATM    8  C   UNK A   0     -10.627  11.961  63.607  1.00  0.00    -0.446 A  
HETATM    9  C   UNK A   0     -10.084  12.447  64.787  1.00  0.00    -0.236 A  
HETATM   10  H2  UNK A   0      -7.512  10.281  67.083  1.00  0.00     0.000 HD 
HETATM   11  N   UNK A   0      -9.048  11.804  65.367  1.00  0.00    -0.016 NA 
HETATM   12  H1  UNK A   0      -5.977   9.837  66.655  1.00  0.00     0.000 HD 
HETATM   13  C   UNK A   0      -8.550  10.715  64.704  1.00  0.00    -0.120 A  
HETATM   14  C   UNK A   0      -7.419  10.025  65.122  1.00  0.00    -0.139 A  
HETATM   15  N   UNK A   0      -6.808  10.343  66.348  1.00  0.00    -0.105 NA 
HETATM   16  N   UNK A   0      -6.856   9.018  64.440  1.00  0.00    -0.085 NA 
ENDROOT
BRANCH   9  17
HETATM   17  C   UNK A   0     -10.524  13.757  65.395  1.00  0.00    -0.342 C  
HETATM   18  C   UNK A   0     -10.324  12.774  67.738  1.00  0.00    -0.222 A  
HETATM   19  C   UNK A   0     -11.651  12.341  67.906  1.00  0.00    -0.416 A  
HETATM   20  C   UNK A   0      -9.293  12.032  68.332  1.00  0.00    -0.175 A  
HETATM   21  C   UNK A   0      -9.983  13.966  66.838  1.00  0.00    -0.264 C  
HETATM   22  C   UNK A   0      -9.569  10.823  68.973  1.00  0.00    -0.193 A  
HETATM   23  C   UNK A   0     -11.930  11.132  68.549  1.00  0.00    -0.250 A  
HETATM   24  C   UNK A   0     -10.487  15.273  67.480  1.00  0.00    -0.265 C  
HETATM   25  C   UNK A   0     -10.880  10.344  69.029  1.00  0.00    -0.273 A  
BRANCH  24  26
HETATM   26  C   UNK A   0     -10.117  16.485  66.727  1.00  0.00    -0.290 C  
HETATM   27  C   UNK A   0      -9.798  17.505  66.178  1.00  0.00    -0.256 C  
ENDBRANCH  24  26
BRANCH  25  28
HETATM   28  C   UNK A   0     -11.173   8.990  69.563  1.00  0.00     0.070 C  
HETATM   29  O   UNK A   0     -10.648   7.993  69.083  1.00  0.00    -0.219 OA 
ATOM     30  N   GLU A   1     -12.028   8.947  70.662  1.00  0.00    -0.471 N  
ATOM     31  H   GLU A   1     -12.506   9.792  70.976  1.00  0.00     0.000 HD 
BRANCH  30  32
ATOM     32  CA  GLU A   1     -12.236   7.665  71.367  1.00  0.00    -0.326 C  
ATOM     33  O   GLU A   1     -14.385   8.694  71.775  1.00  0.00    -0.418 OA 
ATOM     34  C   GLU A   1     -13.732   7.507  71.704  1.00  0.00    -0.377 C  
ATOM     35  OXT GLU A   1     -14.258   6.452  72.030  1.00  0.00    -0.059 OA 
BRANCH  32  36
ATOM     36  CB  GLU A   1     -11.402   7.626  72.660  1.00  0.00    -0.423 C  
BRANCH  36  37
ATOM     37  CG  GLU A   1     -10.209   6.666  72.583  1.00  0.00    -0.206 C  
ATOM     38  CD  GLU A   1     -10.555   5.267  73.031  1.00  0.00    -0.234 C  
ATOM     39  OE2 GLU A   1     -11.649   4.904  73.425  1.00  0.00    -0.313 OA 
ATOM     40  OE1 GLU A   1      -9.500   4.425  72.938  1.00  0.00    -0.128 OA 
ENDBRANCH  36  37
ENDBRANCH  32  36
ENDBRANCH  30  32
ENDBRANCH  25  28
ENDBRANCH   9  17
TORSDOF 6
ENDMDL
MODEL       72
REMARK 921   NORMALIZED FREE ENERGY PREDICTED BY IDOCK:   -5.30 KCAL/MOL
REMARK 922        TOTAL FREE ENERGY PREDICTED BY IDOCK:   -8.57 KCAL/MOL
REMARK 923 INTER-LIGAND FREE ENERGY PREDICTED BY IDOCK:   -7.34 KCAL/MOL
REMARK 924 INTRA-LIGAND FREE ENERGY PREDICTED BY IDOCK:   -1.23 KCAL/MOL
REMARK 927      BINDING AFFINITY PREDICTED BY RF-SCORE:    0.00 PKD
ROOT
HETATM    1  N   UNK A   0      -9.076   7.698  74.464  1.00  0.00    -0.408 NA 
HETATM    2  C   UNK A   0      -9.462   6.983  73.356  1.00  0.00    -0.178 A  
HETATM    3  H2  UNK A   0      -8.119   7.654  74.812  1.00  0.00     0.000 HD 
HETATM    4  H1  UNK A   0      -9.779   8.275  74.926  1.00  0.00     0.000 HD 
HETATM    5  N   UNK A   0      -8.546   6.232  72.754  1.00  0.00    -0.123 NA 
HETATM    6  C   UNK A   0      -8.897   5.607  71.631  1.00  0.00    -0.136 A  
HETATM    7  N   UNK A   0      -7.954   4.919  70.978  1.00  0.00    -0.089 NA 
HETATM    8  C   UNK A   0      -8.276   4.367  69.784  1.00  0.00    -0.062 A  
HETATM    9  C   UNK A   0      -9.540   4.469  69.224  1.00  0.00    -0.188 A  
HETATM   10  H2  UNK A   0     -12.801   5.657  71.354  1.00  0.00     0.000 HD 
HETATM   11  N   UNK A   0     -10.523   5.110  69.892  1.00  0.00    -0.281 NA 
HETATM   12  H1  UNK A   0     -13.046   7.169  71.980  1.00  0.00     0.000 HD 
HETATM   13  C   UNK A   0     -10.183   5.684  71.088  1.00  0.00    -0.220 A  
HETATM   14  C   UNK A   0     -11.058   6.468  71.828  1.00  0.00    -0.257 A  
HETATM   15  N   UNK A   0     -12.403   6.593  71.436  1.00  0.00    -0.339 NA 
HETATM   16  N   UNK A   0     -10.721   7.118  72.951  1.00  0.00    -0.274 NA 
ENDROOT
BRANCH   9  17
HETATM   17  C   UNK A   0      -9.839   3.997  67.821  1.00  0.00    -0.088 C  
HETATM   18  C   UNK A   0      -9.171   6.270  66.881  1.00  0.00    -0.138 A  
HETATM   19  C   UNK A   0     -10.438   6.878  66.861  1.00  0.00    -0.349 A  
HETATM   20  C   UNK A   0      -8.045   7.067  67.131  1.00  0.00    -0.118 A  
HETATM   21  C   UNK A   0      -9.013   4.753  66.741  1.00  0.00    -0.111 C  
HETATM   22  C   UNK A   0      -8.191   8.413  67.475  1.00  0.00    -0.125 A  
HETATM   23  C   UNK A   0     -10.588   8.225  67.203  1.00  0.00    -0.340 A  
HETATM   24  C   UNK A   0      -9.367   4.315  65.307  1.00  0.00    -0.165 C  
HETATM   25  C   UNK A   0      -9.467   8.975  67.570  1.00  0.00    -0.168 A  
BRANCH  24  26
HETATM   26  C   UNK A   0      -9.151   2.879  65.054  1.00  0.00    -0.147 C  
HETATM   27  C   UNK A   0      -9.048   1.700  64.846  1.00  0.00    -0.123 C  
ENDBRANCH  24  26
BRANCH  25  28
HETATM   28  C   UNK A   0      -9.653  10.354  68.086  1.00  0.00    -0.144 C  
HETATM   29  O   UNK A   0      -9.161  10.702  69.152  1.00  0.00    -0.188 OA 
ATOM     30  N   GLU A   1     -10.367  11.218  67.258  1.00  0.00    -0.194 N  
ATOM     31  H   GLU A   1     -10.828  10.864  66.420  1.00  0.00     0.000 HD 
BRANCH  30  32
ATOM     32  CA  GLU A   1     -10.450  12.651  67.607  1.00  0.00    -0.219 C  
ATOM     33  O   GLU A   1     -12.352  12.495  66.123  1.00  0.00    -0.596 OA 
ATOM     34  C   GLU A   1     -11.808  13.211  67.139  1.00  0.00    -0.369 C  
ATOM     35  OXT GLU A   1     -12.285  14.270  67.520  1.00  0.00    -0.354 OA 
BRANCH  32  36
ATOM     36  CB  GLU A   1      -9.304  13.431  66.937  1.00  0.00    -0.253 C  
BRANCH  36  37
ATOM     37  CG  GLU A   1      -8.804  14.613  67.776  1.00  0.00    -0.177 C  
ATOM     38  CD  GLU A   1      -7.709  14.225  68.739  1.00  0.00    -0.134 C  
ATOM     39  OE2 GLU A   1      -7.253  13.103  68.872  1.00  0.00    -0.101 OA 
ATOM     40  OE1 GLU A   1      -7.263  15.281  69.457  1.00  0.00    -0.180 OA 
ENDBRANCH  36  37
ENDBRANCH  32  36
ENDBRANCH  30  32
ENDBRANCH  25  28
ENDBRANCH   9  17
TORSDOF 6
ENDMDL
MODEL       73
REMARK 921   NORMALIZED FREE ENERGY PREDICTED BY IDOCK:   -5.27 KCAL/MOL
REMARK 922        TOTAL FREE ENERGY PREDICTED BY IDOCK:   -8.54 KCAL/MOL
REMARK 923 INTER-LIGAND FREE ENERGY PREDICTED BY IDOCK:   -7.50 KCAL/MOL
REMARK 924 INTRA-LIGAND FREE ENERGY PREDICTED BY IDOCK:   -1.04 KCAL/MOL
REMARK 927      BINDING AFFINITY PREDICTED BY RF-SCORE:    0.00 PKD
ROOT
HETATM    1  N   UNK A   0     -13.121  12.187  63.527  1.00  0.00    -0.732 NA 
HETATM    2  C   UNK A   0     -12.683  13.150  64.403  1.00  0.00    -0.163 A  
HETATM    3  H2  UNK A   0     -13.143  12.360  62.522  1.00  0.00     0.000 HD 
HETATM    4  H1  UNK A   0     -13.421  11.293  63.915  1.00  0.00     0.000 HD 
HETATM    5  N   UNK A   0     -12.290  14.315  63.898  1.00  0.00    -0.757 NA 
HETATM    6  C   UNK A   0     -11.786  15.217  64.738  1.00  0.00    -0.276 A  
HETATM    7  N   UNK A   0     -11.312  16.357  64.221  1.00  0.00    -0.942 NA 
HETATM    8  C   UNK A   0     -10.705  17.233  65.055  1.00  0.00     0.197 A  
HETATM    9  C   UNK A   0     -10.571  17.009  66.416  1.00  0.00    -0.172 A  
HETATM   10  H2  UNK A   0     -12.691  14.149  68.394  1.00  0.00     0.000 HD 
HETATM   11  N   UNK A   0     -11.092  15.892  66.970  1.00  0.00    -0.194 NA 
HETATM   12  H1  UNK A   0     -12.529  12.515  68.191  1.00  0.00     0.000 HD 
HETATM   13  C   UNK A   0     -11.685  15.001  66.116  1.00  0.00    -0.091 A  
HETATM   14  C   UNK A   0     -12.162  13.762  66.525  1.00  0.00    -0.430 A  
HETATM   15  N   UNK A   0     -12.178  13.425  67.890  1.00  0.00    -0.222 NA 
HETATM   16  N   UNK A   0     -12.658  12.835  65.695  1.00  0.00    -0.568 NA 
ENDROOT
BRANCH   9  17
HETATM   17  C   UNK A   0      -9.746  17.911  67.303  1.00  0.00    -0.289 C  
HETATM   18  C   UNK A   0      -8.143  15.995  67.812  1.00  0.00    -0.154 A  
HETATM   19  C   UNK A   0      -8.743  15.517  68.991  1.00  0.00    -0.235 A  
HETATM   20  C   UNK A   0      -7.513  15.080  66.958  1.00  0.00    -0.021 A  
HETATM   21  C   UNK A   0      -8.258  17.466  67.400  1.00  0.00    -0.212 C  
HETATM   22  C   UNK A   0      -7.587  13.708  67.210  1.00  0.00    -0.073 A  
HETATM   23  C   UNK A   0      -8.816  14.145  69.247  1.00  0.00     0.357 A  
HETATM   24  C   UNK A   0      -7.434  18.349  68.356  1.00  0.00    -0.300 C  
HETATM   25  C   UNK A   0      -8.290  13.239  68.322  1.00  0.00    -0.154 A  
BRANCH  24  26
HETATM   26  C   UNK A   0      -7.410  19.774  67.977  1.00  0.00    -0.324 C  
HETATM   27  C   UNK A   0      -7.359  20.949  67.733  1.00  0.00    -0.201 C  
ENDBRANCH  24  26
BRANCH  25  28
HETATM   28  C   UNK A   0      -8.515  11.786  68.522  1.00  0.00    -0.125 C  
HETATM   29  O   UNK A   0      -9.482  11.222  68.026  1.00  0.00    -0.162 OA 
ATOM     30  N   GLU A   1      -7.535  11.117  69.252  1.00  0.00    -0.259 N  
ATOM     31  H   GLU A   1      -6.791  11.640  69.715  1.00  0.00     0.000 HD 
BRANCH  30  32
ATOM     32  CA  GLU A   1      -7.584   9.643  69.350  1.00  0.00    -0.097 C  
ATOM     33  O   GLU A   1      -6.494  10.143  71.449  1.00  0.00    -0.315 OA 
ATOM     34  C   GLU A   1      -7.236   9.217  70.790  1.00  0.00    -0.121 C  
ATOM     35  OXT GLU A   1      -7.458   8.108  71.254  1.00  0.00    -0.063 OA 
BRANCH  32  36
ATOM     36  CB  GLU A   1      -6.589   9.010  68.362  1.00  0.00    -0.059 C  
BRANCH  36  37
ATOM     37  CG  GLU A   1      -7.263   8.416  67.119  1.00  0.00    -0.084 C  
ATOM     38  CD  GLU A   1      -7.320   6.908  67.149  1.00  0.00    -0.090 C  
ATOM     39  OE2 GLU A   1      -6.882   6.204  68.042  1.00  0.00    -0.062 OA 
ATOM     40  OE1 GLU A   1      -7.936   6.399  66.057  1.00  0.00    -0.106 OA 
ENDBRANCH  36  37
ENDBRANCH  32  36
ENDBRANCH  30  32
ENDBRANCH  25  28
ENDBRANCH   9  17
TORSDOF 6
ENDMDL
MODEL       74
REMARK 921   NORMALIZED FREE ENERGY PREDICTED BY IDOCK:   -5.26 KCAL/MOL
REMARK 922        TOTAL FREE ENERGY PREDICTED BY IDOCK:   -8.52 KCAL/MOL
REMARK 923 INTER-LIGAND FREE ENERGY PREDICTED BY IDOCK:   -7.47 KCAL/MOL
REMARK 924 INTRA-LIGAND FREE ENERGY PREDICTED BY IDOCK:   -1.05 KCAL/MOL
REMARK 927      BINDING AFFINITY PREDICTED BY RF-SCORE:    0.00 PKD
ROOT
HETATM    1  N   UNK A   0     -12.229  12.259  70.360  1.00  0.00    -0.329 NA 
HETATM    2  C   UNK A   0     -12.145  10.977  70.847  1.00  0.00    -0.339 A  
HETATM    3  H2  UNK A   0     -11.390  12.800  70.153  1.00  0.00     0.000 HD 
HETATM    4  H1  UNK A   0     -13.159  12.651  70.210  1.00  0.00     0.000 HD 
HETATM    5  N   UNK A   0     -10.934  10.466  71.041  1.00  0.00     0.056 NA 
HETATM    6  C   UNK A   0     -10.851   9.196  71.432  1.00  0.00    -0.349 A  
HETATM    7  N   UNK A   0      -9.633   8.655  71.546  1.00  0.00    -0.230 NA 
HETATM    8  C   UNK A   0      -9.544   7.337  71.842  1.00  0.00    -0.148 A  
HETATM    9  C   UNK A   0     -10.656   6.535  72.050  1.00  0.00    -0.217 A  
HETATM   10  H2  UNK A   0     -14.378   8.056  72.691  1.00  0.00     0.000 HD 
HETATM   11  N   UNK A   0     -11.894   7.072  71.996  1.00  0.00    -0.291 NA 
HETATM   12  H1  UNK A   0     -15.285   8.886  71.584  1.00  0.00     0.000 HD 
HETATM   13  C   UNK A   0     -11.975   8.400  71.674  1.00  0.00    -0.307 A  
HETATM   14  C   UNK A   0     -13.182   9.058  71.473  1.00  0.00    -0.334 A  
HETATM   15  N   UNK A   0     -14.399   8.403  71.732  1.00  0.00    -0.460 NA 
HETATM   16  N   UNK A   0     -13.286  10.330  71.064  1.00  0.00    -0.320 NA 
ENDROOT
BRANCH   9  17
HETATM   17  C   UNK A   0     -10.549   5.037  72.211  1.00  0.00    -0.269 C  
HETATM   18  C   UNK A   0      -8.950   4.906  70.230  1.00  0.00    -0.147 A  
HETATM   19  C   UNK A   0      -9.886   4.650  69.212  1.00  0.00    -0.260 A  
HETATM   20  C   UNK A   0      -7.812   5.665  69.923  1.00  0.00    -0.087 A  
HETATM   21  C   UNK A   0      -9.204   4.466  71.675  1.00  0.00    -0.186 C  
HETATM   22  C   UNK A   0      -7.672   6.256  68.666  1.00  0.00    -0.101 A  
HETATM   23  C   UNK A   0      -9.748   5.239  67.952  1.00  0.00    -0.174 A  
HETATM   24  C   UNK A   0      -9.125   2.931  71.781  1.00  0.00    -0.157 C  
HETATM   25  C   UNK A   0      -8.669   6.093  67.701  1.00  0.00    -0.105 A  
BRANCH  24  26
HETATM   26  C   UNK A   0      -9.263   2.423  73.158  1.00  0.00    -0.098 C  
HETATM   27  C   UNK A   0      -9.412   1.952  74.253  1.00  0.00    -0.093 C  
ENDBRANCH  24  26
BRANCH  25  28
HETATM   28  C   UNK A   0      -8.618   6.839  66.420  1.00  0.00    -0.130 C  
HETATM   29  O   UNK A   0      -8.527   6.252  65.349  1.00  0.00    -0.148 OA 
ATOM     30  N   GLU A   1      -8.736   8.224  66.522  1.00  0.00    -0.134 N  
ATOM     31  H   GLU A   1      -8.727   8.675  67.437  1.00  0.00     0.000 HD 
BRANCH  30  32
ATOM     32  CA  GLU A   1      -8.872   9.031  65.292  1.00  0.00    -0.193 C  
ATOM     33  O   GLU A   1      -6.703   9.800  66.030  1.00  0.00    -0.080 OA 
ATOM     34  C   GLU A   1      -7.512   9.670  64.949  1.00  0.00    -0.118 C  
ATOM     35  OXT GLU A   1      -7.233  10.157  63.863  1.00  0.00    -0.131 OA 
BRANCH  32  36
ATOM     36  CB  GLU A   1      -9.931  10.130  65.490  1.00  0.00    -0.363 C  
BRANCH  36  37
ATOM     37  CG  GLU A   1      -9.496  11.221  66.476  1.00  0.00    -0.213 C  
ATOM     38  CD  GLU A   1     -10.643  11.762  67.293  1.00  0.00    -0.224 C  
ATOM     39  OE2 GLU A   1     -11.804  11.403  67.202  1.00  0.00    -0.566 OA 
ATOM     40  OE1 GLU A   1     -10.242  12.708  68.173  1.00  0.00    -0.226 OA 
ENDBRANCH  36  37
ENDBRANCH  32  36
ENDBRANCH  30  32
ENDBRANCH  25  28
ENDBRANCH   9  17
TORSDOF 6
ENDMDL
MODEL       75
REMARK 921   NORMALIZED FREE ENERGY PREDICTED BY IDOCK:   -5.23 KCAL/MOL
REMARK 922        TOTAL FREE ENERGY PREDICTED BY IDOCK:   -8.48 KCAL/MOL
REMARK 923 INTER-LIGAND FREE ENERGY PREDICTED BY IDOCK:   -7.49 KCAL/MOL
REMARK 924 INTRA-LIGAND FREE ENERGY PREDICTED BY IDOCK:   -0.99 KCAL/MOL
REMARK 927      BINDING AFFINITY PREDICTED BY RF-SCORE:    0.00 PKD
ROOT
HETATM    1  N   UNK A   0      -7.241  18.452  65.472  1.00  0.00    -0.542 NA 
HETATM    2  C   UNK A   0      -7.876  17.461  66.182  1.00  0.00    -0.258 A  
HETATM    3  H2  UNK A   0      -7.580  18.743  64.556  1.00  0.00     0.000 HD 
HETATM    4  H1  UNK A   0      -6.420  18.886  65.893  1.00  0.00     0.000 HD 
HETATM    5  N   UNK A   0      -8.947  16.895  65.634  1.00  0.00    -0.416 NA 
HETATM    6  C   UNK A   0      -9.612  15.996  66.357  1.00  0.00    -0.283 A  
HETATM    7  N   UNK A   0     -10.737  15.488  65.842  1.00  0.00    -0.331 NA 
HETATM    8  C   UNK A   0     -11.474  14.653  66.612  1.00  0.00    -0.357 A  
HETATM    9  C   UNK A   0     -11.102  14.290  67.898  1.00  0.00    -0.278 A  
HETATM   10  H2  UNK A   0      -7.350  14.902  69.359  1.00  0.00     0.000 HD 
HETATM   11  N   UNK A   0      -9.942  14.746  68.418  1.00  0.00    -0.217 NA 
HETATM   12  H1  UNK A   0      -6.662  16.375  69.663  1.00  0.00     0.000 HD 
HETATM   13  C   UNK A   0      -9.215  15.607  67.640  1.00  0.00    -0.193 A  
HETATM   14  C   UNK A   0      -8.062  16.241  68.086  1.00  0.00    -0.158 A  
HETATM   15  N   UNK A   0      -7.508  15.909  69.336  1.00  0.00    -0.226 NA 
HETATM   16  N   UNK A   0      -7.387  17.160  67.381  1.00  0.00    -0.149 NA 
ENDROOT
BRANCH   9  17
HETATM   17  C   UNK A   0     -12.012  13.497  68.805  1.00  0.00    -0.374 C  
HETATM   18  C   UNK A   0     -10.360  11.556  68.820  1.00  0.00    -0.213 A  
HETATM   19  C   UNK A   0     -10.896  10.807  67.758  1.00  0.00    -0.320 A  
HETATM   20  C   UNK A   0      -8.973  11.539  69.024  1.00  0.00     0.135 A  
HETATM   21  C   UNK A   0     -11.244  12.465  69.680  1.00  0.00    -0.106 C  
HETATM   22  C   UNK A   0      -8.131  10.890  68.118  1.00  0.00    -0.119 A  
HETATM   23  C   UNK A   0     -10.056  10.154  66.851  1.00  0.00    -0.279 A  
HETATM   24  C   UNK A   0     -12.182  11.613  70.557  1.00  0.00    -0.451 C  
HETATM   25  C   UNK A   0      -8.670  10.249  66.999  1.00  0.00    -0.133 A  
BRANCH  24  26
HETATM   26  C   UNK A   0     -13.004  12.405  71.489  1.00  0.00    -0.385 C  
HETATM   27  C   UNK A   0     -13.614  13.063  72.289  1.00  0.00    -0.643 C  
ENDBRANCH  24  26
BRANCH  25  28
HETATM   28  C   UNK A   0      -7.787   9.692  65.944  1.00  0.00    -0.102 C  
HETATM   29  O   UNK A   0      -6.954  10.391  65.382  1.00  0.00    -0.138 OA 
ATOM     30  N   GLU A   1      -7.938   8.331  65.687  1.00  0.00    -0.106 N  
ATOM     31  H   GLU A   1      -8.699   7.807  66.119  1.00  0.00     0.000 HD 
BRANCH  30  32
ATOM     32  CA  GLU A   1      -6.985   7.656  64.782  1.00  0.00    -0.055 C  
ATOM     33  O   GLU A   1      -8.665   8.307  63.171  1.00  0.00     0.045 OA 
ATOM     34  C   GLU A   1      -7.359   7.973  63.321  1.00  0.00    -0.107 C  
ATOM     35  OXT GLU A   1      -6.617   7.797  62.365  1.00  0.00    -0.078 OA 
BRANCH  32  36
ATOM     36  CB  GLU A   1      -7.018   6.134  65.012  1.00  0.00    -0.055 C  
BRANCH  36  37
ATOM     37  CG  GLU A   1      -8.269   5.661  65.761  1.00  0.00    -0.122 C  
ATOM     38  CD  GLU A   1      -9.240   4.924  64.871  1.00  0.00    -0.077 C  
ATOM     39  OE2 GLU A   1      -9.085   4.716  63.680  1.00  0.00    -0.141 OA 
ATOM     40  OE1 GLU A   1     -10.329   4.495  65.548  1.00  0.00    -0.254 OA 
ENDBRANCH  36  37
ENDBRANCH  32  36
ENDBRANCH  30  32
ENDBRANCH  25  28
ENDBRANCH   9  17
TORSDOF 6
ENDMDL
MODEL       76
REMARK 921   NORMALIZED FREE ENERGY PREDICTED BY IDOCK:   -5.23 KCAL/MOL
REMARK 922        TOTAL FREE ENERGY PREDICTED BY IDOCK:   -8.47 KCAL/MOL
REMARK 923 INTER-LIGAND FREE ENERGY PREDICTED BY IDOCK:   -7.36 KCAL/MOL
REMARK 924 INTRA-LIGAND FREE ENERGY PREDICTED BY IDOCK:   -1.12 KCAL/MOL
REMARK 927      BINDING AFFINITY PREDICTED BY RF-SCORE:    0.00 PKD
ROOT
HETATM    1  N   UNK A   0      -5.132  16.414  68.468  1.00  0.00    -0.103 NA 
HETATM    2  C   UNK A   0      -5.292  15.189  69.069  1.00  0.00    -0.098 A  
HETATM    3  H2  UNK A   0      -4.989  16.493  67.462  1.00  0.00     0.000 HD 
HETATM    4  H1  UNK A   0      -5.161  17.242  69.063  1.00  0.00     0.000 HD 
HETATM    5  N   UNK A   0      -5.254  14.110  68.293  1.00  0.00    -0.105 NA 
HETATM    6  C   UNK A   0      -5.494  12.929  68.861  1.00  0.00    -0.071 A  
HETATM    7  N   UNK A   0      -5.540  11.852  68.069  1.00  0.00    -0.046 NA 
HETATM    8  C   UNK A   0      -5.886  10.666  68.622  1.00  0.00    -0.040 A  
HETATM    9  C   UNK A   0      -6.172  10.518  69.971  1.00  0.00    -0.102 A  
HETATM   10  H2  UNK A   0      -5.221  13.344  72.744  1.00  0.00     0.000 HD 
HETATM   11  N   UNK A   0      -6.077  11.580  70.800  1.00  0.00    -0.329 NA 
HETATM   12  H1  UNK A   0      -5.887  14.854  72.851  1.00  0.00     0.000 HD 
HETATM   13  C   UNK A   0      -5.748  12.780  70.228  1.00  0.00    -0.165 A  
HETATM   14  C   UNK A   0      -5.723  13.975  70.937  1.00  0.00    -0.207 A  
HETATM   15  N   UNK A   0      -5.906  13.977  72.331  1.00  0.00    -0.342 NA 
HETATM   16  N   UNK A   0      -5.500  15.174  70.381  1.00  0.00    -0.130 NA 
ENDROOT
BRANCH   9  17
HETATM   17  C   UNK A   0      -6.719   9.231  70.541  1.00  0.00    -0.078 C  
HETATM   18  C   UNK A   0      -8.616   9.245  68.839  1.00  0.00    -0.130 A  
HETATM   19  C   UNK A   0      -9.591   9.906  69.606  1.00  0.00    -0.249 A  
HETATM   20  C   UNK A   0      -8.597   9.449  67.452  1.00  0.00    -0.125 A  
HETATM   21  C   UNK A   0      -7.521   8.400  69.499  1.00  0.00    -0.088 C  
HETATM   22  C   UNK A   0      -9.451  10.383  66.861  1.00  0.00    -0.196 A  
HETATM   23  C   UNK A   0     -10.448  10.840  69.017  1.00  0.00    -0.239 A  
HETATM   24  C   UNK A   0      -8.132   7.121  70.100  1.00  0.00    -0.130 C  
HETATM   25  C   UNK A   0     -10.334  11.122  67.653  1.00  0.00    -0.223 A  
BRANCH  24  26
HETATM   26  C   UNK A   0      -7.134   6.199  70.674  1.00  0.00    -0.068 C  
HETATM   27  C   UNK A   0      -6.323   5.488  71.204  1.00  0.00    -0.035 C  
ENDBRANCH  24  26
BRANCH  25  28
HETATM   28  C   UNK A   0     -11.134  12.228  67.070  1.00  0.00    -0.287 C  
HETATM   29  O   UNK A   0     -12.142  12.002  66.414  1.00  0.00    -0.610 OA 
ATOM     30  N   GLU A   1     -10.691  13.515  67.368  1.00  0.00    -0.261 N  
ATOM     31  H   GLU A   1      -9.802  13.656  67.848  1.00  0.00     0.000 HD 
BRANCH  30  32
ATOM     32  CA  GLU A   1     -11.523  14.674  66.981  1.00  0.00    -0.368 C  
ATOM     33  O   GLU A   1      -9.572  15.114  65.622  1.00  0.00    -0.334 OA 
ATOM     34  C   GLU A   1     -10.902  15.354  65.744  1.00  0.00    -0.343 C  
ATOM     35  OXT GLU A   1     -11.490  16.152  65.029  1.00  0.00    -0.139 OA 
BRANCH  32  36
ATOM     36  CB  GLU A   1     -11.610  15.680  68.142  1.00  0.00    -0.290 C  
BRANCH  36  37
ATOM     37  CG  GLU A   1     -11.082  15.121  69.469  1.00  0.00    -0.287 C  
ATOM     38  CD  GLU A   1     -12.075  15.259  70.598  1.00  0.00    -0.354 C  
ATOM     39  OE2 GLU A   1     -13.181  15.763  70.505  1.00  0.00    -0.449 OA 
ATOM     40  OE1 GLU A   1     -11.605  14.744  71.757  1.00  0.00    -0.335 OA 
ENDBRANCH  36  37
ENDBRANCH  32  36
ENDBRANCH  30  32
ENDBRANCH  25  28
ENDBRANCH   9  17
TORSDOF 6
ENDMDL
MODEL       77
REMARK 921   NORMALIZED FREE ENERGY PREDICTED BY IDOCK:   -5.22 KCAL/MOL
REMARK 922        TOTAL FREE ENERGY PREDICTED BY IDOCK:   -8.47 KCAL/MOL
REMARK 923 INTER-LIGAND FREE ENERGY PREDICTED BY IDOCK:   -7.06 KCAL/MOL
REMARK 924 INTRA-LIGAND FREE ENERGY PREDICTED BY IDOCK:   -1.41 KCAL/MOL
REMARK 927      BINDING AFFINITY PREDICTED BY RF-SCORE:    0.00 PKD
ROOT
HETATM    1  N   UNK A   0      -6.476   6.947  64.086  1.00  0.00    -0.038 NA 
HETATM    2  C   UNK A   0      -6.897   6.596  65.346  1.00  0.00    -0.055 A  
HETATM    3  H2  UNK A   0      -5.991   7.828  63.919  1.00  0.00     0.000 HD 
HETATM    4  H1  UNK A   0      -6.666   6.297  63.324  1.00  0.00     0.000 HD 
HETATM    5  N   UNK A   0      -6.649   7.443  66.341  1.00  0.00    -0.052 NA 
HETATM    6  C   UNK A   0      -6.979   7.065  67.574  1.00  0.00    -0.079 A  
HETATM    7  N   UNK A   0      -6.654   7.879  68.585  1.00  0.00    -0.055 NA 
HETATM    8  C   UNK A   0      -6.893   7.456  69.849  1.00  0.00    -0.055 A  
HETATM    9  C   UNK A   0      -7.475   6.230  70.135  1.00  0.00    -0.094 A  
HETATM   10  H2  UNK A   0      -9.393   3.993  67.325  1.00  0.00     0.000 HD 
HETATM   11  N   UNK A   0      -7.862   5.416  69.129  1.00  0.00    -0.089 NA 
HETATM   12  H1  UNK A   0      -8.680   3.259  66.025  1.00  0.00     0.000 HD 
HETATM   13  C   UNK A   0      -7.597   5.843  67.856  1.00  0.00    -0.086 A  
HETATM   14  C   UNK A   0      -7.837   5.063  66.731  1.00  0.00    -0.100 A  
HETATM   15  N   UNK A   0      -8.504   3.831  66.851  1.00  0.00    -0.103 NA 
HETATM   16  N   UNK A   0      -7.498   5.418  65.484  1.00  0.00    -0.076 NA 
ENDROOT
BRANCH   9  17
HETATM   17  C   UNK A   0      -7.580   5.699  71.545  1.00  0.00    -0.105 C  
HETATM   18  C   UNK A   0     -10.000   6.486  71.695  1.00  0.00    -0.194 A  
HETATM   19  C   UNK A   0      -9.782   7.749  72.272  1.00  0.00    -0.241 A  
HETATM   20  C   UNK A   0     -11.068   6.328  70.801  1.00  0.00    -0.377 A  
HETATM   21  C   UNK A   0      -9.036   5.321  71.942  1.00  0.00    -0.146 C  
HETATM   22  C   UNK A   0     -11.824   7.431  70.399  1.00  0.00    -0.114 A  
HETATM   23  C   UNK A   0     -10.538   8.855  71.872  1.00  0.00    -0.419 A  
HETATM   24  C   UNK A   0      -9.150   4.841  73.401  1.00  0.00    -0.110 C  
HETATM   25  C   UNK A   0     -11.520   8.703  70.889  1.00  0.00    -0.315 A  
BRANCH  24  26
HETATM   26  C   UNK A   0      -8.325   3.657  73.704  1.00  0.00    -0.083 C  
HETATM   27  C   UNK A   0      -7.631   2.726  74.012  1.00  0.00    -0.051 C  
ENDBRANCH  24  26
BRANCH  25  28
HETATM   28  C   UNK A   0     -12.205   9.908  70.355  1.00  0.00    -0.114 C  
HETATM   29  O   UNK A   0     -13.250  10.311  70.848  1.00  0.00    -0.395 OA 
ATOM     30  N   GLU A   1     -11.553  10.560  69.312  1.00  0.00    -0.397 N  
ATOM     31  H   GLU A   1     -10.728  10.144  68.879  1.00  0.00     0.000 HD 
BRANCH  30  32
ATOM     32  CA  GLU A   1     -12.068  11.862  68.838  1.00  0.00    -0.155 C  
ATOM     33  O   GLU A   1     -10.703  11.261  66.936  1.00  0.00    -0.247 OA 
ATOM     34  C   GLU A   1     -11.757  12.016  67.336  1.00  0.00    -0.281 C  
ATOM     35  OXT GLU A   1     -12.286  12.839  66.603  1.00  0.00    -0.481 OA 
BRANCH  32  36
ATOM     36  CB  GLU A   1     -11.418  13.012  69.628  1.00  0.00    -0.253 C  
BRANCH  36  37
ATOM     37  CG  GLU A   1     -12.387  13.711  70.589  1.00  0.00    -0.440 C  
ATOM     38  CD  GLU A   1     -12.651  15.148  70.210  1.00  0.00    -0.326 C  
ATOM     39  OE2 GLU A   1     -12.159  15.727  69.257  1.00  0.00    -0.350 OA 
ATOM     40  OE1 GLU A   1     -13.523  15.746  71.054  1.00  0.00    -0.581 OA 
ENDBRANCH  36  37
ENDBRANCH  32  36
ENDBRANCH  30  32
ENDBRANCH  25  28
ENDBRANCH   9  17
TORSDOF 6
ENDMDL
MODEL       78
REMARK 921   NORMALIZED FREE ENERGY PREDICTED BY IDOCK:   -5.22 KCAL/MOL
REMARK 922        TOTAL FREE ENERGY PREDICTED BY IDOCK:   -8.47 KCAL/MOL
REMARK 923 INTER-LIGAND FREE ENERGY PREDICTED BY IDOCK:   -6.77 KCAL/MOL
REMARK 924 INTRA-LIGAND FREE ENERGY PREDICTED BY IDOCK:   -1.70 KCAL/MOL
REMARK 927      BINDING AFFINITY PREDICTED BY RF-SCORE:    0.00 PKD
ROOT
HETATM    1  N   UNK A   0      -5.858   5.561  65.641  1.00  0.00    -0.024 NA 
HETATM    2  C   UNK A   0      -6.945   6.401  65.614  1.00  0.00    -0.057 A  
HETATM    3  H2  UNK A   0      -5.018   5.769  65.102  1.00  0.00     0.000 HD 
HETATM    4  H1  UNK A   0      -5.919   4.723  66.219  1.00  0.00     0.000 HD 
HETATM    5  N   UNK A   0      -6.866   7.494  64.862  1.00  0.00    -0.047 NA 
HETATM    6  C   UNK A   0      -7.884   8.350  64.902  1.00  0.00    -0.121 A  
HETATM    7  N   UNK A   0      -7.770   9.490  64.211  1.00  0.00    -0.117 NA 
HETATM    8  C   UNK A   0      -8.755  10.411  64.329  1.00  0.00    -0.196 A  
HETATM    9  C   UNK A   0      -9.880  10.214  65.116  1.00  0.00    -0.325 A  
HETATM   10  H2  UNK A   0     -10.947   6.557  66.554  1.00  0.00     0.000 HD 
HETATM   11  N   UNK A   0     -10.044   9.048  65.777  1.00  0.00    -0.026 NA 
HETATM   12  H1  UNK A   0     -10.107   5.679  67.677  1.00  0.00     0.000 HD 
HETATM   13  C   UNK A   0      -9.032   8.132  65.669  1.00  0.00    -0.080 A  
HETATM   14  C   UNK A   0      -9.012   6.939  66.381  1.00  0.00    -0.153 A  
HETATM   15  N   UNK A   0     -10.122   6.555  67.154  1.00  0.00    -0.153 NA 
HETATM   16  N   UNK A   0      -7.990   6.072  66.367  1.00  0.00    -0.104 NA 
ENDROOT
BRANCH   9  17
HETATM   17  C   UNK A   0     -10.885  11.312  65.373  1.00  0.00    -0.255 C  
HETATM   18  C   UNK A   0     -10.099  11.510  67.790  1.00  0.00    -0.198 A  
HETATM   19  C   UNK A   0     -11.021  10.635  68.390  1.00  0.00    -0.303 A  
HETATM   20  C   UNK A   0      -8.806  11.598  68.326  1.00  0.00    -0.167 A  
HETATM   21  C   UNK A   0     -10.447  12.279  66.511  1.00  0.00    -0.254 C  
HETATM   22  C   UNK A   0      -8.407  10.746  69.356  1.00  0.00    -0.018 A  
HETATM   23  C   UNK A   0     -10.624   9.781  69.424  1.00  0.00    -0.248 A  
HETATM   24  C   UNK A   0     -11.503  13.358  66.814  1.00  0.00    -0.376 C  
HETATM   25  C   UNK A   0      -9.297   9.796  69.864  1.00  0.00    -0.262 A  
BRANCH  24  26
HETATM   26  C   UNK A   0     -11.828  14.212  65.658  1.00  0.00    -0.377 C  
HETATM   27  C   UNK A   0     -12.023  14.903  64.694  1.00  0.00    -0.407 C  
ENDBRANCH  24  26
BRANCH  25  28
HETATM   28  C   UNK A   0      -8.846   8.778  70.845  1.00  0.00    -0.200 C  
HETATM   29  O   UNK A   0      -8.180   9.093  71.822  1.00  0.00    -0.340 OA 
ATOM     30  N   GLU A   1      -9.277   7.475  70.604  1.00  0.00    -0.159 N  
ATOM     31  H   GLU A   1      -9.760   7.245  69.735  1.00  0.00     0.000 HD 
BRANCH  30  32
ATOM     32  CA  GLU A   1      -9.026   6.431  71.619  1.00  0.00    -0.144 C  
ATOM     33  O   GLU A   1      -8.284   5.250  69.644  1.00  0.00    -0.092 OA 
ATOM     34  C   GLU A   1      -8.170   5.311  70.995  1.00  0.00    -0.116 C  
ATOM     35  OXT GLU A   1      -7.571   4.461  71.638  1.00  0.00    -0.069 OA 
BRANCH  32  36
ATOM     36  CB  GLU A   1     -10.357   5.850  72.127  1.00  0.00    -0.241 C  
BRANCH  36  37
ATOM     37  CG  GLU A   1     -11.255   6.894  72.802  1.00  0.00    -0.277 C  
ATOM     38  CD  GLU A   1     -12.346   7.403  71.892  1.00  0.00    -0.310 C  
ATOM     39  OE2 GLU A   1     -12.521   7.053  70.738  1.00  0.00    -0.338 OA 
ATOM     40  OE1 GLU A   1     -13.143   8.306  72.507  1.00  0.00    -0.221 OA 
ENDBRANCH  36  37
ENDBRANCH  32  36
ENDBRANCH  30  32
ENDBRANCH  25  28
ENDBRANCH   9  17
TORSDOF 6
ENDMDL
MODEL       79
REMARK 921   NORMALIZED FREE ENERGY PREDICTED BY IDOCK:   -5.18 KCAL/MOL
REMARK 922        TOTAL FREE ENERGY PREDICTED BY IDOCK:   -8.41 KCAL/MOL
REMARK 923 INTER-LIGAND FREE ENERGY PREDICTED BY IDOCK:   -7.33 KCAL/MOL
REMARK 924 INTRA-LIGAND FREE ENERGY PREDICTED BY IDOCK:   -1.08 KCAL/MOL
REMARK 927      BINDING AFFINITY PREDICTED BY RF-SCORE:    0.00 PKD
ROOT
HETATM    1  N   UNK A   0      -7.720   8.934  63.578  1.00  0.00    -0.122 NA 
HETATM    2  C   UNK A   0      -7.883   8.188  64.721  1.00  0.00    -0.137 A  
HETATM    3  H2  UNK A   0      -7.455   9.917  63.624  1.00  0.00     0.000 HD 
HETATM    4  H1  UNK A   0      -7.873   8.470  62.682  1.00  0.00     0.000 HD 
HETATM    5  N   UNK A   0      -7.683   8.791  65.888  1.00  0.00    -0.092 NA 
HETATM    6  C   UNK A   0      -7.756   8.049  66.991  1.00  0.00    -0.100 A  
HETATM    7  N   UNK A   0      -7.473   8.635  68.159  1.00  0.00    -0.095 NA 
HETATM    8  C   UNK A   0      -7.444   7.863  69.272  1.00  0.00    -0.092 A  
HETATM    9  C   UNK A   0      -7.714   6.503  69.252  1.00  0.00    -0.101 A  
HETATM   10  H2  UNK A   0      -9.492   4.658  66.087  1.00  0.00     0.000 HD 
HETATM   11  N   UNK A   0      -8.058   5.901  68.093  1.00  0.00    -0.108 NA 
HETATM   12  H1  UNK A   0      -8.827   4.465  64.585  1.00  0.00     0.000 HD 
HETATM   13  C   UNK A   0      -8.063   6.684  66.970  1.00  0.00    -0.113 A  
HETATM   14  C   UNK A   0      -8.288   6.179  65.696  1.00  0.00    -0.146 A  
HETATM   15  N   UNK A   0      -8.662   4.835  65.521  1.00  0.00    -0.130 NA 
HETATM   16  N   UNK A   0      -8.202   6.906  64.573  1.00  0.00    -0.058 NA 
ENDROOT
BRANCH   9  17
HETATM   17  C   UNK A   0      -7.514   5.626  70.465  1.00  0.00    -0.085 C  
HETATM   18  C   UNK A   0      -9.912   6.057  71.213  1.00  0.00    -0.223 A  
HETATM   19  C   UNK A   0      -9.680   7.151  72.065  1.00  0.00    -0.173 A  
HETATM   20  C   UNK A   0     -11.116   6.005  70.496  1.00  0.00    -0.385 A  
HETATM   21  C   UNK A   0      -8.839   4.990  70.977  1.00  0.00    -0.153 C  
HETATM   22  C   UNK A   0     -12.011   7.076  70.535  1.00  0.00    -0.315 A  
HETATM   23  C   UNK A   0     -10.575   8.224  72.107  1.00  0.00    -0.380 A  
HETATM   24  C   UNK A   0      -8.641   4.148  72.252  1.00  0.00    -0.114 C  
HETATM   25  C   UNK A   0     -11.711   8.211  71.292  1.00  0.00    -0.310 A  
BRANCH  24  26
HETATM   26  C   UNK A   0      -7.692   3.032  72.085  1.00  0.00    -0.054 C  
HETATM   27  C   UNK A   0      -6.895   2.156  71.888  1.00  0.00    -0.019 C  
ENDBRANCH  24  26
BRANCH  25  28
HETATM   28  C   UNK A   0     -12.568   9.421  71.222  1.00  0.00    -0.325 C  
HETATM   29  O   UNK A   0     -13.662   9.454  71.769  1.00  0.00    -0.380 OA 
ATOM     30  N   GLU A   1     -12.020  10.510  70.548  1.00  0.00    -0.313 N  
ATOM     31  H   GLU A   1     -11.142  10.412  70.038  1.00  0.00     0.000 HD 
BRANCH  30  32
ATOM     32  CA  GLU A   1     -12.724  11.809  70.580  1.00  0.00    -0.107 C  
ATOM     33  O   GLU A   1     -10.723  12.472  69.395  1.00  0.00    -0.016 OA 
ATOM     34  C   GLU A   1     -12.023  12.791  69.620  1.00  0.00    -0.288 C  
ATOM     35  OXT GLU A   1     -12.517  13.834  69.218  1.00  0.00    -0.241 OA 
BRANCH  32  36
ATOM     36  CB  GLU A   1     -12.721  12.383  72.008  1.00  0.00    -0.119 C  
BRANCH  36  37
ATOM     37  CG  GLU A   1     -13.771  13.479  72.224  1.00  0.00    -0.700 C  
ATOM     38  CD  GLU A   1     -13.159  14.833  72.485  1.00  0.00    -0.402 C  
ATOM     39  OE2 GLU A   1     -11.964  15.068  72.535  1.00  0.00    -0.358 OA 
ATOM     40  OE1 GLU A   1     -14.096  15.794  72.652  1.00  0.00    -0.578 OA 
ENDBRANCH  36  37
ENDBRANCH  32  36
ENDBRANCH  30  32
ENDBRANCH  25  28
ENDBRANCH   9  17
TORSDOF 6
ENDMDL
MODEL       80
REMARK 921   NORMALIZED FREE ENERGY PREDICTED BY IDOCK:   -5.16 KCAL/MOL
REMARK 922        TOTAL FREE ENERGY PREDICTED BY IDOCK:   -8.39 KCAL/MOL
REMARK 923 INTER-LIGAND FREE ENERGY PREDICTED BY IDOCK:   -7.19 KCAL/MOL
REMARK 924 INTRA-LIGAND FREE ENERGY PREDICTED BY IDOCK:   -1.20 KCAL/MOL
REMARK 927      BINDING AFFINITY PREDICTED BY RF-SCORE:    0.00 PKD
ROOT
HETATM    1  N   UNK A   0     -11.428   7.123  73.094  1.00  0.00    -0.551 NA 
HETATM    2  C   UNK A   0     -11.017   8.108  72.229  1.00  0.00    -0.332 A  
HETATM    3  H2  UNK A   0     -12.400   7.062  73.398  1.00  0.00     0.000 HD 
HETATM    4  H1  UNK A   0     -10.730   6.456  73.421  1.00  0.00     0.000 HD 
HETATM    5  N   UNK A   0     -11.927   8.978  71.801  1.00  0.00    -0.343 NA 
HETATM    6  C   UNK A   0     -11.548   9.879  70.898  1.00  0.00    -0.373 A  
HETATM    7  N   UNK A   0     -12.481  10.700  70.404  1.00  0.00    -0.336 NA 
HETATM    8  C   UNK A   0     -12.126  11.549  69.410  1.00  0.00    -0.279 A  
HETATM    9  C   UNK A   0     -10.838  11.615  68.901  1.00  0.00    -0.220 A  
HETATM   10  H2  UNK A   0      -7.635   9.958  70.793  1.00  0.00     0.000 HD 
HETATM   11  N   UNK A   0      -9.866  10.835  69.423  1.00  0.00    -0.145 NA 
HETATM   12  H1  UNK A   0      -7.377   8.340  71.015  1.00  0.00     0.000 HD 
HETATM   13  C   UNK A   0     -10.239   9.965  70.412  1.00  0.00    -0.236 A  
HETATM   14  C   UNK A   0      -9.374   9.027  70.962  1.00  0.00    -0.271 A  
HETATM   15  N   UNK A   0      -8.012   9.028  70.612  1.00  0.00    -0.124 NA 
HETATM   16  N   UNK A   0      -9.740   8.102  71.860  1.00  0.00    -0.185 NA 
ENDROOT
BRANCH   9  17
HETATM   17  C   UNK A   0     -10.495  12.440  67.684  1.00  0.00    -0.229 C  
HETATM   18  C   UNK A   0      -9.757  10.346  66.432  1.00  0.00    -0.250 A  
HETATM   19  C   UNK A   0      -8.387  10.379  66.742  1.00  0.00    -0.126 A  
HETATM   20  C   UNK A   0     -10.385   9.101  66.285  1.00  0.00    -0.166 A  
HETATM   21  C   UNK A   0     -10.589  11.630  66.358  1.00  0.00    -0.299 C  
HETATM   22  C   UNK A   0      -9.691   7.921  66.561  1.00  0.00    -0.279 A  
HETATM   23  C   UNK A   0      -7.689   9.200  67.017  1.00  0.00    -0.098 A  
HETATM   24  C   UNK A   0     -10.176  12.457  65.125  1.00  0.00    -0.305 C  
HETATM   25  C   UNK A   0      -8.361   7.974  66.985  1.00  0.00    -0.116 A  
BRANCH  24  26
HETATM   26  C   UNK A   0     -10.993  13.668  64.922  1.00  0.00    -0.372 C  
HETATM   27  C   UNK A   0     -11.608  14.692  64.793  1.00  0.00    -0.418 C  
ENDBRANCH  24  26
BRANCH  25  28
HETATM   28  C   UNK A   0      -7.657   6.748  67.436  1.00  0.00    -0.105 C  
HETATM   29  O   UNK A   0      -7.023   6.732  68.483  1.00  0.00    -0.071 OA 
ATOM     30  N   GLU A   1      -7.814   5.628  66.623  1.00  0.00    -0.100 N  
ATOM     31  H   GLU A   1      -8.282   5.709  65.720  1.00  0.00     0.000 HD 
BRANCH  30  32
ATOM     32  CA  GLU A   1      -7.298   4.322  67.083  1.00  0.00    -0.069 C  
ATOM     33  O   GLU A   1      -5.987   4.579  65.068  1.00  0.00    -0.021 OA 
ATOM     34  C   GLU A   1      -6.035   3.962  66.275  1.00  0.00    -0.027 C  
ATOM     35  OXT GLU A   1      -5.231   3.100  66.599  1.00  0.00    -0.011 OA 
BRANCH  32  36
ATOM     36  CB  GLU A   1      -8.366   3.230  66.897  1.00  0.00    -0.097 C  
BRANCH  36  37
ATOM     37  CG  GLU A   1      -9.582   3.702  66.091  1.00  0.00    -0.142 C  
ATOM     38  CD  GLU A   1      -9.567   3.209  64.665  1.00  0.00    -0.148 C  
ATOM     39  OE2 GLU A   1      -8.695   2.515  64.169  1.00  0.00    -0.089 OA 
ATOM     40  OE1 GLU A   1     -10.655   3.615  63.972  1.00  0.00    -0.255 OA 
ENDBRANCH  36  37
ENDBRANCH  32  36
ENDBRANCH  30  32
ENDBRANCH  25  28
ENDBRANCH   9  17
TORSDOF 6
ENDMDL
MODEL       81
REMARK 921   NORMALIZED FREE ENERGY PREDICTED BY IDOCK:   -5.15 KCAL/MOL
REMARK 922        TOTAL FREE ENERGY PREDICTED BY IDOCK:   -8.37 KCAL/MOL
REMARK 923 INTER-LIGAND FREE ENERGY PREDICTED BY IDOCK:   -7.87 KCAL/MOL
REMARK 924 INTRA-LIGAND FREE ENERGY PREDICTED BY IDOCK:   -0.50 KCAL/MOL
REMARK 927      BINDING AFFINITY PREDICTED BY RF-SCORE:    0.00 PKD
ROOT
HETATM    1  N   UNK A   0     -14.208   8.903  73.402  1.00  0.00    -1.142 NA 
HETATM    2  C   UNK A   0     -13.341   9.181  72.373  1.00  0.00    -0.463 A  
HETATM    3  H2  UNK A   0     -14.721   9.648  73.874  1.00  0.00     0.000 HD 
HETATM    4  H1  UNK A   0     -14.322   7.928  73.677  1.00  0.00     0.000 HD 
HETATM    5  N   UNK A   0     -13.192  10.452  72.013  1.00  0.00    -0.451 NA 
HETATM    6  C   UNK A   0     -12.418  10.712  70.961  1.00  0.00    -0.413 A  
HETATM    7  N   UNK A   0     -12.335  11.981  70.546  1.00  0.00    -0.319 NA 
HETATM    8  C   UNK A   0     -11.634  12.240  69.417  1.00  0.00    -0.314 A  
HETATM    9  C   UNK A   0     -10.988  11.252  68.689  1.00  0.00    -0.218 A  
HETATM   10  H2  UNK A   0     -10.281   7.528  70.176  1.00  0.00     0.000 HD 
HETATM   11  N   UNK A   0     -11.011   9.973  69.120  1.00  0.00    -0.228 NA 
HETATM   12  H1  UNK A   0     -11.434   6.397  70.532  1.00  0.00     0.000 HD 
HETATM   13  C   UNK A   0     -11.740   9.717  70.251  1.00  0.00    -0.190 A  
HETATM   14  C   UNK A   0     -11.946   8.436  70.746  1.00  0.00    -0.110 A  
HETATM   15  N   UNK A   0     -11.283   7.338  70.169  1.00  0.00    -0.262 NA 
HETATM   16  N   UNK A   0     -12.733   8.151  71.792  1.00  0.00    -0.321 NA 
ENDROOT
BRANCH   9  17
HETATM   17  C   UNK A   0     -10.355  11.527  67.345  1.00  0.00    -0.235 C  
HETATM   18  C   UNK A   0      -8.550   9.786  67.804  1.00  0.00    -0.125 A  
HETATM   19  C   UNK A   0      -7.568  10.631  68.350  1.00  0.00    -0.100 A  
HETATM   20  C   UNK A   0      -8.649   8.471  68.280  1.00  0.00    -0.139 A  
HETATM   21  C   UNK A   0      -9.570  10.305  66.785  1.00  0.00    -0.214 C  
HETATM   22  C   UNK A   0      -7.870   8.048  69.359  1.00  0.00    -0.113 A  
HETATM   23  C   UNK A   0      -6.785  10.209  69.429  1.00  0.00    -0.065 A  
HETATM   24  C   UNK A   0      -8.872  10.609  65.446  1.00  0.00    -0.204 C  
HETATM   25  C   UNK A   0      -6.982   8.936  69.971  1.00  0.00    -0.044 A  
BRANCH  24  26
HETATM   26  C   UNK A   0      -9.797  11.025  64.376  1.00  0.00    -0.351 C  
HETATM   27  C   UNK A   0     -10.606  11.348  63.549  1.00  0.00    -0.468 C  
ENDBRANCH  24  26
BRANCH  25  28
HETATM   28  C   UNK A   0      -6.264   8.558  71.214  1.00  0.00    -0.044 C  
HETATM   29  O   UNK A   0      -5.331   9.230  71.635  1.00  0.00    -0.050 OA 
ATOM     30  N   GLU A   1      -6.757   7.438  71.879  1.00  0.00    -0.054 N  
ATOM     31  H   GLU A   1      -7.481   6.862  71.451  1.00  0.00     0.000 HD 
BRANCH  30  32
ATOM     32  CA  GLU A   1      -6.219   7.093  73.212  1.00  0.00    -0.057 C  
ATOM     33  O   GLU A   1      -6.525   4.867  72.320  1.00  0.00    -0.035 OA 
ATOM     34  C   GLU A   1      -5.842   5.599  73.237  1.00  0.00    -0.036 C  
ATOM     35  OXT GLU A   1      -5.128   5.081  74.084  1.00  0.00    -0.012 OA 
BRANCH  32  36
ATOM     36  CB  GLU A   1      -7.265   7.387  74.302  1.00  0.00    -0.122 C  
BRANCH  36  37
ATOM     37  CG  GLU A   1      -8.306   6.272  74.460  1.00  0.00    -0.131 C  
ATOM     38  CD  GLU A   1      -9.699   6.715  74.086  1.00  0.00    -0.283 C  
ATOM     39  OE2 GLU A   1     -10.005   7.832  73.704  1.00  0.00    -0.301 OA 
ATOM     40  OE1 GLU A   1     -10.603   5.717  74.210  1.00  0.00    -0.262 OA 
ENDBRANCH  36  37
ENDBRANCH  32  36
ENDBRANCH  30  32
ENDBRANCH  25  28
ENDBRANCH   9  17
TORSDOF 6
ENDMDL
MODEL       82
REMARK 921   NORMALIZED FREE ENERGY PREDICTED BY IDOCK:   -5.15 KCAL/MOL
REMARK 922        TOTAL FREE ENERGY PREDICTED BY IDOCK:   -8.36 KCAL/MOL
REMARK 923 INTER-LIGAND FREE ENERGY PREDICTED BY IDOCK:   -6.98 KCAL/MOL
REMARK 924 INTRA-LIGAND FREE ENERGY PREDICTED BY IDOCK:   -1.39 KCAL/MOL
REMARK 927      BINDING AFFINITY PREDICTED BY RF-SCORE:    0.00 PKD
ROOT
HETATM    1  N   UNK A   0      -5.351  14.649  67.819  1.00  0.00    -0.300 NA 
HETATM    2  C   UNK A   0      -5.505  13.492  68.543  1.00  0.00    -0.089 A  
HETATM    3  H2  UNK A   0      -5.334  14.634  66.799  1.00  0.00     0.000 HD 
HETATM    4  H1  UNK A   0      -5.254  15.523  68.335  1.00  0.00     0.000 HD 
HETATM    5  N   UNK A   0      -5.632  12.352  67.871  1.00  0.00    -0.074 NA 
HETATM    6  C   UNK A   0      -5.867  11.243  68.568  1.00  0.00    -0.042 A  
HETATM    7  N   UNK A   0      -6.079  10.110  67.889  1.00  0.00    -0.052 NA 
HETATM    8  C   UNK A   0      -6.420   9.001  68.586  1.00  0.00    -0.054 A  
HETATM    9  C   UNK A   0      -6.540   8.986  69.968  1.00  0.00    -0.043 A  
HETATM   10  H2  UNK A   0      -5.073  11.957  72.335  1.00  0.00     0.000 HD 
HETATM   11  N   UNK A   0      -6.275  10.103  70.679  1.00  0.00    -0.148 NA 
HETATM   12  H1  UNK A   0      -5.629  13.514  72.384  1.00  0.00     0.000 HD 
HETATM   13  C   UNK A   0      -5.952  11.226  69.964  1.00  0.00    -0.131 A  
HETATM   14  C   UNK A   0      -5.765  12.470  70.552  1.00  0.00    -0.170 A  
HETATM   15  N   UNK A   0      -5.766  12.600  71.953  1.00  0.00    -0.079 NA 
HETATM   16  N   UNK A   0      -5.544  13.601  69.867  1.00  0.00    -0.102 NA 
ENDROOT
BRANCH   9  17
HETATM   17  C   UNK A   0      -7.084   7.792  70.716  1.00  0.00    -0.053 C  
HETATM   18  C   UNK A   0      -9.394   8.175  69.709  1.00  0.00    -0.159 A  
HETATM   19  C   UNK A   0      -9.948   8.967  70.730  1.00  0.00    -0.282 A  
HETATM   20  C   UNK A   0      -9.785   8.414  68.383  1.00  0.00    -0.168 A  
HETATM   21  C   UNK A   0      -8.305   7.139  70.006  1.00  0.00    -0.138 C  
HETATM   22  C   UNK A   0     -10.612   9.495  68.073  1.00  0.00    -0.282 A  
HETATM   23  C   UNK A   0     -10.777  10.049  70.422  1.00  0.00    -0.369 A  
HETATM   24  C   UNK A   0      -8.898   5.963  70.804  1.00  0.00    -0.140 C  
HETATM   25  C   UNK A   0     -11.058  10.347  69.085  1.00  0.00    -0.296 A  
BRANCH  24  26
HETATM   26  C   UNK A   0      -7.939   4.870  71.052  1.00  0.00    -0.091 C  
HETATM   27  C   UNK A   0      -7.166   3.960  71.184  1.00  0.00    -0.033 C  
ENDBRANCH  24  26
BRANCH  25  28
HETATM   28  C   UNK A   0     -11.804  11.589  68.760  1.00  0.00    -0.330 C  
HETATM   29  O   UNK A   0     -12.479  12.161  69.607  1.00  0.00    -0.047 OA 
ATOM     30  N   GLU A   1     -11.636  12.073  67.465  1.00  0.00    -0.337 N  
ATOM     31  H   GLU A   1     -11.131  11.522  66.771  1.00  0.00     0.000 HD 
BRANCH  30  32
ATOM     32  CA  GLU A   1     -12.195  13.394  67.108  1.00  0.00    -0.256 C  
ATOM     33  O   GLU A   1     -11.452  12.674  64.923  1.00  0.00    -0.303 OA 
ATOM     34  C   GLU A   1     -12.310  13.499  65.574  1.00  0.00    -0.481 C  
ATOM     35  OXT GLU A   1     -12.981  14.337  64.989  1.00  0.00    -0.693 OA 
BRANCH  32  36
ATOM     36  CB  GLU A   1     -11.292  14.519  67.643  1.00  0.00    -0.354 C  
BRANCH  36  37
ATOM     37  CG  GLU A   1     -10.074  14.794  66.753  1.00  0.00    -0.258 C  
ATOM     38  CD  GLU A   1      -9.002  15.588  67.457  1.00  0.00    -0.189 C  
ATOM     39  OE2 GLU A   1      -9.065  15.993  68.605  1.00  0.00    -0.194 OA 
ATOM     40  OE1 GLU A   1      -7.926  15.806  66.668  1.00  0.00    -0.242 OA 
ENDBRANCH  36  37
ENDBRANCH  32  36
ENDBRANCH  30  32
ENDBRANCH  25  28
ENDBRANCH   9  17
TORSDOF 6
ENDMDL
MODEL       83
REMARK 921   NORMALIZED FREE ENERGY PREDICTED BY IDOCK:   -5.13 KCAL/MOL
REMARK 922        TOTAL FREE ENERGY PREDICTED BY IDOCK:   -8.34 KCAL/MOL
REMARK 923 INTER-LIGAND FREE ENERGY PREDICTED BY IDOCK:   -6.91 KCAL/MOL
REMARK 924 INTRA-LIGAND FREE ENERGY PREDICTED BY IDOCK:   -1.43 KCAL/MOL
REMARK 927      BINDING AFFINITY PREDICTED BY RF-SCORE:    0.00 PKD
ROOT
HETATM    1  N   UNK A   0      -5.399   9.035  62.491  1.00  0.00    -0.081 NA 
HETATM    2  C   UNK A   0      -6.036   8.605  63.630  1.00  0.00    -0.073 A  
HETATM    3  H2  UNK A   0      -4.750   9.820  62.515  1.00  0.00     0.000 HD 
HETATM    4  H1  UNK A   0      -5.597   8.541  61.621  1.00  0.00     0.000 HD 
HETATM    5  N   UNK A   0      -5.778   9.248  64.764  1.00  0.00    -0.062 NA 
HETATM    6  C   UNK A   0      -6.329   8.780  65.882  1.00  0.00    -0.056 A  
HETATM    7  N   UNK A   0      -6.003   9.373  67.036  1.00  0.00    -0.055 NA 
HETATM    8  C   UNK A   0      -6.476   8.839  68.187  1.00  0.00    -0.060 A  
HETATM    9  C   UNK A   0      -7.295   7.720  68.216  1.00  0.00    -0.102 A  
HETATM   10  H2  UNK A   0      -9.186   6.288  64.906  1.00  0.00     0.000 HD 
HETATM   11  N   UNK A   0      -7.683   7.138  67.061  1.00  0.00    -0.105 NA 
HETATM   12  H1  UNK A   0      -8.447   5.612  63.590  1.00  0.00     0.000 HD 
HETATM   13  C   UNK A   0      -7.182   7.672  65.904  1.00  0.00    -0.069 A  
HETATM   14  C   UNK A   0      -7.403   7.110  64.653  1.00  0.00    -0.079 A  
HETATM   15  N   UNK A   0      -8.285   6.024  64.509  1.00  0.00    -0.123 NA 
HETATM   16  N   UNK A   0      -6.846   7.557  63.519  1.00  0.00    -0.057 NA 
ENDROOT
BRANCH   9  17
HETATM   17  C   UNK A   0      -7.676   7.036  69.507  1.00  0.00    -0.107 C  
HETATM   18  C   UNK A   0      -9.932   8.221  69.507  1.00  0.00    -0.187 A  
HETATM   19  C   UNK A   0      -9.592   9.337  70.292  1.00  0.00    -0.276 A  
HETATM   20  C   UNK A   0     -10.881   8.379  68.487  1.00  0.00     0.030 A  
HETATM   21  C   UNK A   0      -9.214   6.878  69.678  1.00  0.00    -0.146 C  
HETATM   22  C   UNK A   0     -11.385   9.643  68.178  1.00  0.00     0.150 A  
HETATM   23  C   UNK A   0     -10.096  10.604  69.986  1.00  0.00     0.178 A  
HETATM   24  C   UNK A   0      -9.602   6.239  71.024  1.00  0.00    -0.191 C  
HETATM   25  C   UNK A   0     -10.947  10.764  68.888  1.00  0.00    -0.289 A  
BRANCH  24  26
HETATM   26  C   UNK A   0      -9.030   4.896  71.230  1.00  0.00    -0.163 C  
HETATM   27  C   UNK A   0      -8.584   3.785  71.329  1.00  0.00    -0.111 C  
ENDBRANCH  24  26
BRANCH  25  28
HETATM   28  C   UNK A   0     -11.347  12.132  68.473  1.00  0.00    -0.275 C  
HETATM   29  O   UNK A   0     -11.542  13.012  69.302  1.00  0.00    -0.279 OA 
ATOM     30  N   GLU A   1     -11.427  12.347  67.099  1.00  0.00    -0.335 N  
ATOM     31  H   GLU A   1     -11.337  11.566  66.450  1.00  0.00     0.000 HD 
BRANCH  30  32
ATOM     32  CA  GLU A   1     -11.644  13.719  66.593  1.00  0.00    -0.369 C  
ATOM     33  O   GLU A   1     -13.024  12.496  65.029  1.00  0.00    -0.779 OA 
ATOM     34  C   GLU A   1     -12.820  13.712  65.596  1.00  0.00    -0.371 C  
ATOM     35  OXT GLU A   1     -13.414  14.714  65.224  1.00  0.00    -0.247 OA 
BRANCH  32  36
ATOM     36  CB  GLU A   1     -10.373  14.239  65.900  1.00  0.00    -0.325 C  
BRANCH  36  37
ATOM     37  CG  GLU A   1      -9.901  15.595  66.438  1.00  0.00    -0.295 C  
ATOM     38  CD  GLU A   1     -10.308  16.749  65.555  1.00  0.00    -0.215 C  
ATOM     39  OE2 GLU A   1     -10.937  16.652  64.515  1.00  0.00    -0.885 OA 
ATOM     40  OE1 GLU A   1      -9.904  17.940  66.051  1.00  0.00    -0.500 OA 
ENDBRANCH  36  37
ENDBRANCH  32  36
ENDBRANCH  30  32
ENDBRANCH  25  28
ENDBRANCH   9  17
TORSDOF 6
ENDMDL
MODEL       84
REMARK 921   NORMALIZED FREE ENERGY PREDICTED BY IDOCK:   -5.11 KCAL/MOL
REMARK 922        TOTAL FREE ENERGY PREDICTED BY IDOCK:   -8.32 KCAL/MOL
REMARK 923 INTER-LIGAND FREE ENERGY PREDICTED BY IDOCK:   -6.90 KCAL/MOL
REMARK 924 INTRA-LIGAND FREE ENERGY PREDICTED BY IDOCK:   -1.41 KCAL/MOL
REMARK 927      BINDING AFFINITY PREDICTED BY RF-SCORE:    0.00 PKD
ROOT
HETATM    1  N   UNK A   0     -12.317   7.694  72.291  1.00  0.00    -0.489 NA 
HETATM    2  C   UNK A   0     -11.699   8.693  71.579  1.00  0.00    -0.305 A  
HETATM    3  H2  UNK A   0     -13.286   7.786  72.596  1.00  0.00     0.000 HD 
HETATM    4  H1  UNK A   0     -11.776   6.856  72.503  1.00  0.00     0.000 HD 
HETATM    5  N   UNK A   0     -12.405   9.784  71.301  1.00  0.00    -0.345 NA 
HETATM    6  C   UNK A   0     -11.834  10.715  70.539  1.00  0.00    -0.357 A  
HETATM    7  N   UNK A   0     -12.572  11.774  70.188  1.00  0.00    -0.066 NA 
HETATM    8  C   UNK A   0     -12.034  12.673  69.330  1.00  0.00    -0.246 A  
HETATM    9  C   UNK A   0     -10.752  12.550  68.817  1.00  0.00    -0.202 A  
HETATM   10  H2  UNK A   0      -7.987  10.008  70.390  1.00  0.00     0.000 HD 
HETATM   11  N   UNK A   0      -9.968  11.519  69.201  1.00  0.00    -0.013 NA 
HETATM   12  H1  UNK A   0      -8.069   8.356  70.361  1.00  0.00     0.000 HD 
HETATM   13  C   UNK A   0     -10.528  10.604  70.052  1.00  0.00    -0.009 A  
HETATM   14  C   UNK A   0      -9.882   9.437  70.441  1.00  0.00    -0.259 A  
HETATM   15  N   UNK A   0      -8.543   9.213  70.076  1.00  0.00    -0.146 NA 
HETATM   16  N   UNK A   0     -10.444   8.482  71.194  1.00  0.00    -0.210 NA 
ENDROOT
BRANCH   9  17
HETATM   17  C   UNK A   0     -10.227  13.463  67.734  1.00  0.00    -0.235 C  
HETATM   18  C   UNK A   0      -9.798  11.463  66.213  1.00  0.00    -0.250 A  
HETATM   19  C   UNK A   0      -8.454  11.220  66.549  1.00  0.00    -0.171 A  
HETATM   20  C   UNK A   0     -10.617  10.374  65.882  1.00  0.00    -0.114 A  
HETATM   21  C   UNK A   0     -10.400  12.868  66.307  1.00  0.00    -0.278 C  
HETATM   22  C   UNK A   0     -10.141   9.067  66.002  1.00  0.00    -0.154 A  
HETATM   23  C   UNK A   0      -7.975   9.912  66.667  1.00  0.00    -0.113 A  
HETATM   24  C   UNK A   0      -9.806  13.772  65.210  1.00  0.00    -0.155 C  
HETATM   25  C   UNK A   0      -8.839   8.835  66.452  1.00  0.00    -0.175 A  
BRANCH  24  26
HETATM   26  C   UNK A   0     -10.401  15.120  65.164  1.00  0.00    -0.416 C  
HETATM   27  C   UNK A   0     -10.828  16.240  65.086  1.00  0.00    -0.333 C  
ENDBRANCH  24  26
BRANCH  25  28
HETATM   28  C   UNK A   0      -8.367   7.457  66.738  1.00  0.00    -0.122 C  
HETATM   29  O   UNK A   0      -7.173   7.185  66.739  1.00  0.00    -0.079 OA 
ATOM     30  N   GLU A   1      -9.360   6.532  67.052  1.00  0.00    -0.135 N  
ATOM     31  H   GLU A   1     -10.345   6.781  66.959  1.00  0.00     0.000 HD 
BRANCH  30  32
ATOM     32  CA  GLU A   1      -8.972   5.185  67.522  1.00  0.00    -0.109 C  
ATOM     33  O   GLU A   1     -10.587   4.565  65.833  1.00  0.00    -0.277 OA 
ATOM     34  C   GLU A   1      -9.513   4.128  66.539  1.00  0.00    -0.189 C  
ATOM     35  OXT GLU A   1      -9.133   2.967  66.496  1.00  0.00    -0.148 OA 
BRANCH  32  36
ATOM     36  CB  GLU A   1      -9.536   4.928  68.930  1.00  0.00    -0.224 C  
BRANCH  36  37
ATOM     37  CG  GLU A   1      -8.569   5.323  70.053  1.00  0.00    -0.117 C  
ATOM     38  CD  GLU A   1      -9.230   5.356  71.409  1.00  0.00    -0.146 C  
ATOM     39  OE2 GLU A   1     -10.404   5.109  71.627  1.00  0.00    -0.205 OA 
ATOM     40  OE1 GLU A   1      -8.361   5.685  72.392  1.00  0.00    -0.114 OA 
ENDBRANCH  36  37
ENDBRANCH  32  36
ENDBRANCH  30  32
ENDBRANCH  25  28
ENDBRANCH   9  17
TORSDOF 6
ENDMDL
MODEL       85
REMARK 921   NORMALIZED FREE ENERGY PREDICTED BY IDOCK:   -5.08 KCAL/MOL
REMARK 922        TOTAL FREE ENERGY PREDICTED BY IDOCK:   -8.28 KCAL/MOL
REMARK 923 INTER-LIGAND FREE ENERGY PREDICTED BY IDOCK:   -6.56 KCAL/MOL
REMARK 924 INTRA-LIGAND FREE ENERGY PREDICTED BY IDOCK:   -1.71 KCAL/MOL
REMARK 927      BINDING AFFINITY PREDICTED BY RF-SCORE:    0.00 PKD
ROOT
HETATM    1  N   UNK A   0      -6.229  10.568  64.791  1.00  0.00    -0.318 NA 
HETATM    2  C   UNK A   0      -7.099  10.707  65.845  1.00  0.00    -0.115 A  
HETATM    3  H2  UNK A   0      -6.396   9.879  64.057  1.00  0.00     0.000 HD 
HETATM    4  H1  UNK A   0      -5.411  11.177  64.766  1.00  0.00     0.000 HD 
HETATM    5  N   UNK A   0      -8.166   9.914  65.876  1.00  0.00    -0.121 NA 
HETATM    6  C   UNK A   0      -9.053  10.106  66.850  1.00  0.00    -0.142 A  
HETATM    7  N   UNK A   0     -10.168   9.366  66.836  1.00  0.00    -0.242 NA 
HETATM    8  C   UNK A   0     -11.121   9.627  67.761  1.00  0.00    -0.023 A  
HETATM    9  C   UNK A   0     -10.981  10.610  68.730  1.00  0.00    -0.246 A  
HETATM   10  H2  UNK A   0      -7.403  12.344  69.606  1.00  0.00     0.000 HD 
HETATM   11  N   UNK A   0      -9.841  11.330  68.799  1.00  0.00    -0.204 NA 
HETATM   12  H1  UNK A   0      -6.536  13.328  68.598  1.00  0.00     0.000 HD 
HETATM   13  C   UNK A   0      -8.892  11.075  67.846  1.00  0.00    -0.134 A  
HETATM   14  C   UNK A   0      -7.721  11.813  67.725  1.00  0.00    -0.133 A  
HETATM   15  N   UNK A   0      -7.395  12.786  68.686  1.00  0.00    -0.110 NA 
HETATM   16  N   UNK A   0      -6.824  11.646  66.744  1.00  0.00    -0.121 NA 
ENDROOT
BRANCH   9  17
HETATM   17  C   UNK A   0     -12.116  11.004  69.645  1.00  0.00    -0.411 C  
HETATM   18  C   UNK A   0     -11.409   9.232  71.336  1.00  0.00    -0.434 A  
HETATM   19  C   UNK A   0     -12.231   8.177  70.902  1.00  0.00    -0.108 A  
HETATM   20  C   UNK A   0     -10.147   8.928  71.868  1.00  0.00    -0.393 A  
HETATM   21  C   UNK A   0     -11.820  10.695  71.141  1.00  0.00    -0.339 C  
HETATM   22  C   UNK A   0      -9.669   7.617  71.853  1.00  0.00    -0.203 A  
HETATM   23  C   UNK A   0     -11.756   6.863  70.888  1.00  0.00    -0.408 A  
HETATM   24  C   UNK A   0     -13.005  11.038  72.065  1.00  0.00    -0.398 C  
HETATM   25  C   UNK A   0     -10.450   6.594  71.308  1.00  0.00    -0.244 A  
BRANCH  24  26
HETATM   26  C   UNK A   0     -13.407  12.455  72.014  1.00  0.00    -0.511 C  
HETATM   27  C   UNK A   0     -13.677  13.626  72.016  1.00  0.00    -0.583 C  
ENDBRANCH  24  26
BRANCH  25  28
HETATM   28  C   UNK A   0      -9.900   5.226  71.137  1.00  0.00    -0.189 C  
HETATM   29  O   UNK A   0     -10.609   4.301  70.762  1.00  0.00     0.204 OA 
ATOM     30  N   GLU A   1      -8.534   5.089  71.377  1.00  0.00    -0.117 N  
ATOM     31  H   GLU A   1      -8.000   5.866  71.766  1.00  0.00     0.000 HD 
BRANCH  30  32
ATOM     32  CA  GLU A   1      -7.868   3.808  71.062  1.00  0.00    -0.062 C  
ATOM     33  O   GLU A   1      -6.943   4.205  73.260  1.00  0.00    -0.058 OA 
ATOM     34  C   GLU A   1      -7.218   3.245  72.341  1.00  0.00    -0.047 C  
ATOM     35  OXT GLU A   1      -6.840   2.090  72.472  1.00  0.00    -0.018 OA 
BRANCH  32  36
ATOM     36  CB  GLU A   1      -6.796   4.017  69.978  1.00  0.00    -0.034 C  
BRANCH  36  37
ATOM     37  CG  GLU A   1      -7.359   4.579  68.668  1.00  0.00    -0.060 C  
ATOM     38  CD  GLU A   1      -7.323   6.087  68.615  1.00  0.00    -0.085 C  
ATOM     39  OE2 GLU A   1      -6.908   6.813  69.501  1.00  0.00    -0.051 OA 
ATOM     40  OE1 GLU A   1      -7.804   6.569  67.446  1.00  0.00    -0.109 OA 
ENDBRANCH  36  37
ENDBRANCH  32  36
ENDBRANCH  30  32
ENDBRANCH  25  28
ENDBRANCH   9  17
TORSDOF 6
ENDMDL
MODEL       86
REMARK 921   NORMALIZED FREE ENERGY PREDICTED BY IDOCK:   -5.04 KCAL/MOL
REMARK 922        TOTAL FREE ENERGY PREDICTED BY IDOCK:   -8.22 KCAL/MOL
REMARK 923 INTER-LIGAND FREE ENERGY PREDICTED BY IDOCK:   -8.67 KCAL/MOL
REMARK 924 INTRA-LIGAND FREE ENERGY PREDICTED BY IDOCK:    0.45 KCAL/MOL
REMARK 927      BINDING AFFINITY PREDICTED BY RF-SCORE:    0.00 PKD
ROOT
HETATM    1  N   UNK A   0     -13.666   9.712  72.371  1.00  0.00    -0.634 NA 
HETATM    2  C   UNK A   0     -13.316  10.920  71.817  1.00  0.00    -0.310 A  
HETATM    3  H2  UNK A   0     -13.554   8.842  71.853  1.00  0.00     0.000 HD 
HETATM    4  H1  UNK A   0     -14.042   9.716  73.320  1.00  0.00     0.000 HD 
HETATM    5  N   UNK A   0     -12.826  10.915  70.581  1.00  0.00    -0.293 NA 
HETATM    6  C   UNK A   0     -12.407  12.074  70.075  1.00  0.00    -0.108 A  
HETATM    7  N   UNK A   0     -11.836  12.058  68.866  1.00  0.00    -0.307 NA 
HETATM    8  C   UNK A   0     -11.315  13.213  68.389  1.00  0.00    -0.289 A  
HETATM    9  C   UNK A   0     -11.366  14.408  69.091  1.00  0.00    -0.277 A  
HETATM   10  H2  UNK A   0     -13.810  14.975  72.298  1.00  0.00     0.000 HD 
HETATM   11  N   UNK A   0     -11.987  14.460  70.289  1.00  0.00    -0.301 NA 
HETATM   12  H1  UNK A   0     -13.672  14.216  73.761  1.00  0.00     0.000 HD 
HETATM   13  C   UNK A   0     -12.492  13.283  70.773  1.00  0.00    -0.324 A  
HETATM   14  C   UNK A   0     -13.056  13.163  72.037  1.00  0.00    -0.376 A  
HETATM   15  N   UNK A   0     -13.259  14.304  72.833  1.00  0.00    -0.564 NA 
HETATM   16  N   UNK A   0     -13.468  12.005  72.570  1.00  0.00    -0.109 NA 
ENDROOT
BRANCH   9  17
HETATM   17  C   UNK A   0     -10.635  15.645  68.626  1.00  0.00    -0.243 C  
HETATM   18  C   UNK A   0      -9.562  14.335  66.721  1.00  0.00    -0.290 A  
HETATM   19  C   UNK A   0      -8.366  13.964  67.359  1.00  0.00    -0.208 A  
HETATM   20  C   UNK A   0     -10.127  13.457  65.785  1.00  0.00    -0.297 A  
HETATM   21  C   UNK A   0     -10.306  15.618  67.106  1.00  0.00    -0.285 C  
HETATM   22  C   UNK A   0      -9.578  12.190  65.581  1.00  0.00    -0.177 A  
HETATM   23  C   UNK A   0      -7.813  12.697  67.156  1.00  0.00    -0.110 A  
HETATM   24  C   UNK A   0      -9.504  16.851  66.648  1.00  0.00    -0.282 C  
HETATM   25  C   UNK A   0      -8.457  11.788  66.311  1.00  0.00    -0.022 A  
BRANCH  24  26
HETATM   26  C   UNK A   0     -10.192  18.132  66.893  1.00  0.00    -0.380 C  
HETATM   27  C   UNK A   0     -10.777  19.147  67.157  1.00  0.00    -0.567 C  
ENDBRANCH  24  26
BRANCH  25  28
HETATM   28  C   UNK A   0      -7.955  10.393  66.228  1.00  0.00    -0.138 C  
HETATM   29  O   UNK A   0      -6.957  10.119  65.573  1.00  0.00    -0.117 OA 
ATOM     30  N   GLU A   1      -8.655   9.453  66.980  1.00  0.00    -0.127 N  
ATOM     31  H   GLU A   1      -9.527   9.710  67.444  1.00  0.00     0.000 HD 
BRANCH  30  32
ATOM     32  CA  GLU A   1      -8.124   8.079  67.098  1.00  0.00    -0.117 C  
ATOM     33  O   GLU A   1     -10.452   7.569  66.691  1.00  0.00    -0.269 OA 
ATOM     34  C   GLU A   1      -9.189   7.078  66.609  1.00  0.00    -0.158 C  
ATOM     35  OXT GLU A   1      -8.960   5.912  66.324  1.00  0.00    -0.139 OA 
BRANCH  32  36
ATOM     36  CB  GLU A   1      -7.751   7.775  68.559  1.00  0.00    -0.118 C  
BRANCH  36  37
ATOM     37  CG  GLU A   1      -6.808   8.816  69.174  1.00  0.00    -0.055 C  
ATOM     38  CD  GLU A   1      -7.406   9.512  70.372  1.00  0.00    -0.141 C  
ATOM     39  OE2 GLU A   1      -8.518   9.303  70.826  1.00  0.00    -0.197 OA 
ATOM     40  OE1 GLU A   1      -6.556  10.412  70.917  1.00  0.00    -0.341 OA 
ENDBRANCH  36  37
ENDBRANCH  32  36
ENDBRANCH  30  32
ENDBRANCH  25  28
ENDBRANCH   9  17
TORSDOF 6
ENDMDL
MODEL       87
REMARK 921   NORMALIZED FREE ENERGY PREDICTED BY IDOCK:   -5.03 KCAL/MOL
REMARK 922        TOTAL FREE ENERGY PREDICTED BY IDOCK:   -8.21 KCAL/MOL
REMARK 923 INTER-LIGAND FREE ENERGY PREDICTED BY IDOCK:   -6.47 KCAL/MOL
REMARK 924 INTRA-LIGAND FREE ENERGY PREDICTED BY IDOCK:   -1.74 KCAL/MOL
REMARK 927      BINDING AFFINITY PREDICTED BY RF-SCORE:    0.00 PKD
ROOT
HETATM    1  N   UNK A   0      -6.181   6.051  64.597  1.00  0.00    -0.029 NA 
HETATM    2  C   UNK A   0      -6.881   6.918  65.401  1.00  0.00    -0.052 A  
HETATM    3  H2  UNK A   0      -6.580   5.156  64.314  1.00  0.00     0.000 HD 
HETATM    4  H1  UNK A   0      -5.250   6.333  64.292  1.00  0.00     0.000 HD 
HETATM    5  N   UNK A   0      -8.096   6.551  65.798  1.00  0.00    -0.121 NA 
HETATM    6  C   UNK A   0      -8.808   7.426  66.505  1.00  0.00    -0.148 A  
HETATM    7  N   UNK A   0     -10.061   7.092  66.833  1.00  0.00    -0.226 NA 
HETATM    8  C   UNK A   0     -10.825   8.016  67.462  1.00  0.00    -0.062 A  
HETATM    9  C   UNK A   0     -10.359   9.279  67.795  1.00  0.00    -0.237 A  
HETATM   10  H2  UNK A   0      -6.402  10.239  67.779  1.00  0.00     0.000 HD 
HETATM   11  N   UNK A   0      -9.080   9.618  67.524  1.00  0.00    -0.130 NA 
HETATM   12  H1  UNK A   0      -5.435  10.324  66.440  1.00  0.00     0.000 HD 
HETATM   13  C   UNK A   0      -8.321   8.686  66.868  1.00  0.00    -0.108 A  
HETATM   14  C   UNK A   0      -7.028   8.936  66.427  1.00  0.00    -0.079 A  
HETATM   15  N   UNK A   0      -6.384  10.140  66.764  1.00  0.00    -0.068 NA 
HETATM   16  N   UNK A   0      -6.302   8.076  65.700  1.00  0.00    -0.042 NA 
ENDROOT
BRANCH   9  17
HETATM   17  C   UNK A   0     -11.268  10.354  68.340  1.00  0.00    -0.318 C  
HETATM   18  C   UNK A   0     -10.989   9.438  70.702  1.00  0.00    -0.352 A  
HETATM   19  C   UNK A   0     -12.106   8.585  70.738  1.00  0.00    -0.075 A  
HETATM   20  C   UNK A   0      -9.835   9.066  71.407  1.00  0.00    -0.381 A  
HETATM   21  C   UNK A   0     -10.975  10.697  69.829  1.00  0.00    -0.340 C  
HETATM   22  C   UNK A   0      -9.756   7.819  72.030  1.00  0.00    -0.224 A  
HETATM   23  C   UNK A   0     -12.031   7.337  71.362  1.00  0.00    -0.354 A  
HETATM   24  C   UNK A   0     -11.946  11.747  70.401  1.00  0.00    -0.422 C  
HETATM   25  C   UNK A   0     -10.832   6.931  71.956  1.00  0.00    -0.255 A  
BRANCH  24  26
HETATM   26  C   UNK A   0     -11.926  13.031  69.677  1.00  0.00    -0.367 C  
HETATM   27  C   UNK A   0     -11.983  14.076  69.088  1.00  0.00    -0.400 C  
ENDBRANCH  24  26
BRANCH  25  28
HETATM   28  C   UNK A   0     -10.711   5.545  72.472  1.00  0.00    -0.240 C  
HETATM   29  O   UNK A   0     -11.626   5.019  73.093  1.00  0.00    -0.328 OA 
ATOM     30  N   GLU A   1      -9.527   4.883  72.155  1.00  0.00    -0.142 N  
ATOM     31  H   GLU A   1      -8.760   5.386  71.707  1.00  0.00     0.000 HD 
BRANCH  30  32
ATOM     32  CA  GLU A   1      -9.393   3.446  72.473  1.00  0.00    -0.108 C  
ATOM     33  O   GLU A   1      -7.055   4.058  72.413  1.00  0.00    -0.051 OA 
ATOM     34  C   GLU A   1      -7.941   3.154  72.901  1.00  0.00    -0.071 C  
ATOM     35  OXT GLU A   1      -7.585   2.139  73.482  1.00  0.00    -0.040 OA 
BRANCH  32  36
ATOM     36  CB  GLU A   1      -9.760   2.592  71.247  1.00  0.00    -0.201 C  
BRANCH  36  37
ATOM     37  CG  GLU A   1      -8.789   2.767  70.073  1.00  0.00    -0.145 C  
ATOM     38  CD  GLU A   1      -9.232   3.834  69.103  1.00  0.00    -0.160 C  
ATOM     39  OE2 GLU A   1     -10.248   4.499  69.202  1.00  0.00    -0.103 OA 
ATOM     40  OE1 GLU A   1      -8.356   3.993  68.084  1.00  0.00    -0.090 OA 
ENDBRANCH  36  37
ENDBRANCH  32  36
ENDBRANCH  30  32
ENDBRANCH  25  28
ENDBRANCH   9  17
TORSDOF 6
ENDMDL
MODEL       88
REMARK 921   NORMALIZED FREE ENERGY PREDICTED BY IDOCK:   -5.01 KCAL/MOL
REMARK 922        TOTAL FREE ENERGY PREDICTED BY IDOCK:   -8.18 KCAL/MOL
REMARK 923 INTER-LIGAND FREE ENERGY PREDICTED BY IDOCK:   -8.21 KCAL/MOL
REMARK 924 INTRA-LIGAND FREE ENERGY PREDICTED BY IDOCK:    0.03 KCAL/MOL
REMARK 927      BINDING AFFINITY PREDICTED BY RF-SCORE:    0.00 PKD
ROOT
HETATM    1  N   UNK A   0      -5.244  11.193  71.273  1.00  0.00    -0.231 NA 
HETATM    2  C   UNK A   0      -5.671  12.087  70.321  1.00  0.00    -0.159 A  
HETATM    3  H2  UNK A   0      -5.259  11.432  72.264  1.00  0.00     0.000 HD 
HETATM    4  H1  UNK A   0      -4.911  10.283  70.956  1.00  0.00     0.000 HD 
HETATM    5  N   UNK A   0      -6.105  13.273  70.735  1.00  0.00    -0.124 NA 
HETATM    6  C   UNK A   0      -6.598  14.107  69.822  1.00  0.00    -0.104 A  
HETATM    7  N   UNK A   0      -7.113  15.266  70.246  1.00  0.00     0.073 NA 
HETATM    8  C   UNK A   0      -7.710  16.072  69.337  1.00  0.00    -0.173 A  
HETATM    9  C   UNK A   0      -7.791  15.756  67.989  1.00  0.00    -0.132 A  
HETATM   10  H2  UNK A   0      -5.547  12.822  66.276  1.00  0.00     0.000 HD 
HETATM   11  N   UNK A   0      -7.229  14.618  67.528  1.00  0.00    -0.190 NA 
HETATM   12  H1  UNK A   0      -5.682  11.202  66.581  1.00  0.00     0.000 HD 
HETATM   13  C   UNK A   0      -6.648  13.798  68.458  1.00  0.00    -0.099 A  
HETATM   14  C   UNK A   0      -6.131  12.547  68.147  1.00  0.00    -0.069 A  
HETATM   15  N   UNK A   0      -6.061  12.121  66.809  1.00  0.00    -0.200 NA 
HETATM   16  N   UNK A   0      -5.645  11.687  69.054  1.00  0.00    -0.050 NA 
ENDROOT
BRANCH   9  17
HETATM   17  C   UNK A   0      -8.604  16.579  67.018  1.00  0.00    -0.219 C  
HETATM   18  C   UNK A   0     -10.769  15.672  68.012  1.00  0.00    -0.287 A  
HETATM   19  C   UNK A   0     -10.971  14.588  67.140  1.00  0.00    -0.304 A  
HETATM   20  C   UNK A   0     -11.180  15.549  69.347  1.00  0.00    -0.302 A  
HETATM   21  C   UNK A   0     -10.020  16.930  67.559  1.00  0.00    -0.268 C  
HETATM   22  C   UNK A   0     -11.667  14.333  69.829  1.00  0.00    -0.367 A  
HETATM   23  C   UNK A   0     -11.460  13.370  67.620  1.00  0.00    -0.353 A  
HETATM   24  C   UNK A   0     -10.870  17.713  66.541  1.00  0.00     0.055 C  
HETATM   25  C   UNK A   0     -11.750  13.227  68.980  1.00  0.00    -0.368 A  
BRANCH  24  26
HETATM   26  C   UNK A   0     -10.266  18.991  66.122  1.00  0.00    -0.508 C  
HETATM   27  C   UNK A   0      -9.740  20.035  65.846  1.00  0.00    -0.387 C  
ENDBRANCH  24  26
BRANCH  25  28
HETATM   28  C   UNK A   0     -12.113  11.888  69.508  1.00  0.00    -0.226 C  
HETATM   29  O   UNK A   0     -12.522  11.005  68.765  1.00  0.00    -0.468 OA 
ATOM     30  N   GLU A   1     -11.904  11.700  70.872  1.00  0.00    -0.330 N  
ATOM     31  H   GLU A   1     -11.640  12.486  71.466  1.00  0.00     0.000 HD 
BRANCH  30  32
ATOM     32  CA  GLU A   1     -12.069  10.349  71.450  1.00  0.00    -0.327 C  
ATOM     33  O   GLU A   1      -9.982  10.025  70.274  1.00  0.00    -0.244 OA 
ATOM     34  C   GLU A   1     -10.751   9.565  71.292  1.00  0.00    -0.316 C  
ATOM     35  OXT GLU A   1     -10.480   8.541  71.903  1.00  0.00    -0.262 OA 
BRANCH  32  36
ATOM     36  CB  GLU A   1     -13.211   9.601  70.740  1.00  0.00    -0.108 C  
BRANCH  36  37
ATOM     37  CG  GLU A   1     -14.021   8.700  71.680  1.00  0.00    -0.459 C  
ATOM     38  CD  GLU A   1     -13.699   7.236  71.508  1.00  0.00    -0.351 C  
ATOM     39  OE2 GLU A   1     -12.894   6.780  70.713  1.00  0.00    -0.205 OA 
ATOM     40  OE1 GLU A   1     -14.404   6.454  72.357  1.00  0.00    -0.150 OA 
ENDBRANCH  36  37
ENDBRANCH  32  36
ENDBRANCH  30  32
ENDBRANCH  25  28
ENDBRANCH   9  17
TORSDOF 6
ENDMDL
MODEL       89
REMARK 921   NORMALIZED FREE ENERGY PREDICTED BY IDOCK:   -5.00 KCAL/MOL
REMARK 922        TOTAL FREE ENERGY PREDICTED BY IDOCK:   -8.17 KCAL/MOL
REMARK 923 INTER-LIGAND FREE ENERGY PREDICTED BY IDOCK:   -6.62 KCAL/MOL
REMARK 924 INTRA-LIGAND FREE ENERGY PREDICTED BY IDOCK:   -1.55 KCAL/MOL
REMARK 927      BINDING AFFINITY PREDICTED BY RF-SCORE:    0.00 PKD
ROOT
HETATM    1  N   UNK A   0      -8.471   8.706  74.193  1.00  0.00    -0.330 NA 
HETATM    2  C   UNK A   0      -8.763   8.173  72.961  1.00  0.00    -0.243 A  
HETATM    3  H2  UNK A   0      -7.511   8.759  74.531  1.00  0.00     0.000 HD 
HETATM    4  H1  UNK A   0      -9.248   9.048  74.759  1.00  0.00     0.000 HD 
HETATM    5  N   UNK A   0      -7.750   7.728  72.224  1.00  0.00    -0.093 NA 
HETATM    6  C   UNK A   0      -8.022   7.289  70.996  1.00  0.00    -0.098 A  
HETATM    7  N   UNK A   0      -6.995   6.920  70.222  1.00  0.00    -0.064 NA 
HETATM    8  C   UNK A   0      -7.254   6.572  68.939  1.00  0.00    -0.084 A  
HETATM    9  C   UNK A   0      -8.533   6.564  68.404  1.00  0.00    -0.120 A  
HETATM   10  H2  UNK A   0     -11.885   6.718  70.712  1.00  0.00     0.000 HD 
HETATM   11  N   UNK A   0      -9.591   6.878  69.183  1.00  0.00    -0.145 NA 
HETATM   12  H1  UNK A   0     -12.365   8.007  71.631  1.00  0.00     0.000 HD 
HETATM   13  C   UNK A   0      -9.318   7.250  70.472  1.00  0.00    -0.158 A  
HETATM   14  C   UNK A   0     -10.292   7.706  71.352  1.00  0.00    -0.196 A  
HETATM   15  N   UNK A   0     -11.649   7.672  70.985  1.00  0.00    -0.280 NA 
HETATM   16  N   UNK A   0     -10.037   8.166  72.584  1.00  0.00    -0.297 NA 
ENDROOT
BRANCH   9  17
HETATM   17  C   UNK A   0      -8.788   6.339  66.933  1.00  0.00    -0.115 C  
HETATM   18  C   UNK A   0      -8.350   8.803  66.448  1.00  0.00    -0.117 A  
HETATM   19  C   UNK A   0      -9.671   9.278  66.524  1.00  0.00    -0.305 A  
HETATM   20  C   UNK A   0      -7.307   9.644  66.862  1.00  0.00    -0.091 A  
HETATM   21  C   UNK A   0      -8.044   7.362  66.027  1.00  0.00    -0.124 C  
HETATM   22  C   UNK A   0      -7.584  10.879  67.451  1.00  0.00    -0.100 A  
HETATM   23  C   UNK A   0      -9.952  10.515  67.111  1.00  0.00    -0.234 A  
HETATM   24  C   UNK A   0      -8.358   7.171  64.531  1.00  0.00     0.085 C  
HETATM   25  C   UNK A   0      -8.908  11.287  67.630  1.00  0.00    -0.138 A  
BRANCH  24  26
HETATM   26  C   UNK A   0      -8.002   5.836  64.016  1.00  0.00    -0.121 C  
HETATM   27  C   UNK A   0      -7.726   4.722  63.663  1.00  0.00    -0.071 C  
ENDBRANCH  24  26
BRANCH  25  28
HETATM   28  C   UNK A   0      -9.228  12.519  68.394  1.00  0.00    -0.139 C  
HETATM   29  O   UNK A   0      -8.367  13.357  68.633  1.00  0.00    -0.117 OA 
ATOM     30  N   GLU A   1     -10.563  12.673  68.761  1.00  0.00    -0.351 N  
ATOM     31  H   GLU A   1     -11.228  11.913  68.613  1.00  0.00     0.000 HD 
BRANCH  30  32
ATOM     32  CA  GLU A   1     -11.005  13.946  69.366  1.00  0.00    -0.126 C  
ATOM     33  O   GLU A   1     -12.444  12.417  70.565  1.00  0.00    -0.278 OA 
ATOM     34  C   GLU A   1     -11.870  13.646  70.607  1.00  0.00    -0.154 C  
ATOM     35  OXT GLU A   1     -12.148  14.467  71.469  1.00  0.00    -0.349 OA 
BRANCH  32  36
ATOM     36  CB  GLU A   1     -11.817  14.767  68.349  1.00  0.00    -0.319 C  
BRANCH  36  37
ATOM     37  CG  GLU A   1     -11.073  16.007  67.838  1.00  0.00    -0.307 C  
ATOM     38  CD  GLU A   1     -10.720  15.914  66.374  1.00  0.00    -0.256 C  
ATOM     39  OE2 GLU A   1     -10.974  14.970  65.646  1.00  0.00    -0.331 OA 
ATOM     40  OE1 GLU A   1     -10.083  17.022  65.931  1.00  0.00    -0.456 OA 
ENDBRANCH  36  37
ENDBRANCH  32  36
ENDBRANCH  30  32
ENDBRANCH  25  28
ENDBRANCH   9  17
TORSDOF 6
ENDMDL
MODEL       90
REMARK 921   NORMALIZED FREE ENERGY PREDICTED BY IDOCK:   -4.99 KCAL/MOL
REMARK 922        TOTAL FREE ENERGY PREDICTED BY IDOCK:   -8.15 KCAL/MOL
REMARK 923 INTER-LIGAND FREE ENERGY PREDICTED BY IDOCK:   -8.16 KCAL/MOL
REMARK 924 INTRA-LIGAND FREE ENERGY PREDICTED BY IDOCK:    0.00 KCAL/MOL
REMARK 927      BINDING AFFINITY PREDICTED BY RF-SCORE:    0.00 PKD
ROOT
HETATM    1  N   UNK A   0      -9.069  10.196  62.820  1.00  0.00    -0.260 NA 
HETATM    2  C   UNK A   0      -9.640  10.654  63.982  1.00  0.00    -0.299 A  
HETATM    3  H2  UNK A   0      -8.648   9.268  62.769  1.00  0.00     0.000 HD 
HETATM    4  H1  UNK A   0      -9.081  10.814  62.009  1.00  0.00     0.000 HD 
HETATM    5  N   UNK A   0      -9.625   9.847  65.039  1.00  0.00    -0.290 NA 
HETATM    6  C   UNK A   0     -10.253  10.256  66.140  1.00  0.00    -0.217 A  
HETATM    7  N   UNK A   0     -10.311   9.412  67.176  1.00  0.00    -0.251 NA 
HETATM    8  C   UNK A   0     -11.036   9.778  68.260  1.00  0.00    -0.164 A  
HETATM    9  C   UNK A   0     -11.699  10.993  68.347  1.00  0.00    -0.259 A  
HETATM   10  H2  UNK A   0     -10.952  14.094  65.815  1.00  0.00     0.000 HD 
HETATM   11  N   UNK A   0     -11.607  11.885  67.336  1.00  0.00    -0.490 NA 
HETATM   12  H1  UNK A   0     -11.287  14.119  64.196  1.00  0.00     0.000 HD 
HETATM   13  C   UNK A   0     -10.891  11.497  66.236  1.00  0.00    -0.282 A  
HETATM   14  C   UNK A   0     -10.805  12.262  65.079  1.00  0.00    -0.298 A  
HETATM   15  N   UNK A   0     -11.350  13.558  65.045  1.00  0.00    -0.312 NA 
HETATM   16  N   UNK A   0     -10.192  11.862  63.957  1.00  0.00    -0.331 NA 
ENDROOT
BRANCH   9  17
HETATM   17  C   UNK A   0     -12.638  11.318  69.484  1.00  0.00     0.027 C  
HETATM   18  C   UNK A   0     -11.438   9.650  70.993  1.00  0.00    -0.444 A  
HETATM   19  C   UNK A   0     -12.243   8.523  70.755  1.00  0.00    -0.018 A  
HETATM   20  C   UNK A   0     -10.071   9.462  71.240  1.00  0.00    -0.309 A  
HETATM   21  C   UNK A   0     -12.002  11.070  70.882  1.00  0.00    -0.391 C  
HETATM   22  C   UNK A   0      -9.499   8.193  71.131  1.00  0.00    -0.192 A  
HETATM   23  C   UNK A   0     -11.674   7.251  70.646  1.00  0.00    -0.310 A  
HETATM   24  C   UNK A   0     -12.984  11.340  72.038  1.00  0.00    -0.379 C  
HETATM   25  C   UNK A   0     -10.291   7.098  70.775  1.00  0.00    -0.219 A  
BRANCH  24  26
HETATM   26  C   UNK A   0     -13.504  12.719  72.066  1.00  0.00    -0.540 C  
HETATM   27  C   UNK A   0     -13.913  13.848  72.016  1.00  0.00    -0.585 C  
ENDBRANCH  24  26
BRANCH  25  28
HETATM   28  C   UNK A   0      -9.678   5.774  70.498  1.00  0.00    -0.177 C  
HETATM   29  O   UNK A   0     -10.362   4.760  70.446  1.00  0.00    -0.223 OA 
ATOM     30  N   GLU A   1      -8.307   5.783  70.253  1.00  0.00    -0.115 N  
ATOM     31  H   GLU A   1      -7.765   6.636  70.388  1.00  0.00     0.000 HD 
BRANCH  30  32
ATOM     32  CA  GLU A   1      -7.646   4.543  69.796  1.00  0.00    -0.054 C  
ATOM     33  O   GLU A   1      -5.800   5.562  70.979  1.00  0.00    -0.018 OA 
ATOM     34  C   GLU A   1      -6.301   4.383  70.532  1.00  0.00    -0.022 C  
ATOM     35  OXT GLU A   1      -5.661   3.342  70.582  1.00  0.00    -0.012 OA 
BRANCH  32  36
ATOM     36  CB  GLU A   1      -7.408   4.593  68.277  1.00  0.00    -0.065 C  
BRANCH  36  37
ATOM     37  CG  GLU A   1      -8.580   4.035  67.461  1.00  0.00    -0.109 C  
ATOM     38  CD  GLU A   1      -9.464   5.117  66.891  1.00  0.00    -0.139 C  
ATOM     39  OE2 GLU A   1      -9.302   6.315  67.048  1.00  0.00    -0.120 OA 
ATOM     40  OE1 GLU A   1     -10.481   4.611  66.157  1.00  0.00    -0.289 OA 
ENDBRANCH  36  37
ENDBRANCH  32  36
ENDBRANCH  30  32
ENDBRANCH  25  28
ENDBRANCH   9  17
TORSDOF 6
ENDMDL
MODEL       91
REMARK 921   NORMALIZED FREE ENERGY PREDICTED BY IDOCK:   -4.97 KCAL/MOL
REMARK 922        TOTAL FREE ENERGY PREDICTED BY IDOCK:   -8.12 KCAL/MOL
REMARK 923 INTER-LIGAND FREE ENERGY PREDICTED BY IDOCK:   -7.10 KCAL/MOL
REMARK 924 INTRA-LIGAND FREE ENERGY PREDICTED BY IDOCK:   -1.02 KCAL/MOL
REMARK 927      BINDING AFFINITY PREDICTED BY RF-SCORE:    0.00 PKD
ROOT
HETATM    1  N   UNK A   0      -5.512  12.845  71.157  1.00  0.00    -0.282 NA 
HETATM    2  C   UNK A   0      -5.687  11.655  70.492  1.00  0.00    -0.148 A  
HETATM    3  H2  UNK A   0      -5.123  13.660  70.684  1.00  0.00     0.000 HD 
HETATM    4  H1  UNK A   0      -5.785  12.885  72.139  1.00  0.00     0.000 HD 
HETATM    5  N   UNK A   0      -5.332  11.602  69.212  1.00  0.00    -0.048 NA 
HETATM    6  C   UNK A   0      -5.580  10.477  68.545  1.00  0.00    -0.040 A  
HETATM    7  N   UNK A   0      -5.301  10.451  67.237  1.00  0.00    -0.040 NA 
HETATM    8  C   UNK A   0      -5.647   9.349  66.531  1.00  0.00    -0.053 A  
HETATM    9  C   UNK A   0      -6.255   8.245  67.108  1.00  0.00    -0.056 A  
HETATM   10  H2  UNK A   0      -6.372   7.650  71.135  1.00  0.00     0.000 HD 
HETATM   11  N   UNK A   0      -6.495   8.226  68.437  1.00  0.00    -0.057 NA 
HETATM   12  H1  UNK A   0      -7.204   8.577  72.223  1.00  0.00     0.000 HD 
HETATM   13  C   UNK A   0      -6.163   9.353  69.139  1.00  0.00    -0.041 A  
HETATM   14  C   UNK A   0      -6.454   9.519  70.488  1.00  0.00    -0.086 A  
HETATM   15  N   UNK A   0      -6.990   8.455  71.233  1.00  0.00    -0.061 NA 
HETATM   16  N   UNK A   0      -6.227  10.648  71.173  1.00  0.00    -0.326 NA 
ENDROOT
BRANCH   9  17
HETATM   17  C   UNK A   0      -6.787   7.096  66.284  1.00  0.00    -0.057 C  
HETATM   18  C   UNK A   0      -8.794   8.496  65.571  1.00  0.00    -0.196 A  
HETATM   19  C   UNK A   0      -9.702   8.097  66.567  1.00  0.00    -0.309 A  
HETATM   20  C   UNK A   0      -8.866   9.807  65.080  1.00  0.00    -0.224 A  
HETATM   21  C   UNK A   0      -7.674   7.565  65.095  1.00  0.00    -0.111 C  
HETATM   22  C   UNK A   0      -9.739  10.732  65.655  1.00  0.00    -0.287 A  
HETATM   23  C   UNK A   0     -10.579   9.020  67.144  1.00  0.00    -0.291 A  
HETATM   24  C   UNK A   0      -8.267   6.390  64.295  1.00  0.00    -0.005 C  
HETATM   25  C   UNK A   0     -10.551  10.354  66.727  1.00  0.00    -0.270 A  
BRANCH  24  26
HETATM   26  C   UNK A   0      -7.251   5.493  63.716  1.00  0.00    -0.050 C  
HETATM   27  C   UNK A   0      -6.431   4.797  63.180  1.00  0.00    -0.026 C  
ENDBRANCH  24  26
BRANCH  25  28
HETATM   28  C   UNK A   0     -11.367  11.359  67.454  1.00  0.00    -0.288 C  
HETATM   29  O   UNK A   0     -12.243  11.014  68.237  1.00  0.00    -0.582 OA 
ATOM     30  N   GLU A   1     -11.030  12.691  67.225  1.00  0.00    -0.248 N  
ATOM     31  H   GLU A   1     -10.351  12.933  66.504  1.00  0.00     0.000 HD 
BRANCH  30  32
ATOM     32  CA  GLU A   1     -11.668  13.748  68.037  1.00  0.00    -0.355 C  
ATOM     33  O   GLU A   1      -9.704  14.947  67.297  1.00  0.00    -0.224 OA 
ATOM     34  C   GLU A   1     -10.973  15.095  67.755  1.00  0.00    -0.306 C  
ATOM     35  OXT GLU A   1     -11.437  16.186  68.051  1.00  0.00    -0.289 OA 
BRANCH  32  36
ATOM     36  CB  GLU A   1     -11.561  13.409  69.534  1.00  0.00    -0.352 C  
BRANCH  36  37
ATOM     37  CG  GLU A   1     -12.726  13.959  70.365  1.00  0.00    -0.286 C  
ATOM     38  CD  GLU A   1     -12.304  15.060  71.307  1.00  0.00    -0.323 C  
ATOM     39  OE2 GLU A   1     -11.168  15.486  71.429  1.00  0.00    -0.368 OA 
ATOM     40  OE1 GLU A   1     -13.344  15.551  72.019  1.00  0.00    -0.412 OA 
ENDBRANCH  36  37
ENDBRANCH  32  36
ENDBRANCH  30  32
ENDBRANCH  25  28
ENDBRANCH   9  17
TORSDOF 6
ENDMDL
MODEL       92
REMARK 921   NORMALIZED FREE ENERGY PREDICTED BY IDOCK:   -4.96 KCAL/MOL
REMARK 922        TOTAL FREE ENERGY PREDICTED BY IDOCK:   -8.11 KCAL/MOL
REMARK 923 INTER-LIGAND FREE ENERGY PREDICTED BY IDOCK:   -6.58 KCAL/MOL
REMARK 924 INTRA-LIGAND FREE ENERGY PREDICTED BY IDOCK:   -1.53 KCAL/MOL
REMARK 927      BINDING AFFINITY PREDICTED BY RF-SCORE:    0.00 PKD
ROOT
HETATM    1  N   UNK A   0      -9.038  13.017  68.578  1.00  0.00    -0.368 NA 
HETATM    2  C   UNK A   0      -8.412  11.856  68.191  1.00  0.00    -0.163 A  
HETATM    3  H2  UNK A   0      -9.711  13.481  67.969  1.00  0.00     0.000 HD 
HETATM    4  H1  UNK A   0      -8.806  13.399  69.495  1.00  0.00     0.000 HD 
HETATM    5  N   UNK A   0      -8.714  11.358  66.996  1.00  0.00    -0.155 NA 
HETATM    6  C   UNK A   0      -8.174  10.190  66.657  1.00  0.00    -0.123 A  
HETATM    7  N   UNK A   0      -8.542   9.646  65.491  1.00  0.00    -0.139 NA 
HETATM    8  C   UNK A   0      -8.077   8.411  65.187  1.00  0.00    -0.147 A  
HETATM    9  C   UNK A   0      -7.226   7.700  66.019  1.00  0.00    -0.070 A  
HETATM   10  H2  UNK A   0      -5.221   9.429  69.113  1.00  0.00     0.000 HD 
HETATM   11  N   UNK A   0      -6.796   8.252  67.174  1.00  0.00    -0.069 NA 
HETATM   12  H1  UNK A   0      -5.911  10.049  70.483  1.00  0.00     0.000 HD 
HETATM   13  C   UNK A   0      -7.288   9.492  67.484  1.00  0.00    -0.090 A  
HETATM   14  C   UNK A   0      -7.023  10.133  68.688  1.00  0.00    -0.062 A  
HETATM   15  N   UNK A   0      -6.106   9.579  69.599  1.00  0.00    -0.039 NA 
HETATM   16  N   UNK A   0      -7.569  11.300  69.055  1.00  0.00    -0.126 NA 
ENDROOT
BRANCH   9  17
HETATM   17  C   UNK A   0      -6.852   6.262  65.749  1.00  0.00    -0.053 C  
HETATM   18  C   UNK A   0      -9.008   5.462  66.849  1.00  0.00    -0.110 A  
HETATM   19  C   UNK A   0      -8.524   5.260  68.153  1.00  0.00    -0.096 A  
HETATM   20  C   UNK A   0     -10.333   5.889  66.681  1.00  0.00    -0.283 A  
HETATM   21  C   UNK A   0      -8.091   5.328  65.629  1.00  0.00    -0.117 C  
HETATM   22  C   UNK A   0     -11.115   6.224  67.788  1.00  0.00    -0.361 A  
HETATM   23  C   UNK A   0      -9.306   5.592  69.263  1.00  0.00    -0.150 A  
HETATM   24  C   UNK A   0      -7.705   3.851  65.419  1.00  0.00    -0.082 C  
HETATM   25  C   UNK A   0     -10.581   6.133  69.075  1.00  0.00    -0.341 A  
BRANCH  24  26
HETATM   26  C   UNK A   0      -6.899   3.616  64.207  1.00  0.00    -0.045 C  
HETATM   27  C   UNK A   0      -6.199   3.378  63.260  1.00  0.00    -0.014 C  
ENDBRANCH  24  26
BRANCH  25  28
HETATM   28  C   UNK A   0     -11.337   6.633  70.250  1.00  0.00    -0.374 C  
HETATM   29  O   UNK A   0     -11.731   5.868  71.122  1.00  0.00    -0.126 OA 
ATOM     30  N   GLU A   1     -11.514   8.014  70.312  1.00  0.00    -0.456 N  
ATOM     31  H   GLU A   1     -11.242   8.603  69.525  1.00  0.00     0.000 HD 
BRANCH  30  32
ATOM     32  CA  GLU A   1     -12.098   8.615  71.529  1.00  0.00    -0.316 C  
ATOM     33  O   GLU A   1     -11.918  10.596  70.156  1.00  0.00    -0.283 OA 
ATOM     34  C   GLU A   1     -12.570  10.047  71.212  1.00  0.00    -0.393 C  
ATOM     35  OXT GLU A   1     -13.332  10.694  71.916  1.00  0.00    -0.424 OA 
BRANCH  32  36
ATOM     36  CB  GLU A   1     -11.056   8.646  72.661  1.00  0.00    -0.084 C  
BRANCH  36  37
ATOM     37  CG  GLU A   1      -9.609   8.662  72.154  1.00  0.00    -0.378 C  
ATOM     38  CD  GLU A   1      -8.641   8.038  73.129  1.00  0.00    -0.220 C  
ATOM     39  OE2 GLU A   1      -8.937   7.570  74.215  1.00  0.00    -0.230 OA 
ATOM     40  OE1 GLU A   1      -7.372   8.039  72.660  1.00  0.00    -0.093 OA 
ENDBRANCH  36  37
ENDBRANCH  32  36
ENDBRANCH  30  32
ENDBRANCH  25  28
ENDBRANCH   9  17
TORSDOF 6
ENDMDL
MODEL       93
REMARK 921   NORMALIZED FREE ENERGY PREDICTED BY IDOCK:   -4.95 KCAL/MOL
REMARK 922        TOTAL FREE ENERGY PREDICTED BY IDOCK:   -8.10 KCAL/MOL
REMARK 923 INTER-LIGAND FREE ENERGY PREDICTED BY IDOCK:   -6.54 KCAL/MOL
REMARK 924 INTRA-LIGAND FREE ENERGY PREDICTED BY IDOCK:   -1.56 KCAL/MOL
REMARK 927      BINDING AFFINITY PREDICTED BY RF-SCORE:    0.00 PKD
ROOT
HETATM    1  N   UNK A   0      -5.658   5.921  65.667  1.00  0.00    -0.016 NA 
HETATM    2  C   UNK A   0      -6.773   6.720  65.591  1.00  0.00    -0.051 A  
HETATM    3  H2  UNK A   0      -4.841   6.099  65.084  1.00  0.00     0.000 HD 
HETATM    4  H1  UNK A   0      -5.675   5.144  66.327  1.00  0.00     0.000 HD 
HETATM    5  N   UNK A   0      -6.751   7.734  64.731  1.00  0.00    -0.050 NA 
HETATM    6  C   UNK A   0      -7.796   8.559  64.717  1.00  0.00    -0.125 A  
HETATM    7  N   UNK A   0      -7.740   9.627  63.914  1.00  0.00    -0.125 NA 
HETATM    8  C   UNK A   0      -8.751  10.525  63.971  1.00  0.00    -0.169 A  
HETATM    9  C   UNK A   0      -9.846  10.374  64.808  1.00  0.00    -0.340 A  
HETATM   10  H2  UNK A   0     -10.749   6.848  66.636  1.00  0.00     0.000 HD 
HETATM   11  N   UNK A   0      -9.952   9.275  65.587  1.00  0.00    -0.196 NA 
HETATM   12  H1  UNK A   0      -9.849   6.115  67.814  1.00  0.00     0.000 HD 
HETATM   13  C   UNK A   0      -8.914   8.384  65.539  1.00  0.00    -0.098 A  
HETATM   14  C   UNK A   0      -8.834   7.270  66.365  1.00  0.00    -0.149 A  
HETATM   15  N   UNK A   0      -9.908   6.932  67.207  1.00  0.00    -0.142 NA 
HETATM   16  N   UNK A   0      -7.785   6.437  66.405  1.00  0.00    -0.097 NA 
ENDROOT
BRANCH   9  17
HETATM   17  C   UNK A   0     -10.879  11.460  64.986  1.00  0.00    -0.311 C  
HETATM   18  C   UNK A   0     -10.278  11.673  67.454  1.00  0.00    -0.226 A  
HETATM   19  C   UNK A   0     -11.232  10.789  67.987  1.00  0.00    -0.372 A  
HETATM   20  C   UNK A   0      -9.030  11.777  68.084  1.00  0.00    -0.181 A  
HETATM   21  C   UNK A   0     -10.538  12.435  66.150  1.00  0.00    -0.283 C  
HETATM   22  C   UNK A   0      -8.698  10.931  69.145  1.00  0.00    -0.055 A  
HETATM   23  C   UNK A   0     -10.904   9.942  69.050  1.00  0.00    -0.242 A  
HETATM   24  C   UNK A   0     -11.626  13.503  66.371  1.00  0.00    -0.381 C  
HETATM   25  C   UNK A   0      -9.614   9.974  69.587  1.00  0.00    -0.251 A  
BRANCH  24  26
HETATM   26  C   UNK A   0     -11.873  14.351  65.190  1.00  0.00    -0.386 C  
HETATM   27  C   UNK A   0     -12.147  15.025  64.235  1.00  0.00    -0.323 C  
ENDBRANCH  24  26
BRANCH  25  28
HETATM   28  C   UNK A   0      -9.226   8.963  70.602  1.00  0.00    -0.213 C  
HETATM   29  O   UNK A   0      -9.282   9.215  71.799  1.00  0.00    -0.338 OA 
ATOM     30  N   GLU A   1      -8.856   7.716  70.103  1.00  0.00    -0.145 N  
ATOM     31  H   GLU A   1      -8.744   7.576  69.098  1.00  0.00     0.000 HD 
BRANCH  30  32
ATOM     32  CA  GLU A   1      -8.626   6.599  71.043  1.00  0.00    -0.137 C  
ATOM     33  O   GLU A   1      -6.666   6.354  69.648  1.00  0.00    -0.049 OA 
ATOM     34  C   GLU A   1      -7.184   6.081  70.873  1.00  0.00    -0.074 C  
ATOM     35  OXT GLU A   1      -6.609   5.364  71.679  1.00  0.00    -0.041 OA 
BRANCH  32  36
ATOM     36  CB  GLU A   1      -9.626   5.461  70.774  1.00  0.00    -0.228 C  
BRANCH  36  37
ATOM     37  CG  GLU A   1     -10.750   5.383  71.814  1.00  0.00    -0.271 C  
ATOM     38  CD  GLU A   1     -10.406   4.489  72.980  1.00  0.00    -0.178 C  
ATOM     39  OE2 GLU A   1      -9.363   3.872  73.112  1.00  0.00    -0.108 OA 
ATOM     40  OE1 GLU A   1     -11.397   4.446  73.900  1.00  0.00    -0.188 OA 
ENDBRANCH  36  37
ENDBRANCH  32  36
ENDBRANCH  30  32
ENDBRANCH  25  28
ENDBRANCH   9  17
TORSDOF 6
ENDMDL
MODEL       94
REMARK 921   NORMALIZED FREE ENERGY PREDICTED BY IDOCK:   -4.93 KCAL/MOL
REMARK 922        TOTAL FREE ENERGY PREDICTED BY IDOCK:   -8.07 KCAL/MOL
REMARK 923 INTER-LIGAND FREE ENERGY PREDICTED BY IDOCK:   -6.75 KCAL/MOL
REMARK 924 INTRA-LIGAND FREE ENERGY PREDICTED BY IDOCK:   -1.33 KCAL/MOL
REMARK 927      BINDING AFFINITY PREDICTED BY RF-SCORE:    0.00 PKD
ROOT
HETATM    1  N   UNK A   0     -10.438   9.749  64.762  1.00  0.00     0.080 NA 
HETATM    2  C   UNK A   0     -10.590  10.951  65.411  1.00  0.00    -0.173 A  
HETATM    3  H2  UNK A   0     -10.318   9.709  63.750  1.00  0.00     0.000 HD 
HETATM    4  H1  UNK A   0     -10.448   8.900  65.326  1.00  0.00     0.000 HD 
HETATM    5  N   UNK A   0     -10.577  12.058  64.676  1.00  0.00    -0.291 NA 
HETATM    6  C   UNK A   0     -10.639  13.226  65.312  1.00  0.00    -0.315 A  
HETATM    7  N   UNK A   0     -10.540  14.342  64.582  1.00  0.00    -0.383 NA 
HETATM    8  C   UNK A   0     -10.498  15.530  65.231  1.00  0.00    -0.411 A  
HETATM    9  C   UNK A   0     -10.572  15.637  66.611  1.00  0.00    -0.307 A  
HETATM   10  H2  UNK A   0     -11.798  12.571  68.994  1.00  0.00     0.000 HD 
HETATM   11  N   UNK A   0     -10.729  14.528  67.366  1.00  0.00    -0.278 NA 
HETATM   12  H1  UNK A   0     -10.988  11.148  69.229  1.00  0.00     0.000 HD 
HETATM   13  C   UNK A   0     -10.748  13.330  66.703  1.00  0.00    -0.280 A  
HETATM   14  C   UNK A   0     -10.791  12.104  67.355  1.00  0.00    -0.245 A  
HETATM   15  N   UNK A   0     -10.957  12.048  68.750  1.00  0.00    -0.228 NA 
HETATM   16  N   UNK A   0     -10.713  10.919  66.734  1.00  0.00    -0.264 NA 
ENDROOT
BRANCH   9  17
HETATM   17  C   UNK A   0     -10.354  16.947  67.329  1.00  0.00    -0.309 C  
HETATM   18  C   UNK A   0      -8.049  16.178  68.100  1.00  0.00    -0.149 A  
HETATM   19  C   UNK A   0      -8.406  15.643  69.350  1.00  0.00    -0.238 A  
HETATM   20  C   UNK A   0      -6.999  15.582  67.387  1.00  0.00    -0.232 A  
HETATM   21  C   UNK A   0      -8.849  17.320  67.464  1.00  0.00    -0.219 C  
HETATM   22  C   UNK A   0      -6.403  14.409  67.853  1.00  0.00    -0.173 A  
HETATM   23  C   UNK A   0      -7.809  14.470  69.820  1.00  0.00     0.274 A  
HETATM   24  C   UNK A   0      -8.628  18.624  68.254  1.00  0.00    -0.347 C  
HETATM   25  C   UNK A   0      -6.849  13.820  69.039  1.00  0.00    -0.111 A  
BRANCH  24  26
HETATM   26  C   UNK A   0      -9.285  19.799  67.656  1.00  0.00    -0.430 C  
HETATM   27  C   UNK A   0      -9.771  20.800  67.201  1.00  0.00    -0.457 C  
ENDBRANCH  24  26
BRANCH  25  28
HETATM   28  C   UNK A   0      -6.340  12.494  69.468  1.00  0.00    -0.112 C  
HETATM   29  O   UNK A   0      -5.222  12.372  69.952  1.00  0.00    -0.074 OA 
ATOM     30  N   GLU A   1      -7.232  11.432  69.333  1.00  0.00    -0.296 N  
ATOM     31  H   GLU A   1      -8.121  11.565  68.849  1.00  0.00     0.000 HD 
BRANCH  30  32
ATOM     32  CA  GLU A   1      -6.878  10.113  69.896  1.00  0.00    -0.124 C  
ATOM     33  O   GLU A   1      -6.625   9.619  67.543  1.00  0.00    -0.068 OA 
ATOM     34  C   GLU A   1      -6.251   9.240  68.791  1.00  0.00    -0.044 C  
ATOM     35  OXT GLU A   1      -5.611   8.219  68.998  1.00  0.00    -0.033 OA 
BRANCH  32  36
ATOM     36  CB  GLU A   1      -8.130   9.421  70.462  1.00  0.00    -0.212 C  
BRANCH  36  37
ATOM     37  CG  GLU A   1      -7.943   8.905  71.895  1.00  0.00     0.017 C  
ATOM     38  CD  GLU A   1      -8.138   7.414  72.009  1.00  0.00    -0.094 C  
ATOM     39  OE2 GLU A   1      -8.423   6.667  71.089  1.00  0.00    -0.124 OA 
ATOM     40  OE1 GLU A   1      -7.950   6.970  73.273  1.00  0.00    -0.096 OA 
ENDBRANCH  36  37
ENDBRANCH  32  36
ENDBRANCH  30  32
ENDBRANCH  25  28
ENDBRANCH   9  17
TORSDOF 6
ENDMDL
MODEL       95
REMARK 921   NORMALIZED FREE ENERGY PREDICTED BY IDOCK:   -4.91 KCAL/MOL
REMARK 922        TOTAL FREE ENERGY PREDICTED BY IDOCK:   -8.04 KCAL/MOL
REMARK 923 INTER-LIGAND FREE ENERGY PREDICTED BY IDOCK:   -6.48 KCAL/MOL
REMARK 924 INTRA-LIGAND FREE ENERGY PREDICTED BY IDOCK:   -1.56 KCAL/MOL
REMARK 927      BINDING AFFINITY PREDICTED BY RF-SCORE:    0.00 PKD
ROOT
HETATM    1  N   UNK A   0      -6.537   9.371  74.566  1.00  0.00    -0.351 NA 
HETATM    2  C   UNK A   0      -6.860   8.633  73.452  1.00  0.00     0.038 A  
HETATM    3  H2  UNK A   0      -7.244   9.912  75.062  1.00  0.00     0.000 HD 
HETATM    4  H1  UNK A   0      -5.566   9.358  74.879  1.00  0.00     0.000 HD 
HETATM    5  N   UNK A   0      -8.125   8.649  73.044  1.00  0.00    -0.409 NA 
HETATM    6  C   UNK A   0      -8.456   7.868  72.018  1.00  0.00    -0.132 A  
HETATM    7  N   UNK A   0      -9.744   7.819  71.659  1.00  0.00    -0.160 NA 
HETATM    8  C   UNK A   0     -10.104   6.950  70.685  1.00  0.00    -0.194 A  
HETATM    9  C   UNK A   0      -9.195   6.129  70.035  1.00  0.00    -0.151 A  
HETATM   10  H2  UNK A   0      -5.169   6.710  70.233  1.00  0.00     0.000 HD 
HETATM   11  N   UNK A   0      -7.881   6.202  70.341  1.00  0.00    -0.104 NA 
HETATM   12  H1  UNK A   0      -4.235   6.535  71.587  1.00  0.00     0.000 HD 
HETATM   13  C   UNK A   0      -7.530   7.068  71.342  1.00  0.00    -0.081 A  
HETATM   14  C   UNK A   0      -6.236   7.166  71.838  1.00  0.00    -0.040 A  
HETATM   15  N   UNK A   0      -5.185   6.462  71.223  1.00  0.00    -0.018 NA 
HETATM   16  N   UNK A   0      -5.886   7.933  72.879  1.00  0.00    -0.045 NA 
ENDROOT
BRANCH   9  17
HETATM   17  C   UNK A   0      -9.631   5.048  69.075  1.00  0.00    -0.214 C  
HETATM   18  C   UNK A   0      -9.255   6.610  67.096  1.00  0.00    -0.134 A  
HETATM   19  C   UNK A   0     -10.556   7.129  66.978  1.00  0.00    -0.413 A  
HETATM   20  C   UNK A   0      -8.168   7.438  66.779  1.00  0.00    -0.121 A  
HETATM   21  C   UNK A   0      -9.004   5.208  67.660  1.00  0.00    -0.112 C  
HETATM   22  C   UNK A   0      -8.369   8.785  66.472  1.00  0.00    -0.112 A  
HETATM   23  C   UNK A   0     -10.760   8.477  66.669  1.00  0.00     0.058 A  
HETATM   24  C   UNK A   0      -9.502   4.142  66.665  1.00  0.00    -0.206 C  
HETATM   25  C   UNK A   0      -9.660   9.318  66.476  1.00  0.00    -0.285 A  
BRANCH  24  26
HETATM   26  C   UNK A   0      -9.214   2.758  67.084  1.00  0.00    -0.176 C  
HETATM   27  C   UNK A   0      -9.026   1.608  67.373  1.00  0.00    -0.155 C  
ENDBRANCH  24  26
BRANCH  25  28
HETATM   28  C   UNK A   0      -9.882  10.776  66.310  1.00  0.00    -0.215 C  
HETATM   29  O   UNK A   0      -9.793  11.308  65.210  1.00  0.00    -0.224 OA 
ATOM     30  N   GLU A   1     -10.245  11.467  67.463  1.00  0.00    -0.183 N  
ATOM     31  H   GLU A   1     -10.226  11.001  68.370  1.00  0.00     0.000 HD 
BRANCH  30  32
ATOM     32  CA  GLU A   1     -10.656  12.883  67.359  1.00  0.00    -0.233 C  
ATOM     33  O   GLU A   1      -8.582  13.162  68.570  1.00  0.00    -0.148 OA 
ATOM     34  C   GLU A   1      -9.474  13.787  67.760  1.00  0.00    -0.216 C  
ATOM     35  OXT GLU A   1      -9.406  14.983  67.516  1.00  0.00    -0.191 OA 
BRANCH  32  36
ATOM     36  CB  GLU A   1     -11.859  13.158  68.278  1.00  0.00    -0.384 C  
BRANCH  36  37
ATOM     37  CG  GLU A   1     -11.909  12.238  69.504  1.00  0.00    -0.380 C  
ATOM     38  CD  GLU A   1     -12.498  12.912  70.718  1.00  0.00    -0.286 C  
ATOM     39  OE2 GLU A   1     -12.895  14.064  70.761  1.00  0.00    -0.323 OA 
ATOM     40  OE1 GLU A   1     -12.555  12.084  71.785  1.00  0.00    -0.185 OA 
ENDBRANCH  36  37
ENDBRANCH  32  36
ENDBRANCH  30  32
ENDBRANCH  25  28
ENDBRANCH   9  17
TORSDOF 6
ENDMDL
MODEL       96
REMARK 921   NORMALIZED FREE ENERGY PREDICTED BY IDOCK:   -4.90 KCAL/MOL
REMARK 922        TOTAL FREE ENERGY PREDICTED BY IDOCK:   -8.03 KCAL/MOL
REMARK 923 INTER-LIGAND FREE ENERGY PREDICTED BY IDOCK:   -7.61 KCAL/MOL
REMARK 924 INTRA-LIGAND FREE ENERGY PREDICTED BY IDOCK:   -0.42 KCAL/MOL
REMARK 927      BINDING AFFINITY PREDICTED BY RF-SCORE:    0.00 PKD
ROOT
HETATM    1  N   UNK A   0     -12.931  11.965  63.131  1.00  0.00    -0.780 NA 
HETATM    2  C   UNK A   0     -12.142  12.861  63.810  1.00  0.00    -0.508 A  
HETATM    3  H2  UNK A   0     -12.881  10.965  63.325  1.00  0.00     0.000 HD 
HETATM    4  H1  UNK A   0     -13.570  12.333  62.425  1.00  0.00     0.000 HD 
HETATM    5  N   UNK A   0     -11.311  12.382  64.730  1.00  0.00    -0.305 NA 
HETATM    6  C   UNK A   0     -10.609  13.256  65.448  1.00  0.00    -0.296 A  
HETATM    7  N   UNK A   0      -9.835  12.780  66.430  1.00  0.00    -0.264 NA 
HETATM    8  C   UNK A   0      -9.199  13.668  67.231  1.00  0.00    -0.232 A  
HETATM    9  C   UNK A   0      -9.301  15.041  67.063  1.00  0.00    -0.224 A  
HETATM   10  H2  UNK A   0     -10.779  16.739  63.669  1.00  0.00     0.000 HD 
HETATM   11  N   UNK A   0     -10.030  15.543  66.043  1.00  0.00    -0.304 NA 
HETATM   12  H1  UNK A   0     -12.344  16.641  63.145  1.00  0.00     0.000 HD 
HETATM   13  C   UNK A   0     -10.687  14.638  65.252  1.00  0.00    -0.381 A  
HETATM   14  C   UNK A   0     -11.561  15.012  64.239  1.00  0.00    -0.181 A  
HETATM   15  N   UNK A   0     -11.703  16.367  63.888  1.00  0.00    -1.024 NA 
HETATM   16  N   UNK A   0     -12.289  14.149  63.517  1.00  0.00    -0.717 NA 
ENDROOT
BRANCH   9  17
HETATM   17  C   UNK A   0      -8.727  16.018  68.060  1.00  0.00    -0.171 C  
HETATM   18  C   UNK A   0      -6.635  14.582  68.311  1.00  0.00    -0.119 A  
HETATM   19  C   UNK A   0      -7.034  13.810  69.417  1.00  0.00     0.002 A  
HETATM   20  C   UNK A   0      -5.808  13.996  67.343  1.00  0.00     0.270 A  
HETATM   21  C   UNK A   0      -7.171  16.002  68.096  1.00  0.00    -0.137 C  
HETATM   22  C   UNK A   0      -5.487  12.639  67.412  1.00  0.00    -0.074 A  
HETATM   23  C   UNK A   0      -6.712  12.452  69.490  1.00  0.00     0.015 A  
HETATM   24  C   UNK A   0      -6.590  16.952  69.161  1.00  0.00    -0.224 C  
HETATM   25  C   UNK A   0      -5.989  11.854  68.453  1.00  0.00    -0.049 A  
BRANCH  24  26
HETATM   26  C   UNK A   0      -6.978  18.362  68.972  1.00  0.00    -0.272 C  
HETATM   27  C   UNK A   0      -7.338  19.504  68.878  1.00  0.00    -0.398 C  
ENDBRANCH  24  26
BRANCH  25  28
HETATM   28  C   UNK A   0      -5.793  10.383  68.460  1.00  0.00    -0.040 C  
HETATM   29  O   UNK A   0      -5.157   9.834  69.350  1.00  0.00    -0.036 OA 
ATOM     30  N   GLU A   1      -6.421   9.686  67.430  1.00  0.00    -0.068 N  
ATOM     31  H   GLU A   1      -6.871  10.190  66.666  1.00  0.00     0.000 HD 
BRANCH  30  32
ATOM     32  CA  GLU A   1      -6.429   8.208  67.456  1.00  0.00    -0.057 C  
ATOM     33  O   GLU A   1      -6.167   8.561  65.079  1.00  0.00    -0.058 OA 
ATOM     34  C   GLU A   1      -5.968   7.673  66.086  1.00  0.00    -0.038 C  
ATOM     35  OXT GLU A   1      -5.607   6.523  65.880  1.00  0.00    -0.020 OA 
BRANCH  32  36
ATOM     36  CB  GLU A   1      -7.842   7.687  67.773  1.00  0.00    -0.120 C  
BRANCH  36  37
ATOM     37  CG  GLU A   1      -8.861   8.807  68.013  1.00  0.00    -0.141 C  
ATOM     38  CD  GLU A   1     -10.099   8.662  67.162  1.00  0.00    -0.261 C  
ATOM     39  OE2 GLU A   1     -10.300   7.771  66.355  1.00  0.00    -0.154 OA 
ATOM     40  OE1 GLU A   1     -10.999   9.645  67.399  1.00  0.00    -0.247 OA 
ENDBRANCH  36  37
ENDBRANCH  32  36
ENDBRANCH  30  32
ENDBRANCH  25  28
ENDBRANCH   9  17
TORSDOF 6
ENDMDL
MODEL       97
REMARK 921   NORMALIZED FREE ENERGY PREDICTED BY IDOCK:   -4.87 KCAL/MOL
REMARK 922        TOTAL FREE ENERGY PREDICTED BY IDOCK:   -7.99 KCAL/MOL
REMARK 923 INTER-LIGAND FREE ENERGY PREDICTED BY IDOCK:   -8.04 KCAL/MOL
REMARK 924 INTRA-LIGAND FREE ENERGY PREDICTED BY IDOCK:    0.05 KCAL/MOL
REMARK 927      BINDING AFFINITY PREDICTED BY RF-SCORE:    0.00 PKD
ROOT
HETATM    1  N   UNK A   0     -12.782   7.800  72.691  1.00  0.00    -0.494 NA 
HETATM    2  C   UNK A   0     -12.541   8.886  71.884  1.00  0.00    -0.377 A  
HETATM    3  H2  UNK A   0     -12.372   6.890  72.487  1.00  0.00     0.000 HD 
HETATM    4  H1  UNK A   0     -13.386   7.937  73.503  1.00  0.00     0.000 HD 
HETATM    5  N   UNK A   0     -11.754   8.709  70.827  1.00  0.00    -0.253 NA 
HETATM    6  C   UNK A   0     -11.451   9.778  70.094  1.00  0.00    -0.216 A  
HETATM    7  N   UNK A   0     -10.593   9.618  69.080  1.00  0.00    -0.215 NA 
HETATM    8  C   UNK A   0     -10.199  10.717  68.395  1.00  0.00    -0.175 A  
HETATM    9  C   UNK A   0     -10.662  11.992  68.687  1.00  0.00    -0.236 A  
HETATM   10  H2  UNK A   0     -13.919  12.667  71.036  1.00  0.00     0.000 HD 
HETATM   11  N   UNK A   0     -11.572  12.170  69.669  1.00  0.00    -0.303 NA 
HETATM   12  H1  UNK A   0     -14.023  12.347  72.655  1.00  0.00     0.000 HD 
HETATM   13  C   UNK A   0     -11.947  11.056  70.370  1.00  0.00    -0.368 A  
HETATM   14  C   UNK A   0     -12.786  11.104  71.476  1.00  0.00    -0.437 A  
HETATM   15  N   UNK A   0     -13.407  12.311  71.843  1.00  0.00    -0.423 NA 
HETATM   16  N   UNK A   0     -13.091  10.043  72.236  1.00  0.00    -0.370 NA 
ENDROOT
BRANCH   9  17
HETATM   17  C   UNK A   0     -10.089  13.225  68.030  1.00  0.00    -0.235 C  
HETATM   18  C   UNK A   0      -9.418  11.863  65.983  1.00  0.00    -0.241 A  
HETATM   19  C   UNK A   0      -8.100  11.546  66.355  1.00  0.00    -0.069 A  
HETATM   20  C   UNK A   0     -10.146  10.934  65.225  1.00  0.00    -0.340 A  
HETATM   21  C   UNK A   0     -10.100  13.143  66.476  1.00  0.00    -0.280 C  
HETATM   22  C   UNK A   0      -9.616   9.672  64.951  1.00  0.00    -0.244 A  
HETATM   23  C   UNK A   0      -7.566  10.284  66.080  1.00  0.00    -0.124 A  
HETATM   24  C   UNK A   0      -9.456  14.374  65.811  1.00  0.00    -0.130 C  
HETATM   25  C   UNK A   0      -8.350   9.326  65.430  1.00  0.00    -0.143 A  
BRANCH  24  26
HETATM   26  C   UNK A   0     -10.114  15.648  66.155  1.00  0.00    -0.333 C  
HETATM   27  C   UNK A   0     -10.615  16.716  66.380  1.00  0.00    -0.200 C  
ENDBRANCH  24  26
BRANCH  25  28
HETATM   28  C   UNK A   0      -7.835   7.942  65.288  1.00  0.00    -0.111 C  
HETATM   29  O   UNK A   0      -6.644   7.693  65.428  1.00  0.00    -0.044 OA 
ATOM     30  N   GLU A   1      -8.794   6.962  65.044  1.00  0.00    -0.343 N  
ATOM     31  H   GLU A   1      -9.762   7.225  64.854  1.00  0.00     0.000 HD 
BRANCH  30  32
ATOM     32  CA  GLU A   1      -8.397   5.539  65.064  1.00  0.00    -0.146 C  
ATOM     33  O   GLU A   1      -9.029   5.741  62.739  1.00  0.00     0.143 OA 
ATOM     34  C   GLU A   1      -8.283   5.023  63.616  1.00  0.00    -0.117 C  
ATOM     35  OXT GLU A   1      -7.715   3.989  63.295  1.00  0.00    -0.064 OA 
BRANCH  32  36
ATOM     36  CB  GLU A   1      -9.435   4.706  65.836  1.00  0.00    -0.174 C  
BRANCH  36  37
ATOM     37  CG  GLU A   1     -10.467   5.561  66.581  1.00  0.00    -0.355 C  
ATOM     38  CD  GLU A   1     -10.423   5.361  68.076  1.00  0.00    -0.123 C  
ATOM     39  OE2 GLU A   1      -9.669   4.604  68.663  1.00  0.00    -0.155 OA 
ATOM     40  OE1 GLU A   1     -11.323   6.137  68.722  1.00  0.00    -0.344 OA 
ENDBRANCH  36  37
ENDBRANCH  32  36
ENDBRANCH  30  32
ENDBRANCH  25  28
ENDBRANCH   9  17
TORSDOF 6
ENDMDL
MODEL       98
REMARK 921   NORMALIZED FREE ENERGY PREDICTED BY IDOCK:   -4.86 KCAL/MOL
REMARK 922        TOTAL FREE ENERGY PREDICTED BY IDOCK:   -7.98 KCAL/MOL
REMARK 923 INTER-LIGAND FREE ENERGY PREDICTED BY IDOCK:   -6.80 KCAL/MOL
REMARK 924 INTRA-LIGAND FREE ENERGY PREDICTED BY IDOCK:   -1.18 KCAL/MOL
REMARK 927      BINDING AFFINITY PREDICTED BY RF-SCORE:    0.00 PKD
ROOT
HETATM    1  N   UNK A   0     -11.812  13.258  70.436  1.00  0.00    -0.536 NA 
HETATM    2  C   UNK A   0     -11.734  11.893  70.295  1.00  0.00    -0.205 A  
HETATM    3  H2  UNK A   0     -12.214  13.678  71.274  1.00  0.00     0.000 HD 
HETATM    4  H1  UNK A   0     -11.455  13.835  69.676  1.00  0.00     0.000 HD 
HETATM    5  N   UNK A   0     -12.199  11.140  71.287  1.00  0.00    -0.278 NA 
HETATM    6  C   UNK A   0     -12.046   9.821  71.189  1.00  0.00    -0.370 A  
HETATM    7  N   UNK A   0     -12.437   9.067  72.223  1.00  0.00    -0.374 NA 
HETATM    8  C   UNK A   0     -12.190   7.737  72.174  1.00  0.00    -0.285 A  
HETATM    9  C   UNK A   0     -11.570   7.125  71.095  1.00  0.00    -0.301 A  
HETATM   10  H2  UNK A   0     -11.129   8.953  67.483  1.00  0.00     0.000 HD 
HETATM   11  N   UNK A   0     -11.218   7.857  70.016  1.00  0.00    -0.165 NA 
HETATM   12  H1  UNK A   0     -10.176  10.270  67.179  1.00  0.00     0.000 HD 
HETATM   13  C   UNK A   0     -11.452   9.204  70.083  1.00  0.00    -0.087 A  
HETATM   14  C   UNK A   0     -11.041  10.094  69.099  1.00  0.00    -0.212 A  
HETATM   15  N   UNK A   0     -10.478   9.617  67.902  1.00  0.00    -0.231 NA 
HETATM   16  N   UNK A   0     -11.171  11.425  69.186  1.00  0.00    -0.250 NA 
ENDROOT
BRANCH   9  17
HETATM   17  C   UNK A   0     -11.150   5.675  71.126  1.00  0.00    -0.202 C  
HETATM   18  C   UNK A   0      -8.739   6.331  70.618  1.00  0.00    -0.140 A  
HETATM   19  C   UNK A   0      -8.772   6.210  69.217  1.00  0.00    -0.122 A  
HETATM   20  C   UNK A   0      -7.920   7.314  71.190  1.00  0.00    -0.101 A  
HETATM   21  C   UNK A   0      -9.654   5.488  71.512  1.00  0.00    -0.188 C  
HETATM   22  C   UNK A   0      -7.246   8.233  70.383  1.00  0.00    -0.044 A  
HETATM   23  C   UNK A   0      -8.097   7.127  68.407  1.00  0.00    -0.124 A  
HETATM   24  C   UNK A   0      -9.211   4.012  71.478  1.00  0.00    -0.190 C  
HETATM   25  C   UNK A   0      -7.383   8.176  68.994  1.00  0.00    -0.083 A  
BRANCH  24  26
HETATM   26  C   UNK A   0      -9.978   3.141  72.387  1.00  0.00    -0.234 C  
HETATM   27  C   UNK A   0     -10.584   2.374  73.086  1.00  0.00    -0.255 C  
ENDBRANCH  24  26
BRANCH  25  28
HETATM   28  C   UNK A   0      -6.807   9.235  68.128  1.00  0.00    -0.064 C  
HETATM   29  O   UNK A   0      -5.797   9.031  67.467  1.00  0.00    -0.042 OA 
ATOM     30  N   GLU A   1      -7.518  10.432  68.084  1.00  0.00    -0.089 N  
ATOM     31  H   GLU A   1      -8.306  10.587  68.713  1.00  0.00     0.000 HD 
BRANCH  30  32
ATOM     32  CA  GLU A   1      -7.118  11.476  67.117  1.00  0.00    -0.140 C  
ATOM     33  O   GLU A   1      -6.024  12.331  69.096  1.00  0.00    -0.069 OA 
ATOM     34  C   GLU A   1      -6.010  12.348  67.739  1.00  0.00    -0.111 C  
ATOM     35  OXT GLU A   1      -5.288  13.103  67.104  1.00  0.00    -0.341 OA 
BRANCH  32  36
ATOM     36  CB  GLU A   1      -8.328  12.352  66.746  1.00  0.00    -0.060 C  
BRANCH  36  37
ATOM     37  CG  GLU A   1      -9.176  11.766  65.612  1.00  0.00    -0.109 C  
ATOM     38  CD  GLU A   1      -9.947  12.819  64.854  1.00  0.00    -0.136 C  
ATOM     39  OE2 GLU A   1      -9.929  14.014  65.094  1.00  0.00    -0.322 OA 
ATOM     40  OE1 GLU A   1     -10.674  12.291  63.843  1.00  0.00    -0.346 OA 
ENDBRANCH  36  37
ENDBRANCH  32  36
ENDBRANCH  30  32
ENDBRANCH  25  28
ENDBRANCH   9  17
TORSDOF 6
ENDMDL
MODEL       99
REMARK 921   NORMALIZED FREE ENERGY PREDICTED BY IDOCK:   -4.86 KCAL/MOL
REMARK 922        TOTAL FREE ENERGY PREDICTED BY IDOCK:   -7.98 KCAL/MOL
REMARK 923 INTER-LIGAND FREE ENERGY PREDICTED BY IDOCK:   -7.92 KCAL/MOL
REMARK 924 INTRA-LIGAND FREE ENERGY PREDICTED BY IDOCK:   -0.05 KCAL/MOL
REMARK 927      BINDING AFFINITY PREDICTED BY RF-SCORE:    0.00 PKD
ROOT
HETATM    1  N   UNK A   0      -8.641   8.348  74.172  1.00  0.00    -0.353 NA 
HETATM    2  C   UNK A   0      -8.527   8.465  72.808  1.00  0.00    -0.155 A  
HETATM    3  H2  UNK A   0      -9.551   8.381  74.630  1.00  0.00     0.000 HD 
HETATM    4  H1  UNK A   0      -7.784   8.227  74.712  1.00  0.00     0.000 HD 
HETATM    5  N   UNK A   0      -9.644   8.623  72.105  1.00  0.00    -0.309 NA 
HETATM    6  C   UNK A   0      -9.543   8.650  70.777  1.00  0.00    -0.188 A  
HETATM    7  N   UNK A   0     -10.673   8.723  70.065  1.00  0.00    -0.227 NA 
HETATM    8  C   UNK A   0     -10.585   8.647  68.716  1.00  0.00    -0.140 A  
HETATM    9  C   UNK A   0      -9.378   8.517  68.046  1.00  0.00    -0.136 A  
HETATM   10  H2  UNK A   0      -5.784   9.202  69.833  1.00  0.00     0.000 HD 
HETATM   11  N   UNK A   0      -8.220   8.498  68.741  1.00  0.00    -0.120 NA 
HETATM   12  H1  UNK A   0      -5.118   8.290  71.042  1.00  0.00     0.000 HD 
HETATM   13  C   UNK A   0      -8.320   8.553  70.106  1.00  0.00    -0.123 A  
HETATM   14  C   UNK A   0      -7.224   8.430  70.951  1.00  0.00    -0.059 A  
HETATM   15  N   UNK A   0      -5.923   8.380  70.421  1.00  0.00    -0.028 NA 
HETATM   16  N   UNK A   0      -7.307   8.384  72.287  1.00  0.00    -0.151 NA 
ENDROOT
BRANCH   9  17
HETATM   17  C   UNK A   0      -9.307   8.264  66.559  1.00  0.00    -0.263 C  
HETATM   18  C   UNK A   0      -8.823  10.729  66.130  1.00  0.00    -0.187 A  
HETATM   19  C   UNK A   0     -10.139  11.174  65.911  1.00  0.00    -0.296 A  
HETATM   20  C   UNK A   0      -7.911  11.601  66.741  1.00  0.00    -0.130 A  
HETATM   21  C   UNK A   0      -8.405   9.290  65.814  1.00  0.00    -0.128 C  
HETATM   22  C   UNK A   0      -8.332  12.839  67.231  1.00  0.00    -0.187 A  
HETATM   23  C   UNK A   0     -10.563  12.413  66.399  1.00  0.00    -0.271 A  
HETATM   24  C   UNK A   0      -8.386   9.068  64.289  1.00  0.00    -0.179 C  
HETATM   25  C   UNK A   0      -9.672  13.218  67.114  1.00  0.00    -0.236 A  
BRANCH  24  26
HETATM   26  C   UNK A   0      -7.902   7.735  63.889  1.00  0.00    -0.126 C  
HETATM   27  C   UNK A   0      -7.557   6.648  63.509  1.00  0.00    -0.100 C  
ENDBRANCH  24  26
BRANCH  25  28
HETATM   28  C   UNK A   0     -10.173  14.453  67.766  1.00  0.00    -0.230 C  
HETATM   29  O   UNK A   0     -10.752  15.319  67.122  1.00  0.00    -0.303 OA 
ATOM     30  N   GLU A   1      -9.987  14.526  69.145  1.00  0.00    -0.381 N  
ATOM     31  H   GLU A   1      -9.428  13.822  69.627  1.00  0.00     0.000 HD 
BRANCH  30  32
ATOM     32  CA  GLU A   1     -10.609  15.633  69.901  1.00  0.00    -0.321 C  
ATOM     33  O   GLU A   1     -12.464  14.083  69.872  1.00  0.00    -0.333 OA 
ATOM     34  C   GLU A   1     -11.927  15.141  70.531  1.00  0.00    -0.325 C  
ATOM     35  OXT GLU A   1     -12.523  15.722  71.427  1.00  0.00    -0.412 OA 
BRANCH  32  36
ATOM     36  CB  GLU A   1     -10.887  16.826  68.970  1.00  0.00    -0.291 C  
BRANCH  36  37
ATOM     37  CG  GLU A   1      -9.895  17.981  69.151  1.00  0.00    -0.159 C  
ATOM     38  CD  GLU A   1      -9.951  18.982  68.023  1.00  0.00    -0.368 C  
ATOM     39  OE2 GLU A   1     -10.685  18.910  67.052  1.00  0.00    -0.430 OA 
ATOM     40  OE1 GLU A   1      -9.086  20.006  68.206  1.00  0.00    -0.279 OA 
ENDBRANCH  36  37
ENDBRANCH  32  36
ENDBRANCH  30  32
ENDBRANCH  25  28
ENDBRANCH   9  17
TORSDOF 6
ENDMDL
MODEL      100
REMARK 921   NORMALIZED FREE ENERGY PREDICTED BY IDOCK:   -4.85 KCAL/MOL
REMARK 922        TOTAL FREE ENERGY PREDICTED BY IDOCK:   -7.96 KCAL/MOL
REMARK 923 INTER-LIGAND FREE ENERGY PREDICTED BY IDOCK:   -7.05 KCAL/MOL
REMARK 924 INTRA-LIGAND FREE ENERGY PREDICTED BY IDOCK:   -0.92 KCAL/MOL
REMARK 927      BINDING AFFINITY PREDICTED BY RF-SCORE:    0.00 PKD
ROOT
HETATM    1  N   UNK A   0      -7.120   8.223  62.403  1.00  0.00    -0.090 NA 
HETATM    2  C   UNK A   0      -7.726   9.035  63.332  1.00  0.00    -0.124 A  
HETATM    3  H2  UNK A   0      -7.566   8.022  61.509  1.00  0.00     0.000 HD 
HETATM    4  H1  UNK A   0      -6.209   7.829  62.639  1.00  0.00     0.000 HD 
HETATM    5  N   UNK A   0      -8.913   9.549  63.025  1.00  0.00    -0.234 NA 
HETATM    6  C   UNK A   0      -9.461  10.402  63.887  1.00  0.00    -0.304 A  
HETATM    7  N   UNK A   0     -10.615  10.985  63.543  1.00  0.00    -0.313 NA 
HETATM    8  C   UNK A   0     -11.125  11.931  64.367  1.00  0.00    -0.336 A  
HETATM    9  C   UNK A   0     -10.515  12.304  65.555  1.00  0.00    -0.264 A  
HETATM   10  H2  UNK A   0      -7.570  10.100  67.302  1.00  0.00     0.000 HD 
HETATM   11  N   UNK A   0      -9.379  11.689  65.951  1.00  0.00    -0.227 NA 
HETATM   12  H1  UNK A   0      -6.051   9.862  66.691  1.00  0.00     0.000 HD 
HETATM   13  C   UNK A   0      -8.859  10.749  65.101  1.00  0.00    -0.186 A  
HETATM   14  C   UNK A   0      -7.641  10.119  65.323  1.00  0.00    -0.144 A  
HETATM   15  N   UNK A   0      -6.945  10.325  66.527  1.00  0.00    -0.101 NA 
HETATM   16  N   UNK A   0      -7.066   9.269  64.461  1.00  0.00    -0.091 NA 
ENDROOT
BRANCH   9  17
HETATM   17  C   UNK A   0     -11.001  13.473  66.376  1.00  0.00    -0.297 C  
HETATM   18  C   UNK A   0     -10.410  12.246  68.531  1.00  0.00    -0.234 A  
HETATM   19  C   UNK A   0     -11.656  11.649  68.789  1.00  0.00    -0.374 A  
HETATM   20  C   UNK A   0      -9.244  11.561  68.902  1.00  0.00     0.005 A  
HETATM   21  C   UNK A   0     -10.304  13.568  67.764  1.00  0.00    -0.241 C  
HETATM   22  C   UNK A   0      -9.317  10.260  69.404  1.00  0.00    -0.217 A  
HETATM   23  C   UNK A   0     -11.731  10.348  69.295  1.00  0.00    -0.212 A  
HETATM   24  C   UNK A   0     -10.848  14.724  68.626  1.00  0.00    -0.257 C  
HETATM   25  C   UNK A   0     -10.557   9.632  69.544  1.00  0.00    -0.247 A  
BRANCH  24  26
HETATM   26  C   UNK A   0     -10.697  16.051  68.003  1.00  0.00    -0.309 C  
HETATM   27  C   UNK A   0     -10.646  17.144  67.507  1.00  0.00    -0.323 C  
ENDBRANCH  24  26
BRANCH  25  28
HETATM   28  C   UNK A   0     -10.646   8.200  69.924  1.00  0.00    -0.239 C  
HETATM   29  O   UNK A   0     -11.721   7.686  70.203  1.00  0.00    -0.080 OA 
ATOM     30  N   GLU A   1      -9.449   7.489  69.886  1.00  0.00    -0.161 N  
ATOM     31  H   GLU A   1      -8.566   7.976  69.728  1.00  0.00     0.000 HD 
BRANCH  30  32
ATOM     32  CA  GLU A   1      -9.470   6.024  70.076  1.00  0.00    -0.156 C  
ATOM     33  O   GLU A   1      -7.878   6.622  71.793  1.00  0.00    -0.100 OA 
ATOM     34  C   GLU A   1      -8.764   5.673  71.400  1.00  0.00    -0.132 C  
ATOM     35  OXT GLU A   1      -8.858   4.594  71.967  1.00  0.00    -0.120 OA 
BRANCH  32  36
ATOM     36  CB  GLU A   1      -8.763   5.323  68.903  1.00  0.00    -0.094 C  
BRANCH  36  37
ATOM     37  CG  GLU A   1      -9.733   4.649  67.925  1.00  0.00    -0.198 C  
ATOM     38  CD  GLU A   1     -10.197   5.577  66.830  1.00  0.00    -0.233 C  
ATOM     39  OE2 GLU A   1      -9.867   6.744  66.707  1.00  0.00    -0.172 OA 
ATOM     40  OE1 GLU A   1     -11.036   4.964  65.962  1.00  0.00    -0.245 OA 
ENDBRANCH  36  37
ENDBRANCH  32  36
ENDBRANCH  30  32
ENDBRANCH  25  28
ENDBRANCH   9  17
TORSDOF 6
ENDMDL
MODEL      101
REMARK 921   NORMALIZED FREE ENERGY PREDICTED BY IDOCK:   -4.78 KCAL/MOL
REMARK 922        TOTAL FREE ENERGY PREDICTED BY IDOCK:   -7.86 KCAL/MOL
REMARK 923 INTER-LIGAND FREE ENERGY PREDICTED BY IDOCK:   -7.66 KCAL/MOL
REMARK 924 INTRA-LIGAND FREE ENERGY PREDICTED BY IDOCK:   -0.21 KCAL/MOL
REMARK 927      BINDING AFFINITY PREDICTED BY RF-SCORE:    0.00 PKD
ROOT
HETATM    1  N   UNK A   0     -11.459   5.486  73.205  1.00  0.00    -0.509 NA 
HETATM    2  C   UNK A   0     -10.735   5.761  72.069  1.00  0.00    -0.233 A  
HETATM    3  H2  UNK A   0     -12.477   5.544  73.207  1.00  0.00     0.000 HD 
HETATM    4  H1  UNK A   0     -10.944   5.223  74.045  1.00  0.00     0.000 HD 
HETATM    5  N   UNK A   0     -11.406   6.103  70.974  1.00  0.00    -0.303 NA 
HETATM    6  C   UNK A   0     -10.712   6.286  69.853  1.00  0.00    -0.294 A  
HETATM    7  N   UNK A   0     -11.393   6.547  68.731  1.00  0.00    -0.237 NA 
HETATM    8  C   UNK A   0     -10.703   6.631  67.569  1.00  0.00    -0.317 A  
HETATM    9  C   UNK A   0      -9.327   6.478  67.497  1.00  0.00    -0.122 A  
HETATM   10  H2  UNK A   0      -6.923   6.612  70.781  1.00  0.00     0.000 HD 
HETATM   11  N   UNK A   0      -8.612   6.269  68.624  1.00  0.00    -0.121 NA 
HETATM   12  H1  UNK A   0      -6.901   5.501  72.006  1.00  0.00     0.000 HD 
HETATM   13  C   UNK A   0      -9.320   6.164  69.791  1.00  0.00    -0.151 A  
HETATM   14  C   UNK A   0      -8.731   5.840  71.007  1.00  0.00    -0.134 A  
HETATM   15  N   UNK A   0      -7.333   5.739  71.114  1.00  0.00    -0.080 NA 
HETATM   16  N   UNK A   0      -9.414   5.636  72.143  1.00  0.00    -0.149 NA 
ENDROOT
BRANCH   9  17
HETATM   17  C   UNK A   0      -8.594   6.405  66.179  1.00  0.00    -0.144 C  
HETATM   18  C   UNK A   0      -8.205   8.924  66.220  1.00  0.00    -0.111 A  
HETATM   19  C   UNK A   0      -9.330   9.329  65.481  1.00  0.00    -0.303 A  
HETATM   20  C   UNK A   0      -7.735   9.759  67.243  1.00  0.00    -0.095 A  
HETATM   21  C   UNK A   0      -7.559   7.553  65.999  1.00  0.00    -0.088 C  
HETATM   22  C   UNK A   0      -8.441  10.909  67.600  1.00  0.00    -0.123 A  
HETATM   23  C   UNK A   0     -10.039  10.481  65.835  1.00  0.00    -0.323 A  
HETATM   24  C   UNK A   0      -6.859   7.513  64.627  1.00  0.00    -0.051 C  
HETATM   25  C   UNK A   0      -9.626  11.237  66.936  1.00  0.00    -0.210 A  
BRANCH  24  26
HETATM   26  C   UNK A   0      -6.126   6.260  64.370  1.00  0.00    -0.029 C  
HETATM   27  C   UNK A   0      -5.588   5.202  64.186  1.00  0.00    -0.017 C  
ENDBRANCH  24  26
BRANCH  25  28
HETATM   28  C   UNK A   0     -10.473  12.362  67.403  1.00  0.00    -0.215 C  
HETATM   29  O   UNK A   0     -11.459  12.717  66.769  1.00  0.00    -0.310 OA 
ATOM     30  N   GLU A   1     -10.103  12.934  68.618  1.00  0.00    -0.387 N  
ATOM     31  H   GLU A   1      -9.229  12.662  69.070  1.00  0.00     0.000 HD 
BRANCH  30  32
ATOM     32  CA  GLU A   1     -10.988  13.938  69.245  1.00  0.00    -0.183 C  
ATOM     33  O   GLU A   1     -12.191  11.925  69.835  1.00  0.00    -0.265 OA 
ATOM     34  C   GLU A   1     -11.987  13.223  70.176  1.00  0.00    -0.318 C  
ATOM     35  OXT GLU A   1     -12.653  13.784  71.034  1.00  0.00    -0.341 OA 
BRANCH  32  36
ATOM     36  CB  GLU A   1     -11.750  14.726  68.166  1.00  0.00    -0.353 C  
BRANCH  36  37
ATOM     37  CG  GLU A   1     -11.369  16.211  68.117  1.00  0.00    -0.270 C  
ATOM     38  CD  GLU A   1     -10.399  16.529  67.006  1.00  0.00    -0.301 C  
ATOM     39  OE2 GLU A   1      -9.939  15.720  66.219  1.00  0.00    -0.258 OA 
ATOM     40  OE1 GLU A   1     -10.088  17.845  66.961  1.00  0.00    -0.311 OA 
ENDBRANCH  36  37
ENDBRANCH  32  36
ENDBRANCH  30  32
ENDBRANCH  25  28
ENDBRANCH   9  17
TORSDOF 6
ENDMDL
MODEL      102
REMARK 921   NORMALIZED FREE ENERGY PREDICTED BY IDOCK:   -4.77 KCAL/MOL
REMARK 922        TOTAL FREE ENERGY PREDICTED BY IDOCK:   -7.85 KCAL/MOL
REMARK 923 INTER-LIGAND FREE ENERGY PREDICTED BY IDOCK:   -6.55 KCAL/MOL
REMARK 924 INTRA-LIGAND FREE ENERGY PREDICTED BY IDOCK:   -1.30 KCAL/MOL
REMARK 927      BINDING AFFINITY PREDICTED BY RF-SCORE:    0.00 PKD
ROOT
HETATM    1  N   UNK A   0      -7.317  17.967  65.637  1.00  0.00    -0.527 NA 
HETATM    2  C   UNK A   0      -7.988  17.052  66.413  1.00  0.00    -0.307 A  
HETATM    3  H2  UNK A   0      -7.676  18.247  64.725  1.00  0.00     0.000 HD 
HETATM    4  H1  UNK A   0      -6.449  18.356  66.005  1.00  0.00     0.000 HD 
HETATM    5  N   UNK A   0      -9.119  16.545  65.935  1.00  0.00    -0.496 NA 
HETATM    6  C   UNK A   0      -9.813  15.725  66.721  1.00  0.00    -0.245 A  
HETATM    7  N   UNK A   0     -10.993  15.280  66.275  1.00  0.00    -0.320 NA 
HETATM    8  C   UNK A   0     -11.751  14.530  67.110  1.00  0.00    -0.399 A  
HETATM    9  C   UNK A   0     -11.348  14.189  68.392  1.00  0.00    -0.287 A  
HETATM   10  H2  UNK A   0      -7.500  14.583  69.667  1.00  0.00     0.000 HD 
HETATM   11  N   UNK A   0     -10.136  14.580  68.843  1.00  0.00    -0.237 NA 
HETATM   12  H1  UNK A   0      -6.697  16.013  69.881  1.00  0.00     0.000 HD 
HETATM   13  C   UNK A   0      -9.386  15.356  68.001  1.00  0.00    -0.196 A  
HETATM   14  C   UNK A   0      -8.172  15.921  68.372  1.00  0.00    -0.161 A  
HETATM   15  N   UNK A   0      -7.588  15.598  69.609  1.00  0.00    -0.176 NA 
HETATM   16  N   UNK A   0      -7.468  16.761  67.601  1.00  0.00    -0.149 NA 
ENDROOT
BRANCH   9  17
HETATM   17  C   UNK A   0     -12.270  13.499  69.368  1.00  0.00    -0.278 C  
HETATM   18  C   UNK A   0     -10.870  11.373  69.237  1.00  0.00    -0.242 A  
HETATM   19  C   UNK A   0     -11.578  10.709  68.221  1.00  0.00    -0.245 A  
HETATM   20  C   UNK A   0      -9.483  11.186  69.324  1.00  0.00     0.095 A  
HETATM   21  C   UNK A   0     -11.563  12.369  70.172  1.00  0.00    -0.159 C  
HETATM   22  C   UNK A   0      -8.804  10.453  68.349  1.00  0.00    -0.136 A  
HETATM   23  C   UNK A   0     -10.902   9.973  67.244  1.00  0.00    -0.284 A  
HETATM   24  C   UNK A   0     -12.522  11.624  71.120  1.00  0.00    -0.412 C  
HETATM   25  C   UNK A   0      -9.506   9.898  67.276  1.00  0.00    -0.181 A  
BRANCH  24  26
HETATM   26  C   UNK A   0     -13.163  12.496  72.121  1.00  0.00    -0.508 C  
HETATM   27  C   UNK A   0     -13.662  13.264  72.899  1.00  0.00     0.152 C  
ENDBRANCH  24  26
BRANCH  25  28
HETATM   28  C   UNK A   0      -8.788   9.254  66.149  1.00  0.00    -0.155 C  
HETATM   29  O   UNK A   0      -8.634   9.835  65.082  1.00  0.00    -0.139 OA 
ATOM     30  N   GLU A   1      -8.265   7.989  66.409  1.00  0.00    -0.109 N  
ATOM     31  H   GLU A   1      -8.487   7.510  67.282  1.00  0.00     0.000 HD 
BRANCH  30  32
ATOM     32  CA  GLU A   1      -7.386   7.349  65.408  1.00  0.00    -0.072 C  
ATOM     33  O   GLU A   1      -8.640   5.412  66.130  1.00  0.00    -0.119 OA 
ATOM     34  C   GLU A   1      -7.903   5.927  65.114  1.00  0.00    -0.107 C  
ATOM     35  OXT GLU A   1      -7.567   5.257  64.148  1.00  0.00    -0.063 OA 
BRANCH  32  36
ATOM     36  CB  GLU A   1      -5.941   7.283  65.932  1.00  0.00    -0.037 C  
BRANCH  36  37
ATOM     37  CG  GLU A   1      -5.854   7.082  67.450  1.00  0.00    -0.024 C  
ATOM     38  CD  GLU A   1      -5.533   5.659  67.834  1.00  0.00    -0.008 C  
ATOM     39  OE2 GLU A   1      -5.363   4.739  67.052  1.00  0.00    -0.011 OA 
ATOM     40  OE1 GLU A   1      -5.439   5.501  69.174  1.00  0.00    -0.007 OA 
ENDBRANCH  36  37
ENDBRANCH  32  36
ENDBRANCH  30  32
ENDBRANCH  25  28
ENDBRANCH   9  17
TORSDOF 6
ENDMDL
MODEL      103
REMARK 921   NORMALIZED FREE ENERGY PREDICTED BY IDOCK:   -4.68 KCAL/MOL
REMARK 922        TOTAL FREE ENERGY PREDICTED BY IDOCK:   -7.73 KCAL/MOL
REMARK 923 INTER-LIGAND FREE ENERGY PREDICTED BY IDOCK:   -6.73 KCAL/MOL
REMARK 924 INTRA-LIGAND FREE ENERGY PREDICTED BY IDOCK:   -1.00 KCAL/MOL
REMARK 927      BINDING AFFINITY PREDICTED BY RF-SCORE:    0.00 PKD
ROOT
HETATM    1  N   UNK A   0      -5.415   8.942  66.083  1.00  0.00    -0.037 NA 
HETATM    2  C   UNK A   0      -6.586   9.137  66.776  1.00  0.00    -0.068 A  
HETATM    3  H2  UNK A   0      -4.518   8.898  66.566  1.00  0.00     0.000 HD 
HETATM    4  H1  UNK A   0      -5.474   8.842  65.070  1.00  0.00     0.000 HD 
HETATM    5  N   UNK A   0      -6.510   9.267  68.096  1.00  0.00    -0.058 NA 
HETATM    6  C   UNK A   0      -7.650   9.370  68.776  1.00  0.00    -0.079 A  
HETATM    7  N   UNK A   0      -7.581   9.416  70.111  1.00  0.00    -0.111 NA 
HETATM    8  C   UNK A   0      -8.739   9.416  70.813  1.00  0.00    -0.157 A  
HETATM    9  C   UNK A   0      -9.986   9.392  70.207  1.00  0.00    -0.237 A  
HETATM   10  H2  UNK A   0     -10.528  10.187  66.250  1.00  0.00     0.000 HD 
HETATM   11  N   UNK A   0     -10.081   9.402  68.860  1.00  0.00    -0.183 NA 
HETATM   12  H1  UNK A   0      -9.991   9.252  64.996  1.00  0.00     0.000 HD 
HETATM   13  C   UNK A   0      -8.905   9.380  68.159  1.00  0.00    -0.124 A  
HETATM   14  C   UNK A   0      -8.851   9.276  66.775  1.00  0.00    -0.127 A  
HETATM   15  N   UNK A   0     -10.031   9.328  66.013  1.00  0.00    -0.292 NA 
HETATM   16  N   UNK A   0      -7.715   9.154  66.074  1.00  0.00    -0.095 NA 
ENDROOT
BRANCH   9  17
HETATM   17  C   UNK A   0     -11.261   9.222  70.998  1.00  0.00    -0.392 C  
HETATM   18  C   UNK A   0     -12.313  11.204  69.790  1.00  0.00    -0.315 A  
HETATM   19  C   UNK A   0     -11.975  12.219  70.703  1.00  0.00    -0.218 A  
HETATM   20  C   UNK A   0     -12.367  11.517  68.424  1.00  0.00     0.396 A  
HETATM   21  C   UNK A   0     -12.514   9.756  70.247  1.00  0.00     0.062 C  
HETATM   22  C   UNK A   0     -11.976  12.778  67.970  1.00  0.00    -0.315 A  
HETATM   23  C   UNK A   0     -11.585  13.483  70.251  1.00  0.00    -0.138 A  
HETATM   24  C   UNK A   0     -13.803   9.640  71.083  1.00  0.00    -0.067 C  
HETATM   25  C   UNK A   0     -11.527  13.740  68.878  1.00  0.00    -0.344 A  
BRANCH  24  26
HETATM   26  C   UNK A   0     -14.128   8.260  71.486  1.00  0.00    -0.446 C  
HETATM   27  C   UNK A   0     -14.320   7.122  71.818  1.00  0.00    -0.515 C  
ENDBRANCH  24  26
BRANCH  25  28
HETATM   28  C   UNK A   0     -10.958  15.027  68.405  1.00  0.00    -0.264 C  
HETATM   29  O   UNK A   0     -11.518  16.090  68.639  1.00  0.00    -0.370 OA 
ATOM     30  N   GLU A   1      -9.738  14.938  67.738  1.00  0.00    -0.211 N  
ATOM     31  H   GLU A   1      -9.349  14.027  67.494  1.00  0.00     0.000 HD 
BRANCH  30  32
ATOM     32  CA  GLU A   1      -9.013  16.178  67.389  1.00  0.00    -0.191 C  
ATOM     33  O   GLU A   1     -10.118  15.757  65.280  1.00  0.00    -0.388 OA 
ATOM     34  C   GLU A   1      -9.549  16.720  66.049  1.00  0.00    -0.234 C  
ATOM     35  OXT GLU A   1      -9.356  17.854  65.637  1.00  0.00    -0.388 OA 
BRANCH  32  36
ATOM     36  CB  GLU A   1      -7.504  15.899  67.273  1.00  0.00    -0.244 C  
BRANCH  36  37
ATOM     37  CG  GLU A   1      -7.124  14.459  67.639  1.00  0.00    -0.202 C  
ATOM     38  CD  GLU A   1      -6.684  14.318  69.076  1.00  0.00    -0.106 C  
ATOM     39  OE2 GLU A   1      -6.617  15.227  69.885  1.00  0.00    -0.167 OA 
ATOM     40  OE1 GLU A   1      -6.372  13.040  69.391  1.00  0.00    -0.105 OA 
ENDBRANCH  36  37
ENDBRANCH  32  36
ENDBRANCH  30  32
ENDBRANCH  25  28
ENDBRANCH   9  17
TORSDOF 6
ENDMDL
MODEL      104
REMARK 921   NORMALIZED FREE ENERGY PREDICTED BY IDOCK:   -4.66 KCAL/MOL
REMARK 922        TOTAL FREE ENERGY PREDICTED BY IDOCK:   -7.71 KCAL/MOL
REMARK 923 INTER-LIGAND FREE ENERGY PREDICTED BY IDOCK:   -7.01 KCAL/MOL
REMARK 924 INTRA-LIGAND FREE ENERGY PREDICTED BY IDOCK:   -0.70 KCAL/MOL
REMARK 927      BINDING AFFINITY PREDICTED BY RF-SCORE:    0.00 PKD
ROOT
HETATM    1  N   UNK A   0     -12.816  12.303  63.035  1.00  0.00    -0.676 NA 
HETATM    2  C   UNK A   0     -11.717  11.923  63.767  1.00  0.00    -0.457 A  
HETATM    3  H2  UNK A   0     -12.791  12.315  62.016  1.00  0.00     0.000 HD 
HETATM    4  H1  UNK A   0     -13.657  12.572  63.545  1.00  0.00     0.000 HD 
HETATM    5  N   UNK A   0     -10.621  11.572  63.103  1.00  0.00    -0.308 NA 
HETATM    6  C   UNK A   0      -9.585  11.123  63.808  1.00  0.00    -0.271 A  
HETATM    7  N   UNK A   0      -8.512  10.689  63.137  1.00  0.00    -0.160 NA 
HETATM    8  C   UNK A   0      -7.497  10.135  63.842  1.00  0.00    -0.121 A  
HETATM    9  C   UNK A   0      -7.516  10.017  65.223  1.00  0.00    -0.137 A  
HETATM   10  H2  UNK A   0     -10.153  12.047  67.570  1.00  0.00     0.000 HD 
HETATM   11  N   UNK A   0      -8.564  10.499  65.927  1.00  0.00    -0.158 NA 
HETATM   12  H1  UNK A   0     -11.790  11.811  67.609  1.00  0.00     0.000 HD 
HETATM   13  C   UNK A   0      -9.595  11.038  65.204  1.00  0.00    -0.237 A  
HETATM   14  C   UNK A   0     -10.781  11.468  65.784  1.00  0.00    -0.271 A  
HETATM   15  N   UNK A   0     -10.918  11.495  67.183  1.00  0.00    -0.270 NA 
HETATM   16  N   UNK A   0     -11.841  11.909  65.091  1.00  0.00    -0.249 NA 
ENDROOT
BRANCH   9  17
HETATM   17  C   UNK A   0      -6.459   9.248  65.979  1.00  0.00    -0.068 C  
HETATM   18  C   UNK A   0      -6.510  10.966  67.862  1.00  0.00    -0.062 A  
HETATM   19  C   UNK A   0      -5.471  11.804  67.420  1.00  0.00    -0.094 A  
HETATM   20  C   UNK A   0      -7.591  11.538  68.547  1.00  0.00    -0.130 A  
HETATM   21  C   UNK A   0      -6.532   9.474  67.517  1.00  0.00    -0.062 C  
HETATM   22  C   UNK A   0      -7.692  12.925  68.680  1.00  0.00    -0.067 A  
HETATM   23  C   UNK A   0      -5.569  13.192  67.553  1.00  0.00    -0.036 A  
HETATM   24  C   UNK A   0      -5.412   8.739  68.280  1.00  0.00    -0.038 C  
HETATM   25  C   UNK A   0      -6.711  13.753  68.130  1.00  0.00    -0.124 A  
BRANCH  24  26
HETATM   26  C   UNK A   0      -5.419   7.278  68.082  1.00  0.00    -0.025 C  
HETATM   27  C   UNK A   0      -5.489   6.095  67.888  1.00  0.00    -0.005 C  
ENDBRANCH  24  26
BRANCH  25  28
HETATM   28  C   UNK A   0      -6.879  15.228  68.120  1.00  0.00    -0.129 C  
HETATM   29  O   UNK A   0      -6.276  15.938  68.915  1.00  0.00    -0.113 OA 
ATOM     30  N   GLU A   1      -7.712  15.735  67.125  1.00  0.00    -0.199 N  
ATOM     31  H   GLU A   1      -8.257  15.102  66.539  1.00  0.00     0.000 HD 
BRANCH  30  32
ATOM     32  CA  GLU A   1      -7.798  17.197  66.929  1.00  0.00    -0.215 C  
ATOM     33  O   GLU A   1      -9.750  16.513  65.675  1.00  0.00    -0.513 OA 
ATOM     34  C   GLU A   1      -9.178  17.550  66.339  1.00  0.00    -0.245 C  
ATOM     35  OXT GLU A   1      -9.654  18.676  66.323  1.00  0.00    -0.352 OA 
BRANCH  32  36
ATOM     36  CB  GLU A   1      -6.686  17.674  65.978  1.00  0.00    -0.296 C  
BRANCH  36  37
ATOM     37  CG  GLU A   1      -5.951  18.922  66.483  1.00  0.00    -0.181 C  
ATOM     38  CD  GLU A   1      -6.306  20.164  65.703  1.00  0.00    -0.228 C  
ATOM     39  OE2 GLU A   1      -7.080  20.208  64.762  1.00  0.00    -0.272 OA 
ATOM     40  OE1 GLU A   1      -5.667  21.260  66.171  1.00  0.00    -0.240 OA 
ENDBRANCH  36  37
ENDBRANCH  32  36
ENDBRANCH  30  32
ENDBRANCH  25  28
ENDBRANCH   9  17
TORSDOF 6
ENDMDL
MODEL      105
REMARK 921   NORMALIZED FREE ENERGY PREDICTED BY IDOCK:   -4.66 KCAL/MOL
REMARK 922        TOTAL FREE ENERGY PREDICTED BY IDOCK:   -7.70 KCAL/MOL
REMARK 923 INTER-LIGAND FREE ENERGY PREDICTED BY IDOCK:   -8.51 KCAL/MOL
REMARK 924 INTRA-LIGAND FREE ENERGY PREDICTED BY IDOCK:    0.81 KCAL/MOL
REMARK 927      BINDING AFFINITY PREDICTED BY RF-SCORE:    0.00 PKD
ROOT
HETATM    1  N   UNK A   0     -13.795   9.053  73.217  1.00  0.00    -1.163 NA 
HETATM    2  C   UNK A   0     -12.913   8.813  72.191  1.00  0.00    -0.406 A  
HETATM    3  H2  UNK A   0     -14.301   9.936  73.281  1.00  0.00     0.000 HD 
HETATM    4  H1  UNK A   0     -13.927   8.318  73.912  1.00  0.00     0.000 HD 
HETATM    5  N   UNK A   0     -12.741   9.770  71.285  1.00  0.00    -0.346 NA 
HETATM    6  C   UNK A   0     -11.952   9.506  70.245  1.00  0.00     0.014 A  
HETATM    7  N   UNK A   0     -11.845  10.436  69.290  1.00  0.00    -0.154 NA 
HETATM    8  C   UNK A   0     -11.128  10.135  68.181  1.00  0.00    -0.230 A  
HETATM    9  C   UNK A   0     -10.490   8.916  68.006  1.00  0.00    -0.208 A  
HETATM   10  H2  UNK A   0      -9.857   6.302  71.063  1.00  0.00     0.000 HD 
HETATM   11  N   UNK A   0     -10.538   7.983  68.981  1.00  0.00    -0.193 NA 
HETATM   12  H1  UNK A   0     -11.031   5.476  71.884  1.00  0.00     0.000 HD 
HETATM   13  C   UNK A   0     -11.282   8.289  70.089  1.00  0.00    -0.132 A  
HETATM   14  C   UNK A   0     -11.513   7.385  71.119  1.00  0.00    -0.279 A  
HETATM   15  N   UNK A   0     -10.862   6.139  71.128  1.00  0.00    -0.259 NA 
HETATM   16  N   UNK A   0     -12.315   7.626  72.165  1.00  0.00    -0.273 NA 
ENDROOT
BRANCH   9  17
HETATM   17  C   UNK A   0      -9.839   8.530  66.699  1.00  0.00    -0.342 C  
HETATM   18  C   UNK A   0      -8.333  10.584  66.805  1.00  0.00    -0.128 A  
HETATM   19  C   UNK A   0      -9.124  11.473  66.057  1.00  0.00    -0.206 A  
HETATM   20  C   UNK A   0      -7.556  11.094  67.855  1.00  0.00    -0.099 A  
HETATM   21  C   UNK A   0      -8.387   9.072  66.563  1.00  0.00    -0.115 C  
HETATM   22  C   UNK A   0      -7.661  12.435  68.227  1.00  0.00    -0.140 A  
HETATM   23  C   UNK A   0      -9.230  12.817  66.426  1.00  0.00    -0.149 A  
HETATM   24  C   UNK A   0      -7.750   8.732  65.202  1.00  0.00    -0.103 C  
HETATM   25  C   UNK A   0      -8.543  13.282  67.551  1.00  0.00    -0.200 A  
BRANCH  24  26
HETATM   26  C   UNK A   0      -7.672   7.285  64.928  1.00  0.00    -0.117 C  
HETATM   27  C   UNK A   0      -7.673   6.099  64.739  1.00  0.00    -0.099 C  
ENDBRANCH  24  26
BRANCH  25  28
HETATM   28  C   UNK A   0      -8.787  14.665  68.030  1.00  0.00    -0.169 C  
HETATM   29  O   UNK A   0      -9.576  14.890  68.940  1.00  0.00    -0.208 OA 
ATOM     30  N   GLU A   1      -8.027  15.659  67.418  1.00  0.00    -0.162 N  
ATOM     31  H   GLU A   1      -7.444  15.438  66.611  1.00  0.00     0.000 HD 
BRANCH  30  32
ATOM     32  CA  GLU A   1      -8.074  17.037  67.950  1.00  0.00    -0.195 C  
ATOM     33  O   GLU A   1      -6.655  16.016  69.620  1.00  0.00    -0.193 OA 
ATOM     34  C   GLU A   1      -7.001  17.196  69.046  1.00  0.00    -0.235 C  
ATOM     35  OXT GLU A   1      -6.607  18.270  69.475  1.00  0.00    -0.243 OA 
BRANCH  32  36
ATOM     36  CB  GLU A   1      -9.466  17.336  68.534  1.00  0.00    -0.285 C  
BRANCH  36  37
ATOM     37  CG  GLU A   1     -10.453  17.887  67.498  1.00  0.00    -0.398 C  
ATOM     38  CD  GLU A   1     -10.293  19.370  67.268  1.00  0.00    -0.442 C  
ATOM     39  OE2 GLU A   1      -9.486  20.087  67.833  1.00  0.00    -0.353 OA 
ATOM     40  OE1 GLU A   1     -11.155  19.838  66.337  1.00  0.00    -0.297 OA 
ENDBRANCH  36  37
ENDBRANCH  32  36
ENDBRANCH  30  32
ENDBRANCH  25  28
ENDBRANCH   9  17
TORSDOF 6
ENDMDL
MODEL      106
REMARK 921   NORMALIZED FREE ENERGY PREDICTED BY IDOCK:   -4.65 KCAL/MOL
REMARK 922        TOTAL FREE ENERGY PREDICTED BY IDOCK:   -7.69 KCAL/MOL
REMARK 923 INTER-LIGAND FREE ENERGY PREDICTED BY IDOCK:   -6.75 KCAL/MOL
REMARK 924 INTRA-LIGAND FREE ENERGY PREDICTED BY IDOCK:   -0.94 KCAL/MOL
REMARK 927      BINDING AFFINITY PREDICTED BY RF-SCORE:    0.00 PKD
ROOT
HETATM    1  N   UNK A   0      -7.294   1.705  63.819  1.00  0.00    -0.050 NA 
HETATM    2  C   UNK A   0      -7.314   2.146  65.121  1.00  0.00    -0.058 A  
HETATM    3  H2  UNK A   0      -8.008   1.068  63.468  1.00  0.00     0.000 HD 
HETATM    4  H1  UNK A   0      -6.542   2.038  63.216  1.00  0.00     0.000 HD 
HETATM    5  N   UNK A   0      -8.295   1.713  65.906  1.00  0.00    -0.085 NA 
HETATM    6  C   UNK A   0      -8.363   2.206  67.142  1.00  0.00    -0.083 A  
HETATM    7  N   UNK A   0      -9.397   1.837  67.906  1.00  0.00    -0.171 NA 
HETATM    8  C   UNK A   0      -9.530   2.413  69.124  1.00  0.00    -0.074 A  
HETATM    9  C   UNK A   0      -8.634   3.349  69.616  1.00  0.00    -0.064 A  
HETATM   10  H2  UNK A   0      -4.962   3.961  67.966  1.00  0.00     0.000 HD 
HETATM   11  N   UNK A   0      -7.552   3.695  68.886  1.00  0.00    -0.053 NA 
HETATM   12  H1  UNK A   0      -4.672   4.593  66.465  1.00  0.00     0.000 HD 
HETATM   13  C   UNK A   0      -7.437   3.124  67.647  1.00  0.00    -0.061 A  
HETATM   14  C   UNK A   0      -6.440   3.469  66.743  1.00  0.00    -0.040 A  
HETATM   15  N   UNK A   0      -5.404   4.339  67.128  1.00  0.00    -0.012 NA 
HETATM   16  N   UNK A   0      -6.363   2.997  65.491  1.00  0.00    -0.030 NA 
ENDROOT
BRANCH   9  17
HETATM   17  C   UNK A   0      -8.885   4.106  70.898  1.00  0.00    -0.137 C  
HETATM   18  C   UNK A   0      -9.966   6.014  69.598  1.00  0.00    -0.217 A  
HETATM   19  C   UNK A   0      -8.834   6.831  69.430  1.00  0.00    -0.135 A  
HETATM   20  C   UNK A   0     -10.939   5.995  68.589  1.00  0.00    -0.361 A  
HETATM   21  C   UNK A   0     -10.099   5.074  70.801  1.00  0.00    -0.307 C  
HETATM   22  C   UNK A   0     -10.730   6.678  67.390  1.00  0.00    -0.409 A  
HETATM   23  C   UNK A   0      -8.623   7.517  68.231  1.00  0.00    -0.124 A  
HETATM   24  C   UNK A   0     -10.312   5.893  72.089  1.00  0.00    -0.241 C  
HETATM   25  C   UNK A   0      -9.545   7.390  67.188  1.00  0.00    -0.204 A  
BRANCH  24  26
HETATM   26  C   UNK A   0     -10.546   5.065  73.286  1.00  0.00    -0.287 C  
HETATM   27  C   UNK A   0     -10.683   4.346  74.239  1.00  0.00    -0.279 C  
ENDBRANCH  24  26
BRANCH  25  28
HETATM   28  C   UNK A   0      -9.232   7.989  65.867  1.00  0.00    -0.067 C  
HETATM   29  O   UNK A   0      -8.626   7.355  65.012  1.00  0.00    -0.042 OA 
ATOM     30  N   GLU A   1      -9.720   9.277  65.657  1.00  0.00    -0.413 N  
ATOM     31  H   GLU A   1     -10.148   9.797  66.424  1.00  0.00     0.000 HD 
BRANCH  30  32
ATOM     32  CA  GLU A   1      -9.611   9.882  64.313  1.00  0.00    -0.151 C  
ATOM     33  O   GLU A   1      -7.510  10.622  65.252  1.00  0.00    -0.103 OA 
ATOM     34  C   GLU A   1      -8.166  10.370  64.091  1.00  0.00    -0.118 C  
ATOM     35  OXT GLU A   1      -7.694  10.657  63.000  1.00  0.00    -0.111 OA 
BRANCH  32  36
ATOM     36  CB  GLU A   1     -10.589  11.063  64.179  1.00  0.00    -0.412 C  
BRANCH  36  37
ATOM     37  CG  GLU A   1     -10.608  11.977  65.411  1.00  0.00    -0.319 C  
ATOM     38  CD  GLU A   1     -11.908  12.727  65.562  1.00  0.00    -0.422 C  
ATOM     39  OE2 GLU A   1     -12.860  12.648  64.803  1.00  0.00    -0.730 OA 
ATOM     40  OE1 GLU A   1     -11.920  13.513  66.662  1.00  0.00    -0.376 OA 
ENDBRANCH  36  37
ENDBRANCH  32  36
ENDBRANCH  30  32
ENDBRANCH  25  28
ENDBRANCH   9  17
TORSDOF 6
ENDMDL
MODEL      107
REMARK 921   NORMALIZED FREE ENERGY PREDICTED BY IDOCK:   -4.64 KCAL/MOL
REMARK 922        TOTAL FREE ENERGY PREDICTED BY IDOCK:   -7.67 KCAL/MOL
REMARK 923 INTER-LIGAND FREE ENERGY PREDICTED BY IDOCK:   -5.97 KCAL/MOL
REMARK 924 INTRA-LIGAND FREE ENERGY PREDICTED BY IDOCK:   -1.70 KCAL/MOL
REMARK 927      BINDING AFFINITY PREDICTED BY RF-SCORE:    0.00 PKD
ROOT
HETATM    1  N   UNK A   0      -5.291  10.857  64.186  1.00  0.00    -0.420 NA 
HETATM    2  C   UNK A   0      -6.182  10.719  65.223  1.00  0.00     0.026 A  
HETATM    3  H2  UNK A   0      -5.424  10.357  63.307  1.00  0.00     0.000 HD 
HETATM    4  H1  UNK A   0      -4.493  11.477  64.324  1.00  0.00     0.000 HD 
HETATM    5  N   UNK A   0      -7.222   9.912  65.043  1.00  0.00    -0.128 NA 
HETATM    6  C   UNK A   0      -8.130   9.844  66.014  1.00  0.00    -0.120 A  
HETATM    7  N   UNK A   0      -9.220   9.098  65.801  1.00  0.00    -0.218 NA 
HETATM    8  C   UNK A   0     -10.195   9.106  66.740  1.00  0.00    -0.261 A  
HETATM    9  C   UNK A   0     -10.103   9.836  67.915  1.00  0.00    -0.173 A  
HETATM   10  H2  UNK A   0      -6.596  11.413  69.256  1.00  0.00     0.000 HD 
HETATM   11  N   UNK A   0      -8.988  10.551  68.178  1.00  0.00    -0.134 NA 
HETATM   12  H1  UNK A   0      -5.746  12.631  68.529  1.00  0.00     0.000 HD 
HETATM   13  C   UNK A   0      -8.016  10.554  67.213  1.00  0.00    -0.114 A  
HETATM   14  C   UNK A   0      -6.868  11.333  67.297  1.00  0.00    -0.108 A  
HETATM   15  N   UNK A   0      -6.588  12.060  68.467  1.00  0.00    -0.058 NA 
HETATM   16  N   UNK A   0      -5.951  11.427  66.324  1.00  0.00    -0.106 NA 
ENDROOT
BRANCH   9  17
HETATM   17  C   UNK A   0     -11.263   9.971  68.872  1.00  0.00    -0.179 C  
HETATM   18  C   UNK A   0     -10.420   7.982  70.225  1.00  0.00    -0.222 A  
HETATM   19  C   UNK A   0     -11.159   6.963  69.598  1.00  0.00    -0.302 A  
HETATM   20  C   UNK A   0      -9.139   7.684  70.710  1.00  0.00    -0.153 A  
HETATM   21  C   UNK A   0     -10.943   9.420  70.292  1.00  0.00    -0.305 C  
HETATM   22  C   UNK A   0      -8.561   6.436  70.465  1.00  0.00    -0.143 A  
HETATM   23  C   UNK A   0     -10.584   5.713  69.353  1.00  0.00    -0.374 A  
HETATM   24  C   UNK A   0     -12.150   9.500  71.247  1.00  0.00    -0.443 C  
HETATM   25  C   UNK A   0      -9.261   5.473  69.735  1.00  0.00    -0.168 A  
BRANCH  24  26
HETATM   26  C   UNK A   0     -12.660  10.868  71.446  1.00  0.00    -0.508 C  
HETATM   27  C   UNK A   0     -13.076  11.971  71.681  1.00  0.00    -0.422 C  
ENDBRANCH  24  26
BRANCH  25  28
HETATM   28  C   UNK A   0      -8.607   4.204  69.328  1.00  0.00    -0.078 C  
HETATM   29  O   UNK A   0      -8.317   3.348  70.154  1.00  0.00    -0.051 OA 
ATOM     30  N   GLU A   1      -8.404   4.041  67.959  1.00  0.00    -0.092 N  
ATOM     31  H   GLU A   1      -8.586   4.812  67.316  1.00  0.00     0.000 HD 
BRANCH  30  32
ATOM     32  CA  GLU A   1      -7.924   2.739  67.449  1.00  0.00    -0.073 C  
ATOM     33  O   GLU A   1      -6.284   4.194  66.430  1.00  0.00    -0.030 OA 
ATOM     34  C   GLU A   1      -6.523   2.921  66.834  1.00  0.00    -0.036 C  
ATOM     35  OXT GLU A   1      -5.755   2.002  66.584  1.00  0.00    -0.017 OA 
BRANCH  32  36
ATOM     36  CB  GLU A   1      -8.894   2.192  66.387  1.00  0.00    -0.124 C  
BRANCH  36  37
ATOM     37  CG  GLU A   1      -9.514   3.287  65.510  1.00  0.00    -0.107 C  
ATOM     38  CD  GLU A   1      -8.966   3.288  64.103  1.00  0.00    -0.102 C  
ATOM     39  OE2 GLU A   1      -8.118   2.524  63.677  1.00  0.00    -0.079 OA 
ATOM     40  OE1 GLU A   1      -9.536   4.244  63.335  1.00  0.00    -0.147 OA 
ENDBRANCH  36  37
ENDBRANCH  32  36
ENDBRANCH  30  32
ENDBRANCH  25  28
ENDBRANCH   9  17
TORSDOF 6
ENDMDL
MODEL      108
REMARK 921   NORMALIZED FREE ENERGY PREDICTED BY IDOCK:   -4.63 KCAL/MOL
REMARK 922        TOTAL FREE ENERGY PREDICTED BY IDOCK:   -7.67 KCAL/MOL
REMARK 923 INTER-LIGAND FREE ENERGY PREDICTED BY IDOCK:   -7.68 KCAL/MOL
REMARK 924 INTRA-LIGAND FREE ENERGY PREDICTED BY IDOCK:    0.02 KCAL/MOL
REMARK 927      BINDING AFFINITY PREDICTED BY RF-SCORE:    0.00 PKD
ROOT
HETATM    1  N   UNK A   0     -13.782  12.060  72.293  1.00  0.00    -0.412 NA 
HETATM    2  C   UNK A   0     -13.248  13.186  71.714  1.00  0.00    -0.403 A  
HETATM    3  H2  UNK A   0     -14.005  11.236  71.735  1.00  0.00     0.000 HD 
HETATM    4  H1  UNK A   0     -13.947  12.075  73.299  1.00  0.00     0.000 HD 
HETATM    5  N   UNK A   0     -13.033  13.166  70.402  1.00  0.00     0.141 NA 
HETATM    6  C   UNK A   0     -12.437  14.224  69.855  1.00  0.00    -0.264 A  
HETATM    7  N   UNK A   0     -12.143  14.171  68.551  1.00  0.00    -0.321 NA 
HETATM    8  C   UNK A   0     -11.446  15.197  68.010  1.00  0.00    -0.342 A  
HETATM    9  C   UNK A   0     -11.043  16.303  68.743  1.00  0.00    -0.355 A  
HETATM   10  H2  UNK A   0     -12.565  17.181  72.418  1.00  0.00     0.000 HD 
HETATM   11  N   UNK A   0     -11.378  16.405  70.048  1.00  0.00    -0.260 NA 
HETATM   12  H1  UNK A   0     -12.340  16.289  73.792  1.00  0.00     0.000 HD 
HETATM   13  C   UNK A   0     -12.064  15.352  70.592  1.00  0.00    -0.369 A  
HETATM   14  C   UNK A   0     -12.376  15.268  71.943  1.00  0.00    -0.354 A  
HETATM   15  N   UNK A   0     -12.112  16.351  72.800  1.00  0.00    -0.523 NA 
HETATM   16  N   UNK A   0     -12.960  14.206  72.516  1.00  0.00    -0.411 NA 
ENDROOT
BRANCH   9  17
HETATM   17  C   UNK A   0     -10.124  17.356  68.172  1.00  0.00    -0.328 C  
HETATM   18  C   UNK A   0      -9.193  15.678  66.494  1.00  0.00    -0.325 A  
HETATM   19  C   UNK A   0      -8.085  15.225  67.232  1.00  0.00    -0.229 A  
HETATM   20  C   UNK A   0      -9.848  14.778  65.643  1.00  0.00    -0.361 A  
HETATM   21  C   UNK A   0      -9.753  17.092  66.684  1.00  0.00    -0.287 C  
HETATM   22  C   UNK A   0      -9.485  13.430  65.621  1.00  0.00     0.100 A  
HETATM   23  C   UNK A   0      -7.718  13.877  67.211  1.00  0.00    -0.104 A  
HETATM   24  C   UNK A   0      -8.764  18.131  66.124  1.00  0.00    -0.116 C  
HETATM   25  C   UNK A   0      -8.460  12.969  66.450  1.00  0.00     0.365 A  
BRANCH  24  26
HETATM   26  C   UNK A   0      -9.265  19.517  66.178  1.00  0.00    -0.363 C  
HETATM   27  C   UNK A   0      -9.626  20.658  66.277  1.00  0.00    -0.046 C  
ENDBRANCH  24  26
BRANCH  25  28
HETATM   28  C   UNK A   0      -8.165  11.518  66.560  1.00  0.00    -0.129 C  
HETATM   29  O   UNK A   0      -7.320  11.103  67.343  1.00  0.00    -0.097 OA 
ATOM     30  N   GLU A   1      -8.943  10.681  65.764  1.00  0.00    -0.175 N  
ATOM     31  H   GLU A   1      -9.577  11.076  65.068  1.00  0.00     0.000 HD 
BRANCH  30  32
ATOM     32  CA  GLU A   1      -8.842   9.217  65.938  1.00  0.00    -0.166 C  
ATOM     33  O   GLU A   1      -8.975   9.322  63.526  1.00  0.00    -0.186 OA 
ATOM     34  C   GLU A   1      -8.561   8.562  64.571  1.00  0.00    -0.029 C  
ATOM     35  OXT GLU A   1      -8.155   7.418  64.426  1.00  0.00    -0.134 OA 
BRANCH  32  36
ATOM     36  CB  GLU A   1     -10.149   8.659  66.527  1.00  0.00    -0.339 C  
BRANCH  36  37
ATOM     37  CG  GLU A   1     -10.001   8.166  67.972  1.00  0.00    -0.222 C  
ATOM     38  CD  GLU A   1     -10.513   9.161  68.984  1.00  0.00    -0.221 C  
ATOM     39  OE2 GLU A   1     -10.991  10.251  68.721  1.00  0.00    -0.225 OA 
ATOM     40  OE1 GLU A   1     -10.396   8.705  70.252  1.00  0.00    -0.190 OA 
ENDBRANCH  36  37
ENDBRANCH  32  36
ENDBRANCH  30  32
ENDBRANCH  25  28
ENDBRANCH   9  17
TORSDOF 6
ENDMDL
MODEL      109
REMARK 921   NORMALIZED FREE ENERGY PREDICTED BY IDOCK:   -4.63 KCAL/MOL
REMARK 922        TOTAL FREE ENERGY PREDICTED BY IDOCK:   -7.66 KCAL/MOL
REMARK 923 INTER-LIGAND FREE ENERGY PREDICTED BY IDOCK:   -6.32 KCAL/MOL
REMARK 924 INTRA-LIGAND FREE ENERGY PREDICTED BY IDOCK:   -1.35 KCAL/MOL
REMARK 927      BINDING AFFINITY PREDICTED BY RF-SCORE:    0.00 PKD
ROOT
HETATM    1  N   UNK A   0      -5.183  13.435  68.943  1.00  0.00    -0.072 NA 
HETATM    2  C   UNK A   0      -5.931  12.286  69.033  1.00  0.00    -0.070 A  
HETATM    3  H2  UNK A   0      -4.164  13.404  68.971  1.00  0.00     0.000 HD 
HETATM    4  H1  UNK A   0      -5.681  14.320  68.848  1.00  0.00     0.000 HD 
HETATM    5  N   UNK A   0      -5.282  11.133  69.157  1.00  0.00    -0.041 NA 
HETATM    6  C   UNK A   0      -6.002  10.013  69.158  1.00  0.00    -0.037 A  
HETATM    7  N   UNK A   0      -5.346   8.848  69.197  1.00  0.00    -0.036 NA 
HETATM    8  C   UNK A   0      -6.065   7.705  69.094  1.00  0.00    -0.034 A  
HETATM    9  C   UNK A   0      -7.446   7.693  68.970  1.00  0.00    -0.095 A  
HETATM   10  H2  UNK A   0      -9.756  10.954  69.752  1.00  0.00     0.000 HD 
HETATM   11  N   UNK A   0      -8.134   8.855  68.984  1.00  0.00    -0.113 NA 
HETATM   12  H1  UNK A   0      -9.770  12.358  68.876  1.00  0.00     0.000 HD 
HETATM   13  C   UNK A   0      -7.398  10.006  69.067  1.00  0.00    -0.083 A  
HETATM   14  C   UNK A   0      -7.960  11.273  68.980  1.00  0.00    -0.061 A  
HETATM   15  N   UNK A   0      -9.357  11.427  68.940  1.00  0.00    -0.096 NA 
HETATM   16  N   UNK A   0      -7.252  12.411  68.961  1.00  0.00    -0.056 NA 
ENDROOT
BRANCH   9  17
HETATM   17  C   UNK A   0      -8.217   6.426  68.686  1.00  0.00    -0.121 C  
HETATM   18  C   UNK A   0      -9.098   7.412  66.506  1.00  0.00    -0.195 A  
HETATM   19  C   UNK A   0     -10.307   7.947  66.983  1.00  0.00    -0.411 A  
HETATM   20  C   UNK A   0      -8.429   8.077  65.469  1.00  0.00    -0.159 A  
HETATM   21  C   UNK A   0      -8.452   6.189  67.166  1.00  0.00    -0.104 C  
HETATM   22  C   UNK A   0      -8.892   9.309  65.004  1.00  0.00    -0.238 A  
HETATM   23  C   UNK A   0     -10.774   9.179  66.518  1.00  0.00     0.040 A  
HETATM   24  C   UNK A   0      -9.295   4.930  66.883  1.00  0.00    -0.137 C  
HETATM   25  C   UNK A   0     -10.030   9.888  65.570  1.00  0.00    -0.363 A  
BRANCH  24  26
HETATM   26  C   UNK A   0      -8.696   3.686  67.401  1.00  0.00    -0.129 C  
HETATM   27  C   UNK A   0      -8.217   2.643  67.756  1.00  0.00    -0.080 C  
ENDBRANCH  24  26
BRANCH  25  28
HETATM   28  C   UNK A   0     -10.446  11.265  65.203  1.00  0.00    -0.291 C  
HETATM   29  O   UNK A   0     -10.700  11.561  64.042  1.00  0.00    -0.328 OA 
ATOM     30  N   GLU A   1     -10.577  12.159  66.263  1.00  0.00    -0.243 N  
ATOM     31  H   GLU A   1     -10.277  11.893  67.201  1.00  0.00     0.000 HD 
BRANCH  30  32
ATOM     32  CA  GLU A   1     -11.155  13.496  66.015  1.00  0.00    -0.293 C  
ATOM     33  O   GLU A   1      -8.892  14.140  66.569  1.00  0.00    -0.173 OA 
ATOM     34  C   GLU A   1     -10.018  14.533  65.921  1.00  0.00    -0.329 C  
ATOM     35  OXT GLU A   1     -10.144  15.655  65.454  1.00  0.00    -0.355 OA 
BRANCH  32  36
ATOM     36  CB  GLU A   1     -12.120  13.880  67.151  1.00  0.00    -0.422 C  
BRANCH  36  37
ATOM     37  CG  GLU A   1     -11.470  14.759  68.226  1.00  0.00    -0.338 C  
ATOM     38  CD  GLU A   1     -11.671  14.220  69.621  1.00  0.00    -0.308 C  
ATOM     39  OE2 GLU A   1     -12.283  13.205  69.903  1.00  0.00    -0.291 OA 
ATOM     40  OE1 GLU A   1     -11.075  14.994  70.558  1.00  0.00    -0.257 OA 
ENDBRANCH  36  37
ENDBRANCH  32  36
ENDBRANCH  30  32
ENDBRANCH  25  28
ENDBRANCH   9  17
TORSDOF 6
ENDMDL
MODEL      110
REMARK 921   NORMALIZED FREE ENERGY PREDICTED BY IDOCK:   -4.58 KCAL/MOL
REMARK 922        TOTAL FREE ENERGY PREDICTED BY IDOCK:   -7.60 KCAL/MOL
REMARK 923 INTER-LIGAND FREE ENERGY PREDICTED BY IDOCK:   -6.96 KCAL/MOL
REMARK 924 INTRA-LIGAND FREE ENERGY PREDICTED BY IDOCK:   -0.64 KCAL/MOL
REMARK 927      BINDING AFFINITY PREDICTED BY RF-SCORE:    0.00 PKD
ROOT
HETATM    1  N   UNK A   0      -7.108   8.238  62.386  1.00  0.00    -0.090 NA 
HETATM    2  C   UNK A   0      -7.720   9.065  63.296  1.00  0.00    -0.119 A  
HETATM    3  H2  UNK A   0      -7.559   8.000  61.503  1.00  0.00     0.000 HD 
HETATM    4  H1  UNK A   0      -6.186   7.870  62.623  1.00  0.00     0.000 HD 
HETATM    5  N   UNK A   0      -8.921   9.545  62.986  1.00  0.00    -0.234 NA 
HETATM    6  C   UNK A   0      -9.477  10.414  63.828  1.00  0.00    -0.305 A  
HETATM    7  N   UNK A   0     -10.646  10.963  63.478  1.00  0.00    -0.227 NA 
HETATM    8  C   UNK A   0     -11.167  11.923  64.278  1.00  0.00    -0.357 A  
HETATM    9  C   UNK A   0     -10.552  12.344  65.447  1.00  0.00    -0.284 A  
HETATM   10  H2  UNK A   0      -7.545  10.255  67.229  1.00  0.00     0.000 HD 
HETATM   11  N   UNK A   0      -9.400  11.765  65.850  1.00  0.00    -0.224 NA 
HETATM   12  H1  UNK A   0      -6.028  10.030  66.609  1.00  0.00     0.000 HD 
HETATM   13  C   UNK A   0      -8.870  10.810  65.024  1.00  0.00    -0.177 A  
HETATM   14  C   UNK A   0      -7.637  10.212  65.252  1.00  0.00    -0.144 A  
HETATM   15  N   UNK A   0      -6.933  10.469  66.441  1.00  0.00    -0.116 NA 
HETATM   16  N   UNK A   0      -7.053   9.348  64.410  1.00  0.00    -0.098 NA 
ENDROOT
BRANCH   9  17
HETATM   17  C   UNK A   0     -11.054  13.529  66.238  1.00  0.00    -0.308 C  
HETATM   18  C   UNK A   0     -10.373  12.400  68.420  1.00  0.00    -0.236 A  
HETATM   19  C   UNK A   0     -11.593  11.776  68.732  1.00  0.00    -0.367 A  
HETATM   20  C   UNK A   0      -9.178  11.764  68.786  1.00  0.00    -0.009 A  
HETATM   21  C   UNK A   0     -10.327  13.696  67.604  1.00  0.00    -0.239 C  
HETATM   22  C   UNK A   0      -9.198  10.482  69.337  1.00  0.00    -0.128 A  
HETATM   23  C   UNK A   0     -11.616  10.493  69.286  1.00  0.00    -0.308 A  
HETATM   24  C   UNK A   0     -10.885  14.865  68.436  1.00  0.00    -0.252 C  
HETATM   25  C   UNK A   0     -10.414   9.823  69.531  1.00  0.00    -0.250 A  
BRANCH  24  26
HETATM   26  C   UNK A   0     -10.790  16.173  67.762  1.00  0.00    -0.318 C  
HETATM   27  C   UNK A   0     -10.654  17.253  67.254  1.00  0.00    -0.283 C  
ENDBRANCH  24  26
BRANCH  25  28
HETATM   28  C   UNK A   0     -10.450   8.404  69.965  1.00  0.00    -0.224 C  
HETATM   29  O   UNK A   0     -10.821   7.519  69.205  1.00  0.00    -0.189 OA 
ATOM     30  N   GLU A   1      -9.988   8.155  71.256  1.00  0.00    -0.177 N  
ATOM     31  H   GLU A   1      -9.767   8.930  71.882  1.00  0.00     0.000 HD 
BRANCH  30  32
ATOM     32  CA  GLU A   1      -9.821   6.758  71.708  1.00  0.00    -0.163 C  
ATOM     33  O   GLU A   1     -11.188   7.600  73.516  1.00  0.00    -0.283 OA 
ATOM     34  C   GLU A   1     -10.808   6.476  72.858  1.00  0.00    -0.258 C  
ATOM     35  OXT GLU A   1     -11.106   5.357  73.252  1.00  0.00    -0.286 OA 
BRANCH  32  36
ATOM     36  CB  GLU A   1      -8.378   6.521  72.187  1.00  0.00    -0.107 C  
BRANCH  36  37
ATOM     37  CG  GLU A   1      -7.391   6.278  71.039  1.00  0.00    -0.084 C  
ATOM     38  CD  GLU A   1      -6.770   7.553  70.522  1.00  0.00    -0.047 C  
ATOM     39  OE2 GLU A   1      -7.009   8.673  70.940  1.00  0.00    -0.051 OA 
ATOM     40  OE1 GLU A   1      -5.886   7.322  69.525  1.00  0.00    -0.022 OA 
ENDBRANCH  36  37
ENDBRANCH  32  36
ENDBRANCH  30  32
ENDBRANCH  25  28
ENDBRANCH   9  17
TORSDOF 6
ENDMDL
MODEL      111
REMARK 921   NORMALIZED FREE ENERGY PREDICTED BY IDOCK:   -4.56 KCAL/MOL
REMARK 922        TOTAL FREE ENERGY PREDICTED BY IDOCK:   -7.57 KCAL/MOL
REMARK 923 INTER-LIGAND FREE ENERGY PREDICTED BY IDOCK:   -6.93 KCAL/MOL
REMARK 924 INTRA-LIGAND FREE ENERGY PREDICTED BY IDOCK:   -0.64 KCAL/MOL
REMARK 927      BINDING AFFINITY PREDICTED BY RF-SCORE:    0.00 PKD
ROOT
HETATM    1  N   UNK A   0      -6.542   6.329  64.537  1.00  0.00    -0.034 NA 
HETATM    2  C   UNK A   0      -7.515   7.286  64.696  1.00  0.00    -0.091 A  
HETATM    3  H2  UNK A   0      -5.876   6.378  63.766  1.00  0.00     0.000 HD 
HETATM    4  H1  UNK A   0      -6.507   5.569  65.216  1.00  0.00     0.000 HD 
HETATM    5  N   UNK A   0      -7.560   8.277  63.811  1.00  0.00    -0.125 NA 
HETATM    6  C   UNK A   0      -8.447   9.249  64.014  1.00  0.00    -0.193 A  
HETATM    7  N   UNK A   0      -8.438  10.289  63.173  1.00  0.00    -0.169 NA 
HETATM    8  C   UNK A   0      -9.265  11.329  63.432  1.00  0.00    -0.179 A  
HETATM    9  C   UNK A   0     -10.131  11.351  64.515  1.00  0.00    -0.287 A  
HETATM   10  H2  UNK A   0     -11.052   8.017  66.664  1.00  0.00     0.000 HD 
HETATM   11  N   UNK A   0     -10.198  10.288  65.345  1.00  0.00    -0.281 NA 
HETATM   12  H1  UNK A   0     -10.005   7.167  67.621  1.00  0.00     0.000 HD 
HETATM   13  C   UNK A   0      -9.342   9.250  65.088  1.00  0.00    -0.171 A  
HETATM   14  C   UNK A   0      -9.222   8.144  65.920  1.00  0.00    -0.097 A  
HETATM   15  N   UNK A   0     -10.094   7.979  67.011  1.00  0.00    -0.251 NA 
HETATM   16  N   UNK A   0      -8.325   7.164  65.743  1.00  0.00    -0.138 NA 
ENDROOT
BRANCH   9  17
HETATM   17  C   UNK A   0     -10.922  12.582  64.887  1.00  0.00    -0.335 C  
HETATM   18  C   UNK A   0      -9.846  12.613  67.198  1.00  0.00    -0.212 A  
HETATM   19  C   UNK A   0     -10.816  11.874  67.899  1.00  0.00    -0.254 A  
HETATM   20  C   UNK A   0      -8.503  12.496  67.582  1.00  0.00    -0.171 A  
HETATM   21  C   UNK A   0     -10.216  13.450  65.970  1.00  0.00    -0.301 C  
HETATM   22  C   UNK A   0      -8.123  11.573  68.559  1.00  0.00    -0.146 A  
HETATM   23  C   UNK A   0     -10.439  10.951  68.878  1.00  0.00    -0.228 A  
HETATM   24  C   UNK A   0     -11.055  14.670  66.395  1.00  0.00    -0.334 C  
HETATM   25  C   UNK A   0      -9.084  10.759  69.163  1.00  0.00    -0.109 A  
BRANCH  24  26
HETATM   26  C   UNK A   0     -11.376  15.585  65.285  1.00  0.00    -0.189 C  
HETATM   27  C   UNK A   0     -11.597  16.289  64.336  1.00  0.00    -0.056 C  
ENDBRANCH  24  26
BRANCH  25  28
HETATM   28  C   UNK A   0      -8.684   9.665  70.084  1.00  0.00    -0.231 C  
HETATM   29  O   UNK A   0      -7.639   9.724  70.719  1.00  0.00    -0.300 OA 
ATOM     30  N   GLU A   1      -9.594   8.618  70.209  1.00  0.00    -0.166 N  
ATOM     31  H   GLU A   1     -10.412   8.571  69.600  1.00  0.00     0.000 HD 
BRANCH  30  32
ATOM     32  CA  GLU A   1      -9.364   7.577  71.233  1.00  0.00    -0.149 C  
ATOM     33  O   GLU A   1     -10.261   6.199  69.461  1.00  0.00    -0.173 OA 
ATOM     34  C   GLU A   1      -9.496   6.186  70.581  1.00  0.00    -0.168 C  
ATOM     35  OXT GLU A   1      -9.096   5.147  71.087  1.00  0.00    -0.138 OA 
BRANCH  32  36
ATOM     36  CB  GLU A   1     -10.383   7.718  72.376  1.00  0.00    -0.311 C  
BRANCH  36  37
ATOM     37  CG  GLU A   1     -10.144   6.733  73.527  1.00  0.00    -0.294 C  
ATOM     38  CD  GLU A   1     -11.139   5.599  73.541  1.00  0.00    -0.120 C  
ATOM     39  OE2 GLU A   1     -12.052   5.452  72.747  1.00  0.00    -0.182 OA 
ATOM     40  OE1 GLU A   1     -10.904   4.726  74.548  1.00  0.00    -0.347 OA 
ENDBRANCH  36  37
ENDBRANCH  32  36
ENDBRANCH  30  32
ENDBRANCH  25  28
ENDBRANCH   9  17
TORSDOF 6
ENDMDL
MODEL      112
REMARK 921   NORMALIZED FREE ENERGY PREDICTED BY IDOCK:   -4.55 KCAL/MOL
REMARK 922        TOTAL FREE ENERGY PREDICTED BY IDOCK:   -7.56 KCAL/MOL
REMARK 923 INTER-LIGAND FREE ENERGY PREDICTED BY IDOCK:   -6.40 KCAL/MOL
REMARK 924 INTRA-LIGAND FREE ENERGY PREDICTED BY IDOCK:   -1.16 KCAL/MOL
REMARK 927      BINDING AFFINITY PREDICTED BY RF-SCORE:    0.00 PKD
ROOT
HETATM    1  N   UNK A   0      -6.928   7.815  62.890  1.00  0.00    -0.079 NA 
HETATM    2  C   UNK A   0      -7.036   7.508  64.225  1.00  0.00    -0.060 A  
HETATM    3  H2  UNK A   0      -7.610   7.472  62.214  1.00  0.00     0.000 HD 
HETATM    4  H1  UNK A   0      -6.144   8.399  62.598  1.00  0.00     0.000 HD 
HETATM    5  N   UNK A   0      -8.058   6.748  64.605  1.00  0.00    -0.116 NA 
HETATM    6  C   UNK A   0      -8.211   6.520  65.908  1.00  0.00    -0.131 A  
HETATM    7  N   UNK A   0      -9.285   5.827  66.300  1.00  0.00    -0.156 NA 
HETATM    8  C   UNK A   0      -9.503   5.681  67.629  1.00  0.00    -0.115 A  
HETATM    9  C   UNK A   0      -8.652   6.200  68.593  1.00  0.00    -0.113 A  
HETATM   10  H2  UNK A   0      -4.892   7.509  67.735  1.00  0.00     0.000 HD 
HETATM   11  N   UNK A   0      -7.531   6.855  68.220  1.00  0.00    -0.096 NA 
HETATM   12  H1  UNK A   0      -4.518   8.829  66.811  1.00  0.00     0.000 HD 
HETATM   13  C   UNK A   0      -7.331   7.017  66.875  1.00  0.00    -0.078 A  
HETATM   14  C   UNK A   0      -6.284   7.764  66.350  1.00  0.00    -0.045 A  
HETATM   15  N   UNK A   0      -5.287   8.280  67.196  1.00  0.00    -0.036 NA 
HETATM   16  N   UNK A   0      -6.122   8.018  65.044  1.00  0.00    -0.045 NA 
ENDROOT
BRANCH   9  17
HETATM   17  C   UNK A   0      -8.993   6.176  70.063  1.00  0.00    -0.148 C  
HETATM   18  C   UNK A   0      -9.966   8.527  69.908  1.00  0.00    -0.189 A  
HETATM   19  C   UNK A   0      -8.821   9.260  70.266  1.00  0.00    -0.254 A  
HETATM   20  C   UNK A   0     -10.862   9.086  68.986  1.00  0.00    -0.092 A  
HETATM   21  C   UNK A   0     -10.192   7.101  70.421  1.00  0.00    -0.203 C  
HETATM   22  C   UNK A   0     -10.561  10.289  68.345  1.00  0.00    -0.247 A  
HETATM   23  C   UNK A   0      -8.518  10.466  69.628  1.00  0.00    -0.068 A  
HETATM   24  C   UNK A   0     -10.496   7.125  71.931  1.00  0.00    -0.220 C  
HETATM   25  C   UNK A   0      -9.361  10.948  68.622  1.00  0.00    -0.188 A  
BRANCH  24  26
HETATM   26  C   UNK A   0     -10.822   5.801  72.492  1.00  0.00    -0.294 C  
HETATM   27  C   UNK A   0     -11.139   4.716  72.896  1.00  0.00    -0.273 C  
ENDBRANCH  24  26
BRANCH  25  28
HETATM   28  C   UNK A   0      -8.949  12.141  67.840  1.00  0.00    -0.184 C  
HETATM   29  O   UNK A   0      -9.055  12.164  66.620  1.00  0.00    -0.201 OA 
ATOM     30  N   GLU A   1      -8.496  13.226  68.587  1.00  0.00    -0.349 N  
ATOM     31  H   GLU A   1      -8.347  13.133  69.592  1.00  0.00     0.000 HD 
BRANCH  30  32
ATOM     32  CA  GLU A   1      -8.233  14.512  67.908  1.00  0.00    -0.153 C  
ATOM     33  O   GLU A   1      -7.027  14.897  69.967  1.00  0.00    -0.187 OA 
ATOM     34  C   GLU A   1      -7.125  15.270  68.666  1.00  0.00    -0.116 C  
ATOM     35  OXT GLU A   1      -6.500  16.215  68.209  1.00  0.00    -0.120 OA 
BRANCH  32  36
ATOM     36  CB  GLU A   1      -9.514  15.364  67.865  1.00  0.00    -0.197 C  
BRANCH  36  37
ATOM     37  CG  GLU A   1      -9.770  16.005  66.495  1.00  0.00    -0.284 C  
ATOM     38  CD  GLU A   1     -10.341  17.398  66.600  1.00  0.00    -0.306 C  
ATOM     39  OE2 GLU A   1     -10.593  17.980  67.641  1.00  0.00    -0.400 OA 
ATOM     40  OE1 GLU A   1     -10.541  17.960  65.386  1.00  0.00    -0.656 OA 
ENDBRANCH  36  37
ENDBRANCH  32  36
ENDBRANCH  30  32
ENDBRANCH  25  28
ENDBRANCH   9  17
TORSDOF 6
ENDMDL
MODEL      113
REMARK 921   NORMALIZED FREE ENERGY PREDICTED BY IDOCK:   -4.54 KCAL/MOL
REMARK 922        TOTAL FREE ENERGY PREDICTED BY IDOCK:   -7.55 KCAL/MOL
REMARK 923 INTER-LIGAND FREE ENERGY PREDICTED BY IDOCK:   -6.40 KCAL/MOL
REMARK 924 INTRA-LIGAND FREE ENERGY PREDICTED BY IDOCK:   -1.15 KCAL/MOL
REMARK 927      BINDING AFFINITY PREDICTED BY RF-SCORE:    0.00 PKD
ROOT
HETATM    1  N   UNK A   0      -6.250  10.552  62.364  1.00  0.00    -0.139 NA 
HETATM    2  C   UNK A   0      -6.483   9.809  63.496  1.00  0.00    -0.117 A  
HETATM    3  H2  UNK A   0      -5.779  11.455  62.414  1.00  0.00     0.000 HD 
HETATM    4  H1  UNK A   0      -6.562  10.169  61.471  1.00  0.00     0.000 HD 
HETATM    5  N   UNK A   0      -6.075  10.307  64.659  1.00  0.00    -0.132 NA 
HETATM    6  C   UNK A   0      -6.223   9.550  65.744  1.00  0.00    -0.064 A  
HETATM    7  N   UNK A   0      -5.737  10.014  66.901  1.00  0.00    -0.049 NA 
HETATM    8  C   UNK A   0      -5.792   9.207  67.987  1.00  0.00    -0.038 A  
HETATM    9  C   UNK A   0      -6.345   7.936  67.954  1.00  0.00    -0.051 A  
HETATM   10  H2  UNK A   0      -8.700   6.639  64.895  1.00  0.00     0.000 HD 
HETATM   11  N   UNK A   0      -6.892   7.469  66.811  1.00  0.00    -0.068 NA 
HETATM   12  H1  UNK A   0      -8.202   6.375  63.340  1.00  0.00     0.000 HD 
HETATM   13  C   UNK A   0      -6.813   8.283  65.713  1.00  0.00    -0.063 A  
HETATM   14  C   UNK A   0      -7.232   7.890  64.447  1.00  0.00    -0.081 A  
HETATM   15  N   UNK A   0      -7.895   6.663  64.269  1.00  0.00    -0.116 NA 
HETATM   16  N   UNK A   0      -7.077   8.630  63.341  1.00  0.00    -0.089 NA 
ENDROOT
BRANCH   9  17
HETATM   17  C   UNK A   0      -6.247   6.985  69.123  1.00  0.00    -0.031 C  
HETATM   18  C   UNK A   0      -8.727   7.295  69.623  1.00  0.00    -0.141 A  
HETATM   19  C   UNK A   0      -8.631   8.336  70.564  1.00  0.00    -0.131 A  
HETATM   20  C   UNK A   0      -9.842   7.256  68.774  1.00  0.00    -0.161 A  
HETATM   21  C   UNK A   0      -7.596   6.278  69.442  1.00  0.00    -0.098 C  
HETATM   22  C   UNK A   0     -10.774   8.295  68.780  1.00  0.00    -0.076 A  
HETATM   23  C   UNK A   0      -9.563   9.377  70.573  1.00  0.00    -0.330 A  
HETATM   24  C   UNK A   0      -7.509   5.359  70.675  1.00  0.00    -0.079 C  
HETATM   25  C   UNK A   0     -10.602   9.385  69.637  1.00  0.00    -0.239 A  
BRANCH  24  26
HETATM   26  C   UNK A   0      -6.507   4.285  70.546  1.00  0.00    -0.031 C  
HETATM   27  C   UNK A   0      -5.746   3.361  70.443  1.00  0.00    -0.017 C  
ENDBRANCH  24  26
BRANCH  25  28
HETATM   28  C   UNK A   0     -11.489  10.571  69.547  1.00  0.00    -0.272 C  
HETATM   29  O   UNK A   0     -12.366  10.769  70.378  1.00  0.00    -0.306 OA 
ATOM     30  N   GLU A   1     -11.218  11.451  68.502  1.00  0.00    -0.226 N  
ATOM     31  H   GLU A   1     -10.533  11.206  67.787  1.00  0.00     0.000 HD 
BRANCH  30  32
ATOM     32  CA  GLU A   1     -11.932  12.743  68.439  1.00  0.00    -0.231 C  
ATOM     33  O   GLU A   1     -10.717  12.862  66.353  1.00  0.00    -0.266 OA 
ATOM     34  C   GLU A   1     -11.804  13.327  67.018  1.00  0.00    -0.390 C  
ATOM     35  OXT GLU A   1     -12.503  14.227  66.577  1.00  0.00    -0.428 OA 
BRANCH  32  36
ATOM     36  CB  GLU A   1     -11.344  13.728  69.465  1.00  0.00    -0.283 C  
BRANCH  36  37
ATOM     37  CG  GLU A   1     -12.314  14.073  70.601  1.00  0.00    -0.446 C  
ATOM     38  CD  GLU A   1     -12.210  15.512  71.042  1.00  0.00    -0.396 C  
ATOM     39  OE2 GLU A   1     -11.445  16.339  70.576  1.00  0.00    -0.367 OA 
ATOM     40  OE1 GLU A   1     -13.086  15.808  72.030  1.00  0.00    -0.445 OA 
ENDBRANCH  36  37
ENDBRANCH  32  36
ENDBRANCH  30  32
ENDBRANCH  25  28
ENDBRANCH   9  17
TORSDOF 6
ENDMDL
MODEL      114
REMARK 921   NORMALIZED FREE ENERGY PREDICTED BY IDOCK:   -4.52 KCAL/MOL
REMARK 922        TOTAL FREE ENERGY PREDICTED BY IDOCK:   -7.51 KCAL/MOL
REMARK 923 INTER-LIGAND FREE ENERGY PREDICTED BY IDOCK:   -6.13 KCAL/MOL
REMARK 924 INTRA-LIGAND FREE ENERGY PREDICTED BY IDOCK:   -1.38 KCAL/MOL
REMARK 927      BINDING AFFINITY PREDICTED BY RF-SCORE:    0.00 PKD
ROOT
HETATM    1  N   UNK A   0      -8.627   8.395  73.495  1.00  0.00    -0.344 NA 
HETATM    2  C   UNK A   0      -9.067   7.617  72.451  1.00  0.00    -0.143 A  
HETATM    3  H2  UNK A   0      -7.645   8.406  73.766  1.00  0.00     0.000 HD 
HETATM    4  H1  UNK A   0      -9.317   8.960  73.989  1.00  0.00     0.000 HD 
HETATM    5  N   UNK A   0      -8.168   6.880  71.806  1.00  0.00    -0.105 NA 
HETATM    6  C   UNK A   0      -8.578   6.192  70.742  1.00  0.00    -0.135 A  
HETATM    7  N   UNK A   0      -7.659   5.517  70.042  1.00  0.00    -0.076 NA 
HETATM    8  C   UNK A   0      -8.050   4.902  68.901  1.00  0.00    -0.083 A  
HETATM    9  C   UNK A   0      -9.358   4.925  68.442  1.00  0.00    -0.131 A  
HETATM   10  H2  UNK A   0     -12.491   6.065  70.781  1.00  0.00     0.000 HD 
HETATM   11  N   UNK A   0     -10.313   5.553  69.161  1.00  0.00    -0.239 NA 
HETATM   12  H1  UNK A   0     -12.754   7.590  71.364  1.00  0.00     0.000 HD 
HETATM   13  C   UNK A   0      -9.905   6.191  70.302  1.00  0.00    -0.169 A  
HETATM   14  C   UNK A   0     -10.755   6.968  71.080  1.00  0.00    -0.233 A  
HETATM   15  N   UNK A   0     -12.130   7.019  70.794  1.00  0.00    -0.350 NA 
HETATM   16  N   UNK A   0     -10.359   7.680  72.144  1.00  0.00    -0.211 NA 
ENDROOT
BRANCH   9  17
HETATM   17  C   UNK A   0      -9.745   4.381  67.088  1.00  0.00    -0.230 C  
HETATM   18  C   UNK A   0      -8.328   6.158  65.933  1.00  0.00    -0.140 A  
HETATM   19  C   UNK A   0      -9.321   7.134  65.737  1.00  0.00     0.164 A  
HETATM   20  C   UNK A   0      -7.011   6.576  66.175  1.00  0.00    -0.062 A  
HETATM   21  C   UNK A   0      -8.677   4.668  65.993  1.00  0.00    -0.116 C  
HETATM   22  C   UNK A   0      -6.716   7.930  66.338  1.00  0.00    -0.054 A  
HETATM   23  C   UNK A   0      -9.028   8.491  65.898  1.00  0.00    -0.235 A  
HETATM   24  C   UNK A   0      -9.104   4.169  64.599  1.00  0.00    -0.146 C  
HETATM   25  C   UNK A   0      -7.735   8.882  66.260  1.00  0.00    -0.098 A  
BRANCH  24  26
HETATM   26  C   UNK A   0      -9.367   2.719  64.542  1.00  0.00    -0.142 C  
HETATM   27  C   UNK A   0      -9.521   1.528  64.536  1.00  0.00    -0.113 C  
ENDBRANCH  24  26
BRANCH  25  28
HETATM   28  C   UNK A   0      -7.473  10.306  66.587  1.00  0.00    -0.110 C  
HETATM   29  O   UNK A   0      -6.566  10.924  66.043  1.00  0.00    -0.126 OA 
ATOM     30  N   GLU A   1      -8.352  10.889  67.498  1.00  0.00    -0.116 N  
ATOM     31  H   GLU A   1      -9.040  10.316  67.987  1.00  0.00     0.000 HD 
BRANCH  30  32
ATOM     32  CA  GLU A   1      -8.276  12.343  67.747  1.00  0.00    -0.163 C  
ATOM     33  O   GLU A   1      -6.997  11.550  69.639  1.00  0.00    -0.089 OA 
ATOM     34  C   GLU A   1      -7.216  12.618  68.832  1.00  0.00    -0.045 C  
ATOM     35  OXT GLU A   1      -6.729  13.717  69.057  1.00  0.00    -0.103 OA 
BRANCH  32  36
ATOM     36  CB  GLU A   1      -9.644  12.878  68.206  1.00  0.00    -0.212 C  
BRANCH  36  37
ATOM     37  CG  GLU A   1     -10.588  13.207  67.043  1.00  0.00    -0.259 C  
ATOM     38  CD  GLU A   1     -11.560  12.093  66.744  1.00  0.00    -0.345 C  
ATOM     39  OE2 GLU A   1     -11.614  11.028  67.335  1.00  0.00    -0.525 OA 
ATOM     40  OE1 GLU A   1     -12.399  12.405  65.731  1.00  0.00    -0.644 OA 
ENDBRANCH  36  37
ENDBRANCH  32  36
ENDBRANCH  30  32
ENDBRANCH  25  28
ENDBRANCH   9  17
TORSDOF 6
ENDMDL
MODEL      115
REMARK 921   NORMALIZED FREE ENERGY PREDICTED BY IDOCK:   -4.51 KCAL/MOL
REMARK 922        TOTAL FREE ENERGY PREDICTED BY IDOCK:   -7.51 KCAL/MOL
REMARK 923 INTER-LIGAND FREE ENERGY PREDICTED BY IDOCK:   -6.38 KCAL/MOL
REMARK 924 INTRA-LIGAND FREE ENERGY PREDICTED BY IDOCK:   -1.12 KCAL/MOL
REMARK 927      BINDING AFFINITY PREDICTED BY RF-SCORE:    0.00 PKD
ROOT
HETATM    1  N   UNK A   0      -5.127  15.118  71.826  1.00  0.00    -0.149 NA 
HETATM    2  C   UNK A   0      -5.811  14.506  70.804  1.00  0.00    -0.181 A  
HETATM    3  H2  UNK A   0      -4.536  14.581  72.461  1.00  0.00     0.000 HD 
HETATM    4  H1  UNK A   0      -5.229  16.128  71.929  1.00  0.00     0.000 HD 
HETATM    5  N   UNK A   0      -5.677  13.191  70.669  1.00  0.00    -0.178 NA 
HETATM    6  C   UNK A   0      -6.270  12.610  69.628  1.00  0.00    -0.122 A  
HETATM    7  N   UNK A   0      -6.068  11.301  69.442  1.00  0.00    -0.065 NA 
HETATM    8  C   UNK A   0      -6.582  10.725  68.330  1.00  0.00    -0.055 A  
HETATM    9  C   UNK A   0      -7.322  11.428  67.391  1.00  0.00    -0.119 A  
HETATM   10  H2  UNK A   0      -8.874  15.120  68.128  1.00  0.00     0.000 HD 
HETATM   11  N   UNK A   0      -7.587  12.738  67.586  1.00  0.00    -0.139 NA 
HETATM   12  H1  UNK A   0      -8.001  16.505  68.358  1.00  0.00     0.000 HD 
HETATM   13  C   UNK A   0      -7.044  13.317  68.702  1.00  0.00    -0.103 A  
HETATM   14  C   UNK A   0      -7.139  14.676  68.972  1.00  0.00    -0.128 A  
HETATM   15  N   UNK A   0      -7.931  15.507  68.160  1.00  0.00    -0.129 NA 
HETATM   16  N   UNK A   0      -6.536  15.282  70.004  1.00  0.00    -0.156 NA 
ENDROOT
BRANCH   9  17
HETATM   17  C   UNK A   0      -7.743  10.816  66.077  1.00  0.00    -0.139 C  
HETATM   18  C   UNK A   0      -9.921   9.999  67.119  1.00  0.00    -0.251 A  
HETATM   19  C   UNK A   0      -9.511   8.709  67.498  1.00  0.00    -0.181 A  
HETATM   20  C   UNK A   0     -10.859  10.669  67.918  1.00  0.00    -0.328 A  
HETATM   21  C   UNK A   0      -9.288  10.718  65.923  1.00  0.00    -0.220 C  
HETATM   22  C   UNK A   0     -11.283  10.116  69.128  1.00  0.00    -0.234 A  
HETATM   23  C   UNK A   0      -9.935   8.152  68.707  1.00  0.00    -0.198 A  
HETATM   24  C   UNK A   0      -9.714  10.034  64.610  1.00  0.00    -0.339 C  
HETATM   25  C   UNK A   0     -10.775   8.885  69.550  1.00  0.00    -0.206 A  
BRANCH  24  26
HETATM   26  C   UNK A   0      -9.227  10.720  63.399  1.00  0.00    -0.283 C  
HETATM   27  C   UNK A   0      -8.795  11.325  62.456  1.00  0.00    -0.273 C  
ENDBRANCH  24  26
BRANCH  25  28
HETATM   28  C   UNK A   0     -11.089   8.356  70.901  1.00  0.00    -0.254 C  
HETATM   29  O   UNK A   0     -12.118   8.677  71.483  1.00  0.00    -0.290 OA 
ATOM     30  N   GLU A   1     -10.173   7.444  71.421  1.00  0.00    -0.188 N  
ATOM     31  H   GLU A   1      -9.291   7.270  70.939  1.00  0.00     0.000 HD 
BRANCH  30  32
ATOM     32  CA  GLU A   1     -10.491   6.734  72.677  1.00  0.00    -0.213 C  
ATOM     33  O   GLU A   1      -8.126   6.252  72.538  1.00  0.00    -0.103 OA 
ATOM     34  C   GLU A   1      -9.180   6.346  73.388  1.00  0.00    -0.131 C  
ATOM     35  OXT GLU A   1      -9.106   6.004  74.559  1.00  0.00    -0.132 OA 
BRANCH  32  36
ATOM     36  CB  GLU A   1     -11.319   5.471  72.380  1.00  0.00    -0.294 C  
BRANCH  36  37
ATOM     37  CG  GLU A   1     -10.466   4.201  72.264  1.00  0.00    -0.141 C  
ATOM     38  CD  GLU A   1      -9.859   4.027  70.894  1.00  0.00    -0.159 C  
ATOM     39  OE2 GLU A   1     -10.014   4.787  69.953  1.00  0.00    -0.208 OA 
ATOM     40  OE1 GLU A   1      -9.094   2.915  70.812  1.00  0.00    -0.096 OA 
ENDBRANCH  36  37
ENDBRANCH  32  36
ENDBRANCH  30  32
ENDBRANCH  25  28
ENDBRANCH   9  17
TORSDOF 6
ENDMDL
MODEL      116
REMARK 921   NORMALIZED FREE ENERGY PREDICTED BY IDOCK:   -4.51 KCAL/MOL
REMARK 922        TOTAL FREE ENERGY PREDICTED BY IDOCK:   -7.51 KCAL/MOL
REMARK 923 INTER-LIGAND FREE ENERGY PREDICTED BY IDOCK:   -6.72 KCAL/MOL
REMARK 924 INTRA-LIGAND FREE ENERGY PREDICTED BY IDOCK:   -0.78 KCAL/MOL
REMARK 927      BINDING AFFINITY PREDICTED BY RF-SCORE:    0.00 PKD
ROOT
HETATM    1  N   UNK A   0     -12.968  13.248  64.000  1.00  0.00    -0.356 NA 
HETATM    2  C   UNK A   0     -11.931  13.761  64.742  1.00  0.00    -0.404 A  
HETATM    3  H2  UNK A   0     -13.253  12.274  64.097  1.00  0.00     0.000 HD 
HETATM    4  H1  UNK A   0     -13.444  13.874  63.351  1.00  0.00     0.000 HD 
HETATM    5  N   UNK A   0     -11.313  12.945  65.589  1.00  0.00    -0.301 NA 
HETATM    6  C   UNK A   0     -10.365  13.463  66.369  1.00  0.00    -0.288 A  
HETATM    7  N   UNK A   0      -9.800  12.663  67.280  1.00  0.00    -0.203 NA 
HETATM    8  C   UNK A   0      -8.911  13.207  68.145  1.00  0.00    -0.195 A  
HETATM    9  C   UNK A   0      -8.551  14.546  68.112  1.00  0.00    -0.169 A  
HETATM   10  H2  UNK A   0      -9.359  16.965  64.937  1.00  0.00     0.000 HD 
HETATM   11  N   UNK A   0      -9.066  15.359  67.164  1.00  0.00    -0.210 NA 
HETATM   12  H1  UNK A   0     -10.865  17.442  64.447  1.00  0.00     0.000 HD 
HETATM   13  C   UNK A   0      -9.980  14.805  66.308  1.00  0.00    -0.291 A  
HETATM   14  C   UNK A   0     -10.674  15.546  65.359  1.00  0.00    -0.405 A  
HETATM   15  N   UNK A   0     -10.356  16.898  65.144  1.00  0.00    -0.592 NA 
HETATM   16  N   UNK A   0     -11.641  15.048  64.576  1.00  0.00    -0.376 NA 
ENDROOT
BRANCH   9  17
HETATM   17  C   UNK A   0      -7.692  15.174  69.183  1.00  0.00    -0.195 C  
HETATM   18  C   UNK A   0      -5.974  13.307  68.947  1.00  0.00    -0.079 A  
HETATM   19  C   UNK A   0      -6.452  12.444  69.948  1.00  0.00     0.024 A  
HETATM   20  C   UNK A   0      -5.381  12.750  67.805  1.00  0.00    -0.115 A  
HETATM   21  C   UNK A   0      -6.184  14.822  69.034  1.00  0.00    -0.094 C  
HETATM   22  C   UNK A   0      -5.376  11.368  67.611  1.00  0.00    -0.050 A  
HETATM   23  C   UNK A   0      -6.447  11.059  69.758  1.00  0.00    -0.137 A  
HETATM   24  C   UNK A   0      -5.320  15.411  70.165  1.00  0.00    -0.126 C  
HETATM   25  C   UNK A   0      -5.963  10.527  68.559  1.00  0.00    -0.043 A  
BRANCH  24  26
HETATM   26  C   UNK A   0      -5.387  16.881  70.259  1.00  0.00    -0.213 C  
HETATM   27  C   UNK A   0      -5.514  18.072  70.350  1.00  0.00    -0.251 C  
ENDBRANCH  24  26
BRANCH  25  28
HETATM   28  C   UNK A   0      -6.110   9.073  68.299  1.00  0.00    -0.053 C  
HETATM   29  O   UNK A   0      -5.188   8.418  67.830  1.00  0.00    -0.033 OA 
ATOM     30  N   GLU A   1      -7.329   8.513  68.673  1.00  0.00    -0.086 N  
ATOM     31  H   GLU A   1      -8.097   9.109  68.983  1.00  0.00     0.000 HD 
BRANCH  30  32
ATOM     32  CA  GLU A   1      -7.500   7.046  68.615  1.00  0.00    -0.102 C  
ATOM     33  O   GLU A   1      -9.126   7.699  66.950  1.00  0.00    -0.133 OA 
ATOM     34  C   GLU A   1      -8.337   6.680  67.374  1.00  0.00    -0.121 C  
ATOM     35  OXT GLU A   1      -8.416   5.555  66.902  1.00  0.00    -0.111 OA 
BRANCH  32  36
ATOM     36  CB  GLU A   1      -8.203   6.540  69.888  1.00  0.00    -0.126 C  
BRANCH  36  37
ATOM     37  CG  GLU A   1      -8.537   7.659  70.881  1.00  0.00    -0.129 C  
ATOM     38  CD  GLU A   1      -9.994   8.050  70.854  1.00  0.00    -0.186 C  
ATOM     39  OE2 GLU A   1     -10.842   7.558  70.129  1.00  0.00    -0.243 OA 
ATOM     40  OE1 GLU A   1     -10.279   9.023  71.749  1.00  0.00    -0.328 OA 
ENDBRANCH  36  37
ENDBRANCH  32  36
ENDBRANCH  30  32
ENDBRANCH  25  28
ENDBRANCH   9  17
TORSDOF 6
ENDMDL
MODEL      117
REMARK 921   NORMALIZED FREE ENERGY PREDICTED BY IDOCK:   -4.46 KCAL/MOL
REMARK 922        TOTAL FREE ENERGY PREDICTED BY IDOCK:   -7.43 KCAL/MOL
REMARK 923 INTER-LIGAND FREE ENERGY PREDICTED BY IDOCK:   -6.24 KCAL/MOL
REMARK 924 INTRA-LIGAND FREE ENERGY PREDICTED BY IDOCK:   -1.19 KCAL/MOL
REMARK 927      BINDING AFFINITY PREDICTED BY RF-SCORE:    0.00 PKD
ROOT
HETATM    1  N   UNK A   0     -12.475   6.996  73.159  1.00  0.00     0.573 NA 
HETATM    2  C   UNK A   0     -11.587   7.045  72.111  1.00  0.00    -0.282 A  
HETATM    3  H2  UNK A   0     -13.475   6.886  72.997  1.00  0.00     0.000 HD 
HETATM    4  H1  UNK A   0     -12.099   7.072  74.104  1.00  0.00     0.000 HD 
HETATM    5  N   UNK A   0     -12.077   6.945  70.879  1.00  0.00    -0.382 NA 
HETATM    6  C   UNK A   0     -11.210   6.907  69.868  1.00  0.00    -0.285 A  
HETATM    7  N   UNK A   0     -11.696   6.721  68.636  1.00  0.00     0.365 NA 
HETATM    8  C   UNK A   0     -10.816   6.578  67.617  1.00  0.00    -0.337 A  
HETATM    9  C   UNK A   0      -9.442   6.635  67.794  1.00  0.00    -0.120 A  
HETATM   10  H2  UNK A   0      -7.719   8.094  71.183  1.00  0.00     0.000 HD 
HETATM   11  N   UNK A   0      -8.930   6.877  69.021  1.00  0.00    -0.133 NA 
HETATM   12  H1  UNK A   0      -7.803   7.402  72.683  1.00  0.00     0.000 HD 
HETATM   13  C   UNK A   0      -9.827   6.999  70.048  1.00  0.00    -0.177 A  
HETATM   14  C   UNK A   0      -9.442   7.138  71.376  1.00  0.00    -0.161 A  
HETATM   15  N   UNK A   0      -8.086   7.300  71.708  1.00  0.00    -0.099 NA 
HETATM   16  N   UNK A   0     -10.297   7.162  72.408  1.00  0.00    -0.195 NA 
ENDROOT
BRANCH   9  17
HETATM   17  C   UNK A   0      -8.473   6.305  66.684  1.00  0.00    -0.114 C  
HETATM   18  C   UNK A   0      -8.095   8.786  66.235  1.00  0.00    -0.107 A  
HETATM   19  C   UNK A   0      -9.060   8.974  65.230  1.00  0.00    -0.226 A  
HETATM   20  C   UNK A   0      -7.825   9.843  67.116  1.00  0.00    -0.099 A  
HETATM   21  C   UNK A   0      -7.420   7.427  66.448  1.00  0.00    -0.084 C  
HETATM   22  C   UNK A   0      -8.585  11.014  67.072  1.00  0.00    -0.140 A  
HETATM   23  C   UNK A   0      -9.820  10.146  65.182  1.00  0.00    -0.394 A  
HETATM   24  C   UNK A   0      -6.474   7.117  65.272  1.00  0.00    -0.047 C  
HETATM   25  C   UNK A   0      -9.622  11.140  66.145  1.00  0.00    -0.239 A  
BRANCH  24  26
HETATM   26  C   UNK A   0      -5.708   5.869  65.440  1.00  0.00    -0.024 C  
HETATM   27  C   UNK A   0      -5.146   4.819  65.597  1.00  0.00    -0.008 C  
ENDBRANCH  24  26
BRANCH  25  28
HETATM   28  C   UNK A   0     -10.541  12.305  66.185  1.00  0.00    -0.249 C  
HETATM   29  O   UNK A   0     -11.717  12.193  65.864  1.00  0.00    -0.411 OA 
ATOM     30  N   GLU A   1      -9.989  13.493  66.658  1.00  0.00    -0.274 N  
ATOM     31  H   GLU A   1      -8.987  13.561  66.836  1.00  0.00     0.000 HD 
BRANCH  30  32
ATOM     32  CA  GLU A   1     -10.871  14.655  66.900  1.00  0.00    -0.305 C  
ATOM     33  O   GLU A   1      -9.172  15.721  65.550  1.00  0.00    -0.280 OA 
ATOM     34  C   GLU A   1     -10.463  15.807  65.960  1.00  0.00    -0.338 C  
ATOM     35  OXT GLU A   1     -11.159  16.783  65.723  1.00  0.00    -0.016 OA 
BRANCH  32  36
ATOM     36  CB  GLU A   1     -10.762  15.111  68.365  1.00  0.00    -0.248 C  
BRANCH  36  37
ATOM     37  CG  GLU A   1     -12.108  15.120  69.099  1.00  0.00    -0.258 C  
ATOM     38  CD  GLU A   1     -11.971  15.436  70.568  1.00  0.00    -0.357 C  
ATOM     39  OE2 GLU A   1     -10.921  15.657  71.146  1.00  0.00    -0.326 OA 
ATOM     40  OE1 GLU A   1     -13.168  15.461  71.199  1.00  0.00    -0.462 OA 
ENDBRANCH  36  37
ENDBRANCH  32  36
ENDBRANCH  30  32
ENDBRANCH  25  28
ENDBRANCH   9  17
TORSDOF 6
ENDMDL
MODEL      118
REMARK 921   NORMALIZED FREE ENERGY PREDICTED BY IDOCK:   -4.45 KCAL/MOL
REMARK 922        TOTAL FREE ENERGY PREDICTED BY IDOCK:   -7.42 KCAL/MOL
REMARK 923 INTER-LIGAND FREE ENERGY PREDICTED BY IDOCK:   -7.36 KCAL/MOL
REMARK 924 INTRA-LIGAND FREE ENERGY PREDICTED BY IDOCK:   -0.06 KCAL/MOL
REMARK 927      BINDING AFFINITY PREDICTED BY RF-SCORE:    0.00 PKD
ROOT
HETATM    1  N   UNK A   0     -12.786   8.259  72.856  1.00  0.00    -0.664 NA 
HETATM    2  C   UNK A   0     -12.504   9.310  72.015  1.00  0.00    -0.378 A  
HETATM    3  H2  UNK A   0     -12.311   7.363  72.755  1.00  0.00     0.000 HD 
HETATM    4  H1  UNK A   0     -13.484   8.408  73.584  1.00  0.00     0.000 HD 
HETATM    5  N   UNK A   0     -11.593   9.117  71.067  1.00  0.00    -0.289 NA 
HETATM    6  C   UNK A   0     -11.259  10.158  70.307  1.00  0.00    -0.318 A  
HETATM    7  N   UNK A   0     -10.282   9.989  69.409  1.00  0.00    -0.207 NA 
HETATM    8  C   UNK A   0      -9.865  11.068  68.706  1.00  0.00    -0.198 A  
HETATM    9  C   UNK A   0     -10.419  12.329  68.864  1.00  0.00    -0.101 A  
HETATM   10  H2  UNK A   0     -13.954  12.957  70.785  1.00  0.00     0.000 HD 
HETATM   11  N   UNK A   0     -11.444  12.513  69.724  1.00  0.00    -0.196 NA 
HETATM   12  H1  UNK A   0     -14.230  12.722  72.399  1.00  0.00     0.000 HD 
HETATM   13  C   UNK A   0     -11.844  11.420  70.447  1.00  0.00    -0.335 A  
HETATM   14  C   UNK A   0     -12.807  11.485  71.446  1.00  0.00    -0.384 A  
HETATM   15  N   UNK A   0     -13.523  12.675  71.665  1.00  0.00    -0.218 NA 
HETATM   16  N   UNK A   0     -13.146  10.453  72.231  1.00  0.00    -0.319 NA 
ENDROOT
BRANCH   9  17
HETATM   17  C   UNK A   0      -9.834  13.553  68.201  1.00  0.00    -0.237 C  
HETATM   18  C   UNK A   0      -9.641  12.302  65.988  1.00  0.00    -0.230 A  
HETATM   19  C   UNK A   0      -8.320  11.837  66.116  1.00  0.00     0.102 A  
HETATM   20  C   UNK A   0     -10.572  11.507  65.305  1.00  0.00    -0.339 A  
HETATM   21  C   UNK A   0     -10.100  13.596  66.668  1.00  0.00    -0.277 C  
HETATM   22  C   UNK A   0     -10.225  10.228  64.867  1.00  0.00    -0.261 A  
HETATM   23  C   UNK A   0      -7.970  10.558  65.677  1.00  0.00    -0.158 A  
HETATM   24  C   UNK A   0      -9.446  14.812  65.984  1.00  0.00    -0.299 C  
HETATM   25  C   UNK A   0      -8.942   9.730  65.107  1.00  0.00    -0.237 A  
BRANCH  24  26
HETATM   26  C   UNK A   0      -9.906  16.109  66.514  1.00  0.00    -0.283 C  
HETATM   27  C   UNK A   0     -10.339  17.131  66.975  1.00  0.00    -0.308 C  
ENDBRANCH  24  26
BRANCH  25  28
HETATM   28  C   UNK A   0      -8.601   8.320  64.793  1.00  0.00    -0.020 C  
HETATM   29  O   UNK A   0      -7.703   8.046  64.007  1.00  0.00    -0.122 OA 
ATOM     30  N   GLU A   1      -9.327   7.355  65.488  1.00  0.00    -0.281 N  
ATOM     31  H   GLU A   1     -10.119   7.626  66.070  1.00  0.00     0.000 HD 
BRANCH  30  32
ATOM     32  CA  GLU A   1      -8.936   5.934  65.372  1.00  0.00    -0.002 C  
ATOM     33  O   GLU A   1     -10.563   5.755  67.152  1.00  0.00    -0.240 OA 
ATOM     34  C   GLU A   1      -9.934   5.067  66.166  1.00  0.00    -0.218 C  
ATOM     35  OXT GLU A   1     -10.047   3.856  66.041  1.00  0.00    -0.127 OA 
BRANCH  32  36
ATOM     36  CB  GLU A   1      -7.513   5.726  65.918  1.00  0.00    -0.078 C  
BRANCH  36  37
ATOM     37  CG  GLU A   1      -6.588   4.997  64.936  1.00  0.00    -0.040 C  
ATOM     38  CD  GLU A   1      -6.474   3.520  65.226  1.00  0.00    -0.036 C  
ATOM     39  OE2 GLU A   1      -7.035   2.936  66.137  1.00  0.00    -0.054 OA 
ATOM     40  OE1 GLU A   1      -5.672   2.886  64.340  1.00  0.00    -0.009 OA 
ENDBRANCH  36  37
ENDBRANCH  32  36
ENDBRANCH  30  32
ENDBRANCH  25  28
ENDBRANCH   9  17
TORSDOF 6
ENDMDL
MODEL      119
REMARK 921   NORMALIZED FREE ENERGY PREDICTED BY IDOCK:   -4.42 KCAL/MOL
REMARK 922        TOTAL FREE ENERGY PREDICTED BY IDOCK:   -7.39 KCAL/MOL
REMARK 923 INTER-LIGAND FREE ENERGY PREDICTED BY IDOCK:   -6.25 KCAL/MOL
REMARK 924 INTRA-LIGAND FREE ENERGY PREDICTED BY IDOCK:   -1.14 KCAL/MOL
REMARK 927      BINDING AFFINITY PREDICTED BY RF-SCORE:    0.00 PKD
ROOT
HETATM    1  N   UNK A   0     -10.208   6.910  73.762  1.00  0.00    -0.332 NA 
HETATM    2  C   UNK A   0      -9.878   6.975  72.430  1.00  0.00    -0.153 A  
HETATM    3  H2  UNK A   0     -11.166   6.727  74.059  1.00  0.00     0.000 HD 
HETATM    4  H1  UNK A   0      -9.463   7.050  74.444  1.00  0.00     0.000 HD 
HETATM    5  N   UNK A   0     -10.849   6.791  71.541  1.00  0.00    -0.230 NA 
HETATM    6  C   UNK A   0     -10.515   6.769  70.253  1.00  0.00    -0.207 A  
HETATM    7  N   UNK A   0     -11.476   6.500  69.362  1.00  0.00    -0.336 NA 
HETATM    8  C   UNK A   0     -11.125   6.373  68.060  1.00  0.00    -0.267 A  
HETATM    9  C   UNK A   0      -9.821   6.528  67.613  1.00  0.00    -0.125 A  
HETATM   10  H2  UNK A   0      -6.905   8.238  69.884  1.00  0.00     0.000 HD 
HETATM   11  N   UNK A   0      -8.844   6.855  68.486  1.00  0.00    -0.124 NA 
HETATM   12  H1  UNK A   0      -6.267   7.604  71.272  1.00  0.00     0.000 HD 
HETATM   13  C   UNK A   0      -9.204   6.960  69.803  1.00  0.00    -0.147 A  
HETATM   14  C   UNK A   0      -8.288   7.179  70.824  1.00  0.00    -0.128 A  
HETATM   15  N   UNK A   0      -6.940   7.444  70.523  1.00  0.00    -0.052 NA 
HETATM   16  N   UNK A   0      -8.601   7.189  72.127  1.00  0.00    -0.111 NA 
ENDROOT
BRANCH   9  17
HETATM   17  C   UNK A   0      -9.416   6.218  66.192  1.00  0.00    -0.092 C  
HETATM   18  C   UNK A   0      -8.487   8.575  65.909  1.00  0.00    -0.164 A  
HETATM   19  C   UNK A   0      -9.627   9.193  65.365  1.00  0.00    -0.166 A  
HETATM   20  C   UNK A   0      -7.641   9.329  66.735  1.00  0.00    -0.090 A  
HETATM   21  C   UNK A   0      -8.217   7.081  65.704  1.00  0.00    -0.134 C  
HETATM   22  C   UNK A   0      -7.988  10.629  67.107  1.00  0.00    -0.121 A  
HETATM   23  C   UNK A   0      -9.976  10.495  65.734  1.00  0.00    -0.318 A  
HETATM   24  C   UNK A   0      -7.848   6.809  64.233  1.00  0.00    -0.109 C  
HETATM   25  C   UNK A   0      -9.185  11.190  66.655  1.00  0.00    -0.188 A  
BRANCH  24  26
HETATM   26  C   UNK A   0      -7.477   5.407  63.964  1.00  0.00    -0.061 C  
HETATM   27  C   UNK A   0      -7.135   4.266  63.807  1.00  0.00    -0.046 C  
ENDBRANCH  24  26
BRANCH  25  28
HETATM   28  C   UNK A   0      -9.650  12.504  67.164  1.00  0.00    -0.208 C  
HETATM   29  O   UNK A   0     -10.624  12.589  67.901  1.00  0.00    -0.209 OA 
ATOM     30  N   GLU A   1      -8.877  13.603  66.793  1.00  0.00    -0.406 N  
ATOM     31  H   GLU A   1      -8.125  13.496  66.112  1.00  0.00     0.000 HD 
BRANCH  30  32
ATOM     32  CA  GLU A   1      -9.159  14.922  67.395  1.00  0.00    -0.189 C  
ATOM     33  O   GLU A   1      -9.681  15.420  65.087  1.00  0.00    -0.221 OA 
ATOM     34  C   GLU A   1      -9.907  15.799  66.371  1.00  0.00    -0.276 C  
ATOM     35  OXT GLU A   1     -10.515  16.822  66.651  1.00  0.00    -0.304 OA 
BRANCH  32  36
ATOM     36  CB  GLU A   1      -7.847  15.610  67.813  1.00  0.00    -0.158 C  
BRANCH  36  37
ATOM     37  CG  GLU A   1      -7.549  15.486  69.312  1.00  0.00    -0.221 C  
ATOM     38  CD  GLU A   1      -6.656  14.314  69.635  1.00  0.00    -0.137 C  
ATOM     39  OE2 GLU A   1      -6.207  13.524  68.822  1.00  0.00    -0.080 OA 
ATOM     40  OE1 GLU A   1      -6.383  14.229  70.958  1.00  0.00    -0.133 OA 
ENDBRANCH  36  37
ENDBRANCH  32  36
ENDBRANCH  30  32
ENDBRANCH  25  28
ENDBRANCH   9  17
TORSDOF 6
ENDMDL
MODEL      120
REMARK 921   NORMALIZED FREE ENERGY PREDICTED BY IDOCK:   -4.42 KCAL/MOL
REMARK 922        TOTAL FREE ENERGY PREDICTED BY IDOCK:   -7.38 KCAL/MOL
REMARK 923 INTER-LIGAND FREE ENERGY PREDICTED BY IDOCK:   -7.48 KCAL/MOL
REMARK 924 INTRA-LIGAND FREE ENERGY PREDICTED BY IDOCK:    0.10 KCAL/MOL
REMARK 927      BINDING AFFINITY PREDICTED BY RF-SCORE:    0.00 PKD
ROOT
HETATM    1  N   UNK A   0      -9.178   9.608  63.584  1.00  0.00    -0.409 NA 
HETATM    2  C   UNK A   0      -9.851  10.362  64.515  1.00  0.00    -0.339 A  
HETATM    3  H2  UNK A   0      -8.445   8.957  63.864  1.00  0.00     0.000 HD 
HETATM    4  H1  UNK A   0      -9.438   9.720  62.604  1.00  0.00     0.000 HD 
HETATM    5  N   UNK A   0      -9.513  10.215  65.792  1.00  0.00    -0.192 NA 
HETATM    6  C   UNK A   0     -10.222  10.881  66.702  1.00  0.00    -0.234 A  
HETATM    7  N   UNK A   0      -9.939  10.670  67.992  1.00  0.00    -0.157 NA 
HETATM    8  C   UNK A   0     -10.722  11.263  68.924  1.00  0.00    -0.207 A  
HETATM    9  C   UNK A   0     -11.786  12.091  68.598  1.00  0.00    -0.326 A  
HETATM   10  H2  UNK A   0     -12.301  13.646  64.870  1.00  0.00     0.000 HD 
HETATM   11  N   UNK A   0     -12.055  12.363  67.302  1.00  0.00    -0.494 NA 
HETATM   12  H1  UNK A   0     -12.660  12.783  63.506  1.00  0.00     0.000 HD 
HETATM   13  C   UNK A   0     -11.272  11.742  66.367  1.00  0.00    -0.323 A  
HETATM   14  C   UNK A   0     -11.503  11.839  65.000  1.00  0.00    -0.188 A  
HETATM   15  N   UNK A   0     -12.490  12.711  64.509  1.00  0.00    -0.571 NA 
HETATM   16  N   UNK A   0     -10.812  11.165  64.071  1.00  0.00    -0.355 NA 
ENDROOT
BRANCH   9  17
HETATM   17  C   UNK A   0     -12.751  12.607  69.637  1.00  0.00     0.554 C  
HETATM   18  C   UNK A   0     -12.222  10.631  71.157  1.00  0.00    -0.479 A  
HETATM   19  C   UNK A   0     -13.250   9.762  70.750  1.00  0.00    -0.174 A  
HETATM   20  C   UNK A   0     -10.993  10.082  71.548  1.00  0.00     0.248 A  
HETATM   21  C   UNK A   0     -12.387  12.152  71.080  1.00  0.00    -0.331 C  
HETATM   22  C   UNK A   0     -10.754   8.713  71.419  1.00  0.00    -0.338 A  
HETATM   23  C   UNK A   0     -13.014   8.390  70.621  1.00  0.00     0.529 A  
HETATM   24  C   UNK A   0     -13.410  12.626  72.130  1.00  0.00    -0.570 C  
HETATM   25  C   UNK A   0     -11.744   7.877  70.898  1.00  0.00    -0.271 A  
BRANCH  24  26
HETATM   26  C   UNK A   0     -13.561  14.091  72.192  1.00  0.00    -0.582 C  
HETATM   27  C   UNK A   0     -13.750  15.275  72.275  1.00  0.00    -0.614 C  
ENDBRANCH  24  26
BRANCH  25  28
HETATM   28  C   UNK A   0     -11.458   6.450  70.604  1.00  0.00    -0.362 C  
HETATM   29  O   UNK A   0     -11.527   6.014  69.462  1.00  0.00    -0.384 OA 
ATOM     30  N   GLU A   1     -11.060   5.677  71.693  1.00  0.00    -0.224 N  
ATOM     31  H   GLU A   1     -11.096   6.061  72.637  1.00  0.00     0.000 HD 
BRANCH  30  32
ATOM     32  CA  GLU A   1     -10.586   4.296  71.465  1.00  0.00     0.252 C  
ATOM     33  O   GLU A   1     -10.897   4.217  73.861  1.00  0.00    -0.240 OA 
ATOM     34  C   GLU A   1     -10.826   3.460  72.737  1.00  0.00     0.037 C  
ATOM     35  OXT GLU A   1     -10.800   2.238  72.775  1.00  0.00    -0.139 OA 
BRANCH  32  36
ATOM     36  CB  GLU A   1      -9.088   4.297  71.114  1.00  0.00    -0.183 C  
BRANCH  36  37
ATOM     37  CG  GLU A   1      -8.306   5.425  71.798  1.00  0.00    -0.119 C  
ATOM     38  CD  GLU A   1      -7.902   6.520  70.842  1.00  0.00    -0.106 C  
ATOM     39  OE2 GLU A   1      -8.145   6.538  69.647  1.00  0.00    -0.120 OA 
ATOM     40  OE1 GLU A   1      -7.232   7.518  71.461  1.00  0.00    -0.068 OA 
ENDBRANCH  36  37
ENDBRANCH  32  36
ENDBRANCH  30  32
ENDBRANCH  25  28
ENDBRANCH   9  17
TORSDOF 6
ENDMDL
MODEL      121
REMARK 921   NORMALIZED FREE ENERGY PREDICTED BY IDOCK:   -4.41 KCAL/MOL
REMARK 922        TOTAL FREE ENERGY PREDICTED BY IDOCK:   -7.36 KCAL/MOL
REMARK 923 INTER-LIGAND FREE ENERGY PREDICTED BY IDOCK:   -5.88 KCAL/MOL
REMARK 924 INTRA-LIGAND FREE ENERGY PREDICTED BY IDOCK:   -1.48 KCAL/MOL
REMARK 927      BINDING AFFINITY PREDICTED BY RF-SCORE:    0.00 PKD
ROOT
HETATM    1  N   UNK A   0      -6.030  10.242  62.854  1.00  0.00    -0.134 NA 
HETATM    2  C   UNK A   0      -6.449   9.832  64.097  1.00  0.00    -0.119 A  
HETATM    3  H2  UNK A   0      -6.583  10.044  62.020  1.00  0.00     0.000 HD 
HETATM    4  H1  UNK A   0      -5.149  10.752  62.794  1.00  0.00     0.000 HD 
HETATM    5  N   UNK A   0      -7.598   9.168  64.176  1.00  0.00    -0.109 NA 
HETATM    6  C   UNK A   0      -8.046   8.846  65.387  1.00  0.00    -0.119 A  
HETATM    7  N   UNK A   0      -9.242   8.253  65.474  1.00  0.00    -0.018 NA 
HETATM    8  C   UNK A   0      -9.751   8.016  66.706  1.00  0.00    -0.237 A  
HETATM    9  C   UNK A   0      -9.078   8.342  67.874  1.00  0.00    -0.133 A  
HETATM   10  H2  UNK A   0      -5.113   9.266  67.946  1.00  0.00     0.000 HD 
HETATM   11  N   UNK A   0      -7.845   8.890  67.811  1.00  0.00    -0.101 NA 
HETATM   12  H1  UNK A   0      -4.423  10.609  67.270  1.00  0.00     0.000 HD 
HETATM   13  C   UNK A   0      -7.348   9.146  66.561  1.00  0.00    -0.089 A  
HETATM   14  C   UNK A   0      -6.146   9.807  66.345  1.00  0.00    -0.064 A  
HETATM   15  N   UNK A   0      -5.306  10.124  67.428  1.00  0.00    -0.041 NA 
HETATM   16  N   UNK A   0      -5.685  10.155  65.136  1.00  0.00    -0.095 NA 
ENDROOT
BRANCH   9  17
HETATM   17  C   UNK A   0      -9.726   8.229  69.234  1.00  0.00    -0.177 C  
HETATM   18  C   UNK A   0     -10.793  10.526  68.953  1.00  0.00    -0.275 A  
HETATM   19  C   UNK A   0      -9.802  11.304  69.577  1.00  0.00     0.336 A  
HETATM   20  C   UNK A   0     -11.504  11.078  67.878  1.00  0.00    -0.358 A  
HETATM   21  C   UNK A   0     -11.031   9.067  69.354  1.00  0.00    -0.082 C  
HETATM   22  C   UNK A   0     -11.151  12.326  67.361  1.00  0.00    -0.333 A  
HETATM   23  C   UNK A   0      -9.448  12.554  69.063  1.00  0.00     0.400 A  
HETATM   24  C   UNK A   0     -11.653   9.001  70.762  1.00  0.00    -0.313 C  
HETATM   25  C   UNK A   0     -10.084  13.037  67.916  1.00  0.00    -0.235 A  
BRANCH  24  26
HETATM   26  C   UNK A   0     -12.006   7.635  71.191  1.00  0.00    -0.319 C  
HETATM   27  C   UNK A   0     -12.221   6.507  71.543  1.00  0.00    -0.328 C  
ENDBRANCH  24  26
BRANCH  25  28
HETATM   28  C   UNK A   0      -9.592  14.286  67.284  1.00  0.00    -0.232 C  
HETATM   29  O   UNK A   0      -8.394  14.492  67.137  1.00  0.00    -0.201 OA 
ATOM     30  N   GLU A   1     -10.576  15.162  66.831  1.00  0.00    -0.291 N  
ATOM     31  H   GLU A   1     -11.558  14.990  67.047  1.00  0.00     0.000 HD 
BRANCH  30  32
ATOM     32  CA  GLU A   1     -10.183  16.343  66.034  1.00  0.00    -0.356 C  
ATOM     33  O   GLU A   1     -11.550  17.431  67.706  1.00  0.00     0.377 OA 
ATOM     34  C   GLU A   1     -10.550  17.624  66.809  1.00  0.00    -0.224 C  
ATOM     35  OXT GLU A   1     -10.111  18.736  66.551  1.00  0.00    -0.348 OA 
BRANCH  32  36
ATOM     36  CB  GLU A   1     -10.901  16.332  64.673  1.00  0.00    -0.122 C  
BRANCH  36  37
ATOM     37  CG  GLU A   1     -12.125  15.409  64.641  1.00  0.00    -0.124 C  
ATOM     38  CD  GLU A   1     -11.770  13.976  64.331  1.00  0.00    -0.397 C  
ATOM     39  OE2 GLU A   1     -10.645  13.560  64.114  1.00  0.00    -0.365 OA 
ATOM     40  OE1 GLU A   1     -12.856  13.170  64.326  1.00  0.00    -0.658 OA 
ENDBRANCH  36  37
ENDBRANCH  32  36
ENDBRANCH  30  32
ENDBRANCH  25  28
ENDBRANCH   9  17
TORSDOF 6
ENDMDL
MODEL      122
REMARK 921   NORMALIZED FREE ENERGY PREDICTED BY IDOCK:   -4.40 KCAL/MOL
REMARK 922        TOTAL FREE ENERGY PREDICTED BY IDOCK:   -7.35 KCAL/MOL
REMARK 923 INTER-LIGAND FREE ENERGY PREDICTED BY IDOCK:   -6.51 KCAL/MOL
REMARK 924 INTRA-LIGAND FREE ENERGY PREDICTED BY IDOCK:   -0.84 KCAL/MOL
REMARK 927      BINDING AFFINITY PREDICTED BY RF-SCORE:    0.00 PKD
ROOT
HETATM    1  N   UNK A   0     -12.927   8.550  72.670  1.00  0.00    -0.625 NA 
HETATM    2  C   UNK A   0     -12.798   9.654  71.862  1.00  0.00    -0.425 A  
HETATM    3  H2  UNK A   0     -12.769   7.611  72.308  1.00  0.00     0.000 HD 
HETATM    4  H1  UNK A   0     -13.186   8.703  73.645  1.00  0.00     0.000 HD 
HETATM    5  N   UNK A   0     -12.460   9.456  70.592  1.00  0.00    -0.071 NA 
HETATM    6  C   UNK A   0     -12.251  10.528  69.831  1.00  0.00    -0.218 A  
HETATM    7  N   UNK A   0     -11.829  10.332  68.576  1.00  0.00    -0.141 NA 
HETATM    8  C   UNK A   0     -11.515  11.417  67.830  1.00  0.00    -0.281 A  
HETATM    9  C   UNK A   0     -11.631  12.715  68.303  1.00  0.00    -0.332 A  
HETATM   10  H2  UNK A   0     -13.732  13.655  71.662  1.00  0.00     0.000 HD 
HETATM   11  N   UNK A   0     -12.109  12.940  69.546  1.00  0.00    -0.258 NA 
HETATM   12  H1  UNK A   0     -13.330  13.216  73.205  1.00  0.00     0.000 HD 
HETATM   13  C   UNK A   0     -12.403  11.836  70.301  1.00  0.00    -0.240 A  
HETATM   14  C   UNK A   0     -12.795  11.911  71.632  1.00  0.00    -0.312 A  
HETATM   15  N   UNK A   0     -13.042  13.160  72.228  1.00  0.00    -0.385 NA 
HETATM   16  N   UNK A   0     -12.994  10.845  72.419  1.00  0.00     0.040 NA 
ENDROOT
BRANCH   9  17
HETATM   17  C   UNK A   0     -11.120  13.904  67.524  1.00  0.00    -0.302 C  
HETATM   18  C   UNK A   0      -9.023  12.611  66.867  1.00  0.00    -0.213 A  
HETATM   19  C   UNK A   0      -8.176  13.029  67.908  1.00  0.00    -0.166 A  
HETATM   20  C   UNK A   0      -8.872  11.315  66.354  1.00  0.00    -0.184 A  
HETATM   21  C   UNK A   0     -10.165  13.501  66.363  1.00  0.00    -0.291 C  
HETATM   22  C   UNK A   0      -7.982  10.418  66.947  1.00  0.00    -0.114 A  
HETATM   23  C   UNK A   0      -7.282  12.134  68.502  1.00  0.00    -0.102 A  
HETATM   24  C   UNK A   0      -9.594  14.718  65.612  1.00  0.00    -0.235 C  
HETATM   25  C   UNK A   0      -7.231  10.809  68.058  1.00  0.00    -0.086 A  
BRANCH  24  26
HETATM   26  C   UNK A   0     -10.626  15.581  65.009  1.00  0.00    -0.435 C  
HETATM   27  C   UNK A   0     -11.448  16.337  64.566  1.00  0.00    -0.171 C  
ENDBRANCH  24  26
BRANCH  25  28
HETATM   28  C   UNK A   0      -6.401   9.827  68.799  1.00  0.00    -0.046 C  
HETATM   29  O   UNK A   0      -5.413  10.182  69.430  1.00  0.00    -0.038 OA 
ATOM     30  N   GLU A   1      -6.852   8.509  68.768  1.00  0.00    -0.061 N  
ATOM     31  H   GLU A   1      -7.631   8.245  68.164  1.00  0.00     0.000 HD 
BRANCH  30  32
ATOM     32  CA  GLU A   1      -6.191   7.498  69.619  1.00  0.00    -0.031 C  
ATOM     33  O   GLU A   1      -6.854   6.088  67.771  1.00  0.00    -0.056 OA 
ATOM     34  C   GLU A   1      -5.983   6.206  68.805  1.00  0.00    -0.024 C  
ATOM     35  OXT GLU A   1      -5.229   5.300  69.129  1.00  0.00     0.000 OA 
BRANCH  32  36
ATOM     36  CB  GLU A   1      -7.050   7.201  70.861  1.00  0.00    -0.069 C  
BRANCH  36  37
ATOM     37  CG  GLU A   1      -8.555   7.353  70.607  1.00  0.00    -0.141 C  
ATOM     38  CD  GLU A   1      -9.395   6.560  71.577  1.00  0.00    -0.147 C  
ATOM     39  OE2 GLU A   1      -8.961   5.856  72.473  1.00  0.00    -0.133 OA 
ATOM     40  OE1 GLU A   1     -10.720   6.719  71.356  1.00  0.00    -0.220 OA 
ENDBRANCH  36  37
ENDBRANCH  32  36
ENDBRANCH  30  32
ENDBRANCH  25  28
ENDBRANCH   9  17
TORSDOF 6
ENDMDL
MODEL      123
REMARK 921   NORMALIZED FREE ENERGY PREDICTED BY IDOCK:   -4.37 KCAL/MOL
REMARK 922        TOTAL FREE ENERGY PREDICTED BY IDOCK:   -7.31 KCAL/MOL
REMARK 923 INTER-LIGAND FREE ENERGY PREDICTED BY IDOCK:   -5.54 KCAL/MOL
REMARK 924 INTRA-LIGAND FREE ENERGY PREDICTED BY IDOCK:   -1.77 KCAL/MOL
REMARK 927      BINDING AFFINITY PREDICTED BY RF-SCORE:    0.00 PKD
ROOT
HETATM    1  N   UNK A   0     -10.899   4.755  66.043  1.00  0.00    -0.676 NA 
HETATM    2  C   UNK A   0     -10.572   5.933  66.671  1.00  0.00    -0.264 A  
HETATM    3  H2  UNK A   0     -10.575   4.556  65.097  1.00  0.00     0.000 HD 
HETATM    4  H1  UNK A   0     -11.476   4.088  66.554  1.00  0.00     0.000 HD 
HETATM    5  N   UNK A   0      -9.820   6.803  66.005  1.00  0.00     0.172 NA 
HETATM    6  C   UNK A   0      -9.432   7.905  66.644  1.00  0.00    -0.211 A  
HETATM    7  N   UNK A   0      -8.606   8.740  66.004  1.00  0.00    -0.139 NA 
HETATM    8  C   UNK A   0      -8.125   9.809  66.683  1.00  0.00    -0.116 A  
HETATM    9  C   UNK A   0      -8.467  10.081  67.999  1.00  0.00    -0.117 A  
HETATM   10  H2  UNK A   0     -11.617   8.301  69.868  1.00  0.00     0.000 HD 
HETATM   11  N   UNK A   0      -9.343   9.283  68.647  1.00  0.00    -0.138 NA 
HETATM   12  H1  UNK A   0     -11.727   6.697  70.257  1.00  0.00     0.000 HD 
HETATM   13  C   UNK A   0      -9.807   8.193  67.960  1.00  0.00    -0.168 A  
HETATM   14  C   UNK A   0     -10.624   7.227  68.535  1.00  0.00    -0.175 A  
HETATM   15  N   UNK A   0     -11.128   7.406  69.835  1.00  0.00    -0.229 NA 
HETATM   16  N   UNK A   0     -11.011   6.104  67.914  1.00  0.00    -0.328 NA 
ENDROOT
BRANCH   9  17
HETATM   17  C   UNK A   0      -7.796  11.174  68.795  1.00  0.00    -0.142 C  
HETATM   18  C   UNK A   0      -6.444   9.445  70.091  1.00  0.00    -0.058 A  
HETATM   19  C   UNK A   0      -7.302   9.279  71.192  1.00  0.00    -0.050 A  
HETATM   20  C   UNK A   0      -5.703   8.342  69.643  1.00  0.00    -0.030 A  
HETATM   21  C   UNK A   0      -6.388  10.765  69.316  1.00  0.00    -0.061 C  
HETATM   22  C   UNK A   0      -5.904   7.078  70.201  1.00  0.00    -0.024 A  
HETATM   23  C   UNK A   0      -7.505   8.016  71.755  1.00  0.00    -0.088 A  
HETATM   24  C   UNK A   0      -5.733  11.858  70.182  1.00  0.00    -0.147 C  
HETATM   25  C   UNK A   0      -6.849   6.905  71.216  1.00  0.00    -0.061 A  
BRANCH  24  26
HETATM   26  C   UNK A   0      -5.550  13.141  69.480  1.00  0.00    -0.088 C  
HETATM   27  C   UNK A   0      -5.466  14.176  68.876  1.00  0.00    -0.083 C  
ENDBRANCH  24  26
BRANCH  25  28
HETATM   28  C   UNK A   0      -7.193   5.549  71.711  1.00  0.00    -0.089 C  
HETATM   29  O   UNK A   0      -6.328   4.793  72.136  1.00  0.00    -0.027 OA 
ATOM     30  N   GLU A   1      -8.549   5.230  71.709  1.00  0.00    -0.129 N  
ATOM     31  H   GLU A   1      -9.224   5.857  71.271  1.00  0.00     0.000 HD 
BRANCH  30  32
ATOM     32  CA  GLU A   1      -8.999   3.975  72.347  1.00  0.00    -0.110 C  
ATOM     33  O   GLU A   1      -9.816   3.594  70.104  1.00  0.00    -0.170 OA 
ATOM     34  C   GLU A   1      -9.443   2.981  71.255  1.00  0.00    -0.149 C  
ATOM     35  OXT GLU A   1      -9.601   1.783  71.437  1.00  0.00    -0.115 OA 
BRANCH  32  36
ATOM     36  CB  GLU A   1     -10.167   4.254  73.308  1.00  0.00    -0.216 C  
BRANCH  36  37
ATOM     37  CG  GLU A   1     -11.034   5.445  72.879  1.00  0.00    -0.338 C  
ATOM     38  CD  GLU A   1     -10.612   6.739  73.531  1.00  0.00    -0.332 C  
ATOM     39  OE2 GLU A   1      -9.694   6.863  74.323  1.00  0.00    -0.267 OA 
ATOM     40  OE1 GLU A   1     -11.371   7.784  73.129  1.00  0.00    -0.374 OA 
ENDBRANCH  36  37
ENDBRANCH  32  36
ENDBRANCH  30  32
ENDBRANCH  25  28
ENDBRANCH   9  17
TORSDOF 6
ENDMDL
MODEL      124
REMARK 921   NORMALIZED FREE ENERGY PREDICTED BY IDOCK:   -4.36 KCAL/MOL
REMARK 922        TOTAL FREE ENERGY PREDICTED BY IDOCK:   -7.30 KCAL/MOL
REMARK 923 INTER-LIGAND FREE ENERGY PREDICTED BY IDOCK:   -5.93 KCAL/MOL
REMARK 924 INTRA-LIGAND FREE ENERGY PREDICTED BY IDOCK:   -1.37 KCAL/MOL
REMARK 927      BINDING AFFINITY PREDICTED BY RF-SCORE:    0.00 PKD
ROOT
HETATM    1  N   UNK A   0     -13.001   8.387  71.398  1.00  0.00    -0.442 NA 
HETATM    2  C   UNK A   0     -12.284   9.466  70.941  1.00  0.00    -0.227 A  
HETATM    3  H2  UNK A   0     -13.964   8.490  71.715  1.00  0.00     0.000 HD 
HETATM    4  H1  UNK A   0     -12.537   7.479  71.409  1.00  0.00     0.000 HD 
HETATM    5  N   UNK A   0     -12.888  10.650  70.927  1.00  0.00    -0.381 NA 
HETATM    6  C   UNK A   0     -12.224  11.679  70.405  1.00  0.00    -0.347 A  
HETATM    7  N   UNK A   0     -12.861  12.852  70.311  1.00  0.00     0.161 NA 
HETATM    8  C   UNK A   0     -12.230  13.875  69.688  1.00  0.00    -0.321 A  
HETATM    9  C   UNK A   0     -10.952  13.764  69.163  1.00  0.00    -0.208 A  
HETATM   10  H2  UNK A   0      -8.448  10.691  70.101  1.00  0.00     0.000 HD 
HETATM   11  N   UNK A   0     -10.267  12.606  69.296  1.00  0.00     0.278 NA 
HETATM   12  H1  UNK A   0      -8.669   9.106  69.685  1.00  0.00     0.000 HD 
HETATM   13  C   UNK A   0     -10.922  11.571  69.908  1.00  0.00     0.116 A  
HETATM   14  C   UNK A   0     -10.386  10.294  70.014  1.00  0.00    -0.202 A  
HETATM   15  N   UNK A   0      -9.063  10.044  69.608  1.00  0.00    -0.216 NA 
HETATM   16  N   UNK A   0     -11.043   9.242  70.520  1.00  0.00    -0.252 NA 
ENDROOT
BRANCH   9  17
HETATM   17  C   UNK A   0     -10.328  14.854  68.325  1.00  0.00    -0.232 C  
HETATM   18  C   UNK A   0     -10.090  13.250  66.359  1.00  0.00    -0.290 A  
HETATM   19  C   UNK A   0      -8.781  12.799  66.603  1.00  0.00    -0.065 A  
HETATM   20  C   UNK A   0     -11.012  12.362  65.787  1.00  0.00    -0.333 A  
HETATM   21  C   UNK A   0     -10.548  14.644  66.799  1.00  0.00    -0.288 C  
HETATM   22  C   UNK A   0     -10.673  11.024  65.579  1.00  0.00    -0.218 A  
HETATM   23  C   UNK A   0      -8.438  11.460  66.394  1.00  0.00    -0.160 A  
HETATM   24  C   UNK A   0      -9.855  15.722  65.944  1.00  0.00    -0.381 C  
HETATM   25  C   UNK A   0      -9.405  10.560  65.939  1.00  0.00    -0.220 A  
BRANCH  24  26
HETATM   26  C   UNK A   0     -10.310  17.094  66.236  1.00  0.00    -0.315 C  
HETATM   27  C   UNK A   0     -10.746  18.194  66.446  1.00  0.00    -0.163 C  
ENDBRANCH  24  26
BRANCH  25  28
HETATM   28  C   UNK A   0      -9.078   9.114  65.874  1.00  0.00    -0.205 C  
HETATM   29  O   UNK A   0      -8.816   8.572  64.808  1.00  0.00    -0.090 OA 
ATOM     30  N   GLU A   1      -9.038   8.449  67.098  1.00  0.00    -0.136 N  
ATOM     31  H   GLU A   1      -9.344   8.919  67.950  1.00  0.00     0.000 HD 
BRANCH  30  32
ATOM     32  CA  GLU A   1      -8.550   7.055  67.148  1.00  0.00    -0.121 C  
ATOM     33  O   GLU A   1     -10.645   6.783  68.323  1.00  0.00    -0.196 OA 
ATOM     34  C   GLU A   1      -9.696   6.131  67.605  1.00  0.00    -0.116 C  
ATOM     35  OXT GLU A   1      -9.693   4.915  67.482  1.00  0.00    -0.147 OA 
BRANCH  32  36
ATOM     36  CB  GLU A   1      -7.365   6.940  68.122  1.00  0.00    -0.097 C  
BRANCH  36  37
ATOM     37  CG  GLU A   1      -6.431   5.765  67.805  1.00  0.00    -0.047 C  
ATOM     38  CD  GLU A   1      -6.060   4.966  69.030  1.00  0.00    -0.029 C  
ATOM     39  OE2 GLU A   1      -6.434   5.202  70.166  1.00  0.00    -0.029 OA 
ATOM     40  OE1 GLU A   1      -5.253   3.922  68.733  1.00  0.00    -0.010 OA 
ENDBRANCH  36  37
ENDBRANCH  32  36
ENDBRANCH  30  32
ENDBRANCH  25  28
ENDBRANCH   9  17
TORSDOF 6
ENDMDL
MODEL      125
REMARK 921   NORMALIZED FREE ENERGY PREDICTED BY IDOCK:   -4.26 KCAL/MOL
REMARK 922        TOTAL FREE ENERGY PREDICTED BY IDOCK:   -7.17 KCAL/MOL
REMARK 923 INTER-LIGAND FREE ENERGY PREDICTED BY IDOCK:   -6.77 KCAL/MOL
REMARK 924 INTRA-LIGAND FREE ENERGY PREDICTED BY IDOCK:   -0.40 KCAL/MOL
REMARK 927      BINDING AFFINITY PREDICTED BY RF-SCORE:    0.00 PKD
ROOT
HETATM    1  N   UNK A   0      -5.269   8.103  66.483  1.00  0.00    -0.027 NA 
HETATM    2  C   UNK A   0      -6.397   8.503  67.159  1.00  0.00    -0.057 A  
HETATM    3  H2  UNK A   0      -4.405   7.891  66.980  1.00  0.00     0.000 HD 
HETATM    4  H1  UNK A   0      -5.326   8.026  65.468  1.00  0.00     0.000 HD 
HETATM    5  N   UNK A   0      -6.323   8.603  68.482  1.00  0.00    -0.053 NA 
HETATM    6  C   UNK A   0      -7.438   8.906  69.144  1.00  0.00    -0.073 A  
HETATM    7  N   UNK A   0      -7.386   8.924  70.481  1.00  0.00    -0.067 NA 
HETATM    8  C   UNK A   0      -8.537   9.130  71.163  1.00  0.00    -0.130 A  
HETATM    9  C   UNK A   0      -9.756   9.341  70.537  1.00  0.00    -0.260 A  
HETATM   10  H2  UNK A   0     -10.069  10.263  66.583  1.00  0.00     0.000 HD 
HETATM   11  N   UNK A   0      -9.823   9.383  69.189  1.00  0.00    -0.169 NA 
HETATM   12  H1  UNK A   0      -9.689   9.259  65.325  1.00  0.00     0.000 HD 
HETATM   13  C   UNK A   0      -8.658   9.152  68.507  1.00  0.00    -0.129 A  
HETATM   14  C   UNK A   0      -8.597   9.054  67.123  1.00  0.00    -0.116 A  
HETATM   15  N   UNK A   0      -9.733   9.331  66.342  1.00  0.00    -0.236 NA 
HETATM   16  N   UNK A   0      -7.490   8.734  66.439  1.00  0.00    -0.087 NA 
ENDROOT
BRANCH   9  17
HETATM   17  C   UNK A   0     -11.055   9.399  71.305  1.00  0.00    -0.446 C  
HETATM   18  C   UNK A   0     -11.944  11.193  69.726  1.00  0.00    -0.428 A  
HETATM   19  C   UNK A   0     -11.555  12.333  70.452  1.00  0.00     0.048 A  
HETATM   20  C   UNK A   0     -11.949  11.256  68.326  1.00  0.00    -0.215 A  
HETATM   21  C   UNK A   0     -12.254   9.868  70.430  1.00  0.00    -0.190 C  
HETATM   22  C   UNK A   0     -11.463  12.386  67.665  1.00  0.00    -0.399 A  
HETATM   23  C   UNK A   0     -11.070  13.466  69.794  1.00  0.00     0.065 A  
HETATM   24  C   UNK A   0     -13.564   9.989  71.231  1.00  0.00    -0.236 C  
HETATM   25  C   UNK A   0     -10.967  13.466  68.400  1.00  0.00    -0.291 A  
BRANCH  24  26
HETATM   26  C   UNK A   0     -13.991   8.728  71.865  1.00  0.00    -0.493 C  
HETATM   27  C   UNK A   0     -14.352   7.674  72.314  1.00  0.00    -0.243 C  
ENDBRANCH  24  26
BRANCH  25  28
HETATM   28  C   UNK A   0     -10.301  14.606  67.721  1.00  0.00    -0.237 C  
HETATM   29  O   UNK A   0      -9.096  14.790  67.831  1.00  0.00    -0.177 OA 
ATOM     30  N   GLU A   1     -11.124  15.398  66.924  1.00  0.00    -0.296 N  
ATOM     31  H   GLU A   1     -12.134  15.258  66.927  1.00  0.00     0.000 HD 
BRANCH  30  32
ATOM     32  CA  GLU A   1     -10.518  16.444  66.074  1.00  0.00    -0.323 C  
ATOM     33  O   GLU A   1     -11.373  17.832  67.859  1.00  0.00     0.087 OA 
ATOM     34  C   GLU A   1     -10.454  17.767  66.863  1.00  0.00    -0.307 C  
ATOM     35  OXT GLU A   1      -9.768  18.727  66.545  1.00  0.00    -0.325 OA 
BRANCH  32  36
ATOM     36  CB  GLU A   1     -11.349  16.639  64.793  1.00  0.00     0.021 C  
BRANCH  36  37
ATOM     37  CG  GLU A   1     -11.365  15.402  63.887  1.00  0.00     0.544 C  
ATOM     38  CD  GLU A   1     -12.448  14.419  64.259  1.00  0.00    -0.272 C  
ATOM     39  OE2 GLU A   1     -13.237  14.555  65.179  1.00  0.00    -0.499 OA 
ATOM     40  OE1 GLU A   1     -12.465  13.343  63.440  1.00  0.00    -0.753 OA 
ENDBRANCH  36  37
ENDBRANCH  32  36
ENDBRANCH  30  32
ENDBRANCH  25  28
ENDBRANCH   9  17
TORSDOF 6
ENDMDL
MODEL      126
REMARK 921   NORMALIZED FREE ENERGY PREDICTED BY IDOCK:   -4.19 KCAL/MOL
REMARK 922        TOTAL FREE ENERGY PREDICTED BY IDOCK:   -7.07 KCAL/MOL
REMARK 923 INTER-LIGAND FREE ENERGY PREDICTED BY IDOCK:   -5.80 KCAL/MOL
REMARK 924 INTRA-LIGAND FREE ENERGY PREDICTED BY IDOCK:   -1.28 KCAL/MOL
REMARK 927      BINDING AFFINITY PREDICTED BY RF-SCORE:    0.00 PKD
ROOT
HETATM    1  N   UNK A   0     -10.471  12.259  62.875  1.00  0.00    -0.424 NA 
HETATM    2  C   UNK A   0      -9.826  11.262  63.565  1.00  0.00    -0.359 A  
HETATM    3  H2  UNK A   0     -11.340  12.663  63.223  1.00  0.00     0.000 HD 
HETATM    4  H1  UNK A   0     -10.051  12.583  62.004  1.00  0.00     0.000 HD 
HETATM    5  N   UNK A   0     -10.373  10.840  64.701  1.00  0.00    -0.344 NA 
HETATM    6  C   UNK A   0      -9.704   9.935  65.413  1.00  0.00    -0.306 A  
HETATM    7  N   UNK A   0     -10.211   9.572  66.596  1.00  0.00    -0.247 NA 
HETATM    8  C   UNK A   0      -9.487   8.731  67.372  1.00  0.00    -0.146 A  
HETATM    9  C   UNK A   0      -8.258   8.219  66.984  1.00  0.00    -0.104 A  
HETATM   10  H2  UNK A   0      -6.922   8.380  63.140  1.00  0.00     0.000 HD 
HETATM   11  N   UNK A   0      -7.753   8.527  65.769  1.00  0.00    -0.095 NA 
HETATM   12  H1  UNK A   0      -6.517   9.756  62.316  1.00  0.00     0.000 HD 
HETATM   13  C   UNK A   0      -8.482   9.395  65.001  1.00  0.00    -0.159 A  
HETATM   14  C   UNK A   0      -8.034   9.887  63.782  1.00  0.00    -0.148 A  
HETATM   15  N   UNK A   0      -6.846   9.395  63.212  1.00  0.00    -0.095 NA 
HETATM   16  N   UNK A   0      -8.683  10.810  63.058  1.00  0.00    -0.200 NA 
ENDROOT
BRANCH   9  17
HETATM   17  C   UNK A   0      -7.385   7.422  67.923  1.00  0.00    -0.093 C  
HETATM   18  C   UNK A   0      -6.769   9.540  69.200  1.00  0.00    -0.049 A  
HETATM   19  C   UNK A   0      -5.589   9.872  68.513  1.00  0.00    -0.039 A  
HETATM   20  C   UNK A   0      -7.575  10.576  69.695  1.00  0.00    -0.134 A  
HETATM   21  C   UNK A   0      -7.238   8.087  69.322  1.00  0.00    -0.076 C  
HETATM   22  C   UNK A   0      -7.275  11.908  69.404  1.00  0.00     0.114 A  
HETATM   23  C   UNK A   0      -5.284  11.205  68.222  1.00  0.00    -0.039 A  
HETATM   24  C   UNK A   0      -6.295   7.305  70.257  1.00  0.00    -0.034 C  
HETATM   25  C   UNK A   0      -6.163  12.218  68.617  1.00  0.00    -0.067 A  
BRANCH  24  26
HETATM   26  C   UNK A   0      -6.726   5.917  70.509  1.00  0.00    -0.052 C  
HETATM   27  C   UNK A   0      -7.146   4.812  70.720  1.00  0.00    -0.044 C  
ENDBRANCH  24  26
BRANCH  25  28
HETATM   28  C   UNK A   0      -5.916  13.610  68.165  1.00  0.00    -0.118 C  
HETATM   29  O   UNK A   0      -5.152  13.848  67.238  1.00  0.00    -0.306 OA 
ATOM     30  N   GLU A   1      -6.644  14.598  68.824  1.00  0.00    -0.086 N  
ATOM     31  H   GLU A   1      -7.205  14.363  69.644  1.00  0.00     0.000 HD 
BRANCH  30  32
ATOM     32  CA  GLU A   1      -6.596  15.988  68.325  1.00  0.00    -0.118 C  
ATOM     33  O   GLU A   1      -5.430  16.280  70.423  1.00  0.00    -0.175 OA 
ATOM     34  C   GLU A   1      -5.607  16.802  69.182  1.00  0.00    -0.144 C  
ATOM     35  OXT GLU A   1      -5.144  17.886  68.859  1.00  0.00    -0.160 OA 
BRANCH  32  36
ATOM     36  CB  GLU A   1      -7.994  16.627  68.390  1.00  0.00    -0.205 C  
BRANCH  36  37
ATOM     37  CG  GLU A   1      -8.590  16.924  67.008  1.00  0.00    -0.229 C  
ATOM     38  CD  GLU A   1     -10.092  17.070  67.038  1.00  0.00    -0.295 C  
ATOM     39  OE2 GLU A   1     -10.790  16.962  68.031  1.00  0.00    -0.363 OA 
ATOM     40  OE1 GLU A   1     -10.602  17.352  65.818  1.00  0.00    -0.456 OA 
ENDBRANCH  36  37
ENDBRANCH  32  36
ENDBRANCH  30  32
ENDBRANCH  25  28
ENDBRANCH   9  17
TORSDOF 6
ENDMDL
MODEL      127
REMARK 921   NORMALIZED FREE ENERGY PREDICTED BY IDOCK:   -4.19 KCAL/MOL
REMARK 922        TOTAL FREE ENERGY PREDICTED BY IDOCK:   -7.07 KCAL/MOL
REMARK 923 INTER-LIGAND FREE ENERGY PREDICTED BY IDOCK:   -5.71 KCAL/MOL
REMARK 924 INTRA-LIGAND FREE ENERGY PREDICTED BY IDOCK:   -1.36 KCAL/MOL
REMARK 927      BINDING AFFINITY PREDICTED BY RF-SCORE:    0.00 PKD
ROOT
HETATM    1  N   UNK A   0      -8.598  10.161  63.247  1.00  0.00    -0.180 NA 
HETATM    2  C   UNK A   0      -8.117   9.806  64.485  1.00  0.00    -0.146 A  
HETATM    3  H2  UNK A   0      -8.796   9.456  62.537  1.00  0.00     0.000 HD 
HETATM    4  H1  UNK A   0      -8.751  11.152  63.063  1.00  0.00     0.000 HD 
HETATM    5  N   UNK A   0      -7.918   8.514  64.725  1.00  0.00    -0.135 NA 
HETATM    6  C   UNK A   0      -7.534   8.164  65.951  1.00  0.00    -0.080 A  
HETATM    7  N   UNK A   0      -7.415   6.859  66.220  1.00  0.00    -0.076 NA 
HETATM    8  C   UNK A   0      -7.126   6.491  67.490  1.00  0.00    -0.081 A  
HETATM    9  C   UNK A   0      -6.931   7.406  68.513  1.00  0.00    -0.079 A  
HETATM   10  H2  UNK A   0      -6.307  11.372  67.830  1.00  0.00     0.000 HD 
HETATM   11  N   UNK A   0      -6.990   8.730  68.254  1.00  0.00    -0.072 NA 
HETATM   12  H1  UNK A   0      -7.415  12.429  67.205  1.00  0.00     0.000 HD 
HETATM   13  C   UNK A   0      -7.305   9.092  66.971  1.00  0.00    -0.090 A  
HETATM   14  C   UNK A   0      -7.510  10.411  66.585  1.00  0.00    -0.114 A  
HETATM   15  N   UNK A   0      -7.264  11.461  67.488  1.00  0.00    -0.100 NA 
HETATM   16  N   UNK A   0      -7.912  10.783  65.362  1.00  0.00    -0.085 NA 
ENDROOT
BRANCH   9  17
HETATM   17  C   UNK A   0      -6.778   6.981  69.954  1.00  0.00    -0.049 C  
HETATM   18  C   UNK A   0      -9.184   7.666  70.445  1.00  0.00    -0.156 A  
HETATM   19  C   UNK A   0      -8.950   8.979  70.890  1.00  0.00    -0.300 A  
HETATM   20  C   UNK A   0     -10.371   7.391  69.751  1.00  0.00    -0.226 A  
HETATM   21  C   UNK A   0      -8.128   6.568  70.609  1.00  0.00    -0.113 C  
HETATM   22  C   UNK A   0     -11.244   8.424  69.403  1.00  0.00     0.208 A  
HETATM   23  C   UNK A   0      -9.823  10.014  70.545  1.00  0.00     0.017 A  
HETATM   24  C   UNK A   0      -7.978   6.198  72.097  1.00  0.00    -0.109 C  
HETATM   25  C   UNK A   0     -10.939   9.743  69.748  1.00  0.00    -0.287 A  
BRANCH  24  26
HETATM   26  C   UNK A   0      -7.049   5.080  72.341  1.00  0.00    -0.084 C  
HETATM   27  C   UNK A   0      -6.270   4.174  72.468  1.00  0.00    -0.017 C  
ENDBRANCH  24  26
BRANCH  25  28
HETATM   28  C   UNK A   0     -11.769  10.869  69.253  1.00  0.00    -0.324 C  
HETATM   29  O   UNK A   0     -12.991  10.791  69.225  1.00  0.00    -0.021 OA 
ATOM     30  N   GLU A   1     -11.070  12.017  68.884  1.00  0.00    -0.235 N  
ATOM     31  H   GLU A   1     -10.051  12.009  68.845  1.00  0.00     0.000 HD 
BRANCH  30  32
ATOM     32  CA  GLU A   1     -11.821  13.245  68.548  1.00  0.00    -0.349 C  
ATOM     33  O   GLU A   1     -10.524  13.008  66.522  1.00  0.00    -0.271 OA 
ATOM     34  C   GLU A   1     -11.652  13.549  67.046  1.00  0.00    -0.359 C  
ATOM     35  OXT GLU A   1     -12.359  14.321  66.415  1.00  0.00    -0.448 OA 
BRANCH  32  36
ATOM     36  CB  GLU A   1     -11.307  14.430  69.384  1.00  0.00    -0.319 C  
BRANCH  36  37
ATOM     37  CG  GLU A   1      -9.930  14.936  68.936  1.00  0.00    -0.233 C  
ATOM     38  CD  GLU A   1      -9.975  16.337  68.380  1.00  0.00    -0.234 C  
ATOM     39  OE2 GLU A   1     -10.978  17.022  68.274  1.00  0.00    -0.365 OA 
ATOM     40  OE1 GLU A   1      -8.751  16.779  68.008  1.00  0.00    -0.203 OA 
ENDBRANCH  36  37
ENDBRANCH  32  36
ENDBRANCH  30  32
ENDBRANCH  25  28
ENDBRANCH   9  17
TORSDOF 6
ENDMDL
MODEL      128
REMARK 921   NORMALIZED FREE ENERGY PREDICTED BY IDOCK:   -4.18 KCAL/MOL
REMARK 922        TOTAL FREE ENERGY PREDICTED BY IDOCK:   -7.06 KCAL/MOL
REMARK 923 INTER-LIGAND FREE ENERGY PREDICTED BY IDOCK:   -7.13 KCAL/MOL
REMARK 924 INTRA-LIGAND FREE ENERGY PREDICTED BY IDOCK:    0.07 KCAL/MOL
REMARK 927      BINDING AFFINITY PREDICTED BY RF-SCORE:    0.00 PKD
ROOT
HETATM    1  N   UNK A   0      -6.565   9.063  74.550  1.00  0.00    -0.350 NA 
HETATM    2  C   UNK A   0      -6.866   8.416  73.375  1.00  0.00    -0.090 A  
HETATM    3  H2  UNK A   0      -7.287   9.541  75.088  1.00  0.00     0.000 HD 
HETATM    4  H1  UNK A   0      -5.595   9.048  74.865  1.00  0.00     0.000 HD 
HETATM    5  N   UNK A   0      -8.130   8.435  72.965  1.00  0.00    -0.342 NA 
HETATM    6  C   UNK A   0      -8.438   7.737  71.873  1.00  0.00    -0.114 A  
HETATM    7  N   UNK A   0      -9.724   7.685  71.506  1.00  0.00    -0.165 NA 
HETATM    8  C   UNK A   0     -10.059   6.894  70.460  1.00  0.00    -0.187 A  
HETATM    9  C   UNK A   0      -9.128   6.155  69.745  1.00  0.00    -0.141 A  
HETATM   10  H2  UNK A   0      -5.119   6.820  70.011  1.00  0.00     0.000 HD 
HETATM   11  N   UNK A   0      -7.817   6.236  70.062  1.00  0.00    -0.104 NA 
HETATM   12  H1  UNK A   0      -4.184   6.553  71.349  1.00  0.00     0.000 HD 
HETATM   13  C   UNK A   0      -7.490   7.021  71.135  1.00  0.00    -0.081 A  
HETATM   14  C   UNK A   0      -6.200   7.110  71.644  1.00  0.00    -0.037 A  
HETATM   15  N   UNK A   0      -5.131   6.489  70.976  1.00  0.00    -0.018 NA 
HETATM   16  N   UNK A   0      -5.873   7.793  72.749  1.00  0.00    -0.043 NA 
ENDROOT
BRANCH   9  17
HETATM   17  C   UNK A   0      -9.534   5.150  68.694  1.00  0.00    -0.178 C  
HETATM   18  C   UNK A   0      -9.091   6.854  66.850  1.00  0.00    -0.152 A  
HETATM   19  C   UNK A   0     -10.387   7.385  66.729  1.00  0.00    -0.321 A  
HETATM   20  C   UNK A   0      -7.994   7.699  66.631  1.00  0.00    -0.107 A  
HETATM   21  C   UNK A   0      -8.861   5.413  67.316  1.00  0.00    -0.105 C  
HETATM   22  C   UNK A   0      -8.184   9.066  66.418  1.00  0.00    -0.111 A  
HETATM   23  C   UNK A   0     -10.580   8.752  66.514  1.00  0.00    -0.019 A  
HETATM   24  C   UNK A   0      -9.327   4.425  66.229  1.00  0.00    -0.160 C  
HETATM   25  C   UNK A   0      -9.474   9.601  66.420  1.00  0.00    -0.244 A  
BRANCH  24  26
HETATM   26  C   UNK A   0      -9.054   3.013  66.553  1.00  0.00    -0.163 C  
HETATM   27  C   UNK A   0      -8.761   1.881  66.828  1.00  0.00    -0.125 C  
ENDBRANCH  24  26
BRANCH  25  28
HETATM   28  C   UNK A   0      -9.689  11.068  66.355  1.00  0.00    -0.201 C  
HETATM   29  O   UNK A   0      -9.927  11.626  65.292  1.00  0.00    -0.240 OA 
ATOM     30  N   GLU A   1      -9.654  11.739  67.576  1.00  0.00    -0.175 N  
ATOM     31  H   GLU A   1      -9.371  11.248  68.425  1.00  0.00     0.000 HD 
BRANCH  30  32
ATOM     32  CA  GLU A   1     -10.031  13.166  67.629  1.00  0.00    -0.219 C  
ATOM     33  O   GLU A   1     -12.236  12.177  67.550  1.00  0.00    -0.474 OA 
ATOM     34  C   GLU A   1     -11.541  13.283  67.918  1.00  0.00    -0.334 C  
ATOM     35  OXT GLU A   1     -12.095  14.307  68.292  1.00  0.00    -0.322 OA 
BRANCH  32  36
ATOM     36  CB  GLU A   1      -9.700  13.856  66.293  1.00  0.00    -0.304 C  
BRANCH  36  37
ATOM     37  CG  GLU A   1      -9.774  15.386  66.366  1.00  0.00    -0.311 C  
ATOM     38  CD  GLU A   1     -10.763  15.970  65.388  1.00  0.00    -0.383 C  
ATOM     39  OE2 GLU A   1     -11.442  15.329  64.604  1.00  0.00    -0.406 OA 
ATOM     40  OE1 GLU A   1     -10.833  17.318  65.477  1.00  0.00    -0.405 OA 
ENDBRANCH  36  37
ENDBRANCH  32  36
ENDBRANCH  30  32
ENDBRANCH  25  28
ENDBRANCH   9  17
TORSDOF 6
ENDMDL
MODEL      129
REMARK 921   NORMALIZED FREE ENERGY PREDICTED BY IDOCK:   -4.11 KCAL/MOL
REMARK 922        TOTAL FREE ENERGY PREDICTED BY IDOCK:   -6.96 KCAL/MOL
REMARK 923 INTER-LIGAND FREE ENERGY PREDICTED BY IDOCK:   -6.17 KCAL/MOL
REMARK 924 INTRA-LIGAND FREE ENERGY PREDICTED BY IDOCK:   -0.79 KCAL/MOL
REMARK 927      BINDING AFFINITY PREDICTED BY RF-SCORE:    0.00 PKD
ROOT
HETATM    1  N   UNK A   0     -13.654  11.706  62.728  1.00  0.00     0.184 NA 
HETATM    2  C   UNK A   0     -12.632  11.833  63.637  1.00  0.00    -0.344 A  
HETATM    3  H2  UNK A   0     -14.591  12.049  62.937  1.00  0.00     0.000 HD 
HETATM    4  H1  UNK A   0     -13.444  11.258  61.836  1.00  0.00     0.000 HD 
HETATM    5  N   UNK A   0     -12.906  12.418  64.799  1.00  0.00    -0.761 NA 
HETATM    6  C   UNK A   0     -11.897  12.619  65.646  1.00  0.00    -0.437 A  
HETATM    7  N   UNK A   0     -12.154  13.283  66.778  1.00  0.00    -0.373 NA 
HETATM    8  C   UNK A   0     -11.116  13.581  67.595  1.00  0.00    -0.269 A  
HETATM    9  C   UNK A   0      -9.809  13.212  67.316  1.00  0.00    -0.232 A  
HETATM   10  H2  UNK A   0      -8.860  10.433  64.494  1.00  0.00     0.000 HD 
HETATM   11  N   UNK A   0      -9.534  12.492  66.207  1.00  0.00    -0.232 NA 
HETATM   12  H1  UNK A   0      -9.074  10.604  62.863  1.00  0.00     0.000 HD 
HETATM   13  C   UNK A   0     -10.586  12.214  65.376  1.00  0.00    -0.272 A  
HETATM   14  C   UNK A   0     -10.436  11.581  64.149  1.00  0.00    -0.353 A  
HETATM   15  N   UNK A   0      -9.184  11.068  63.765  1.00  0.00    -0.198 NA 
HETATM   16  N   UNK A   0     -11.434  11.385  63.276  1.00  0.00    -0.122 NA 
ENDROOT
BRANCH   9  17
HETATM   17  C   UNK A   0      -8.643  13.695  68.145  1.00  0.00    -0.176 C  
HETATM   18  C   UNK A   0      -7.749  11.315  68.332  1.00  0.00    -0.125 A  
HETATM   19  C   UNK A   0      -8.357  10.949  69.545  1.00  0.00     0.158 A  
HETATM   20  C   UNK A   0      -7.557  10.331  67.351  1.00  0.00    -0.094 A  
HETATM   21  C   UNK A   0      -7.394  12.774  68.026  1.00  0.00    -0.117 C  
HETATM   22  C   UNK A   0      -8.070   9.045  67.528  1.00  0.00    -0.108 A  
HETATM   23  C   UNK A   0      -8.870   9.661  69.726  1.00  0.00    -0.224 A  
HETATM   24  C   UNK A   0      -6.229  13.233  68.923  1.00  0.00    -0.088 C  
HETATM   25  C   UNK A   0      -8.778   8.728  68.689  1.00  0.00    -0.134 A  
BRANCH  24  26
HETATM   26  C   UNK A   0      -5.756  14.598  68.630  1.00  0.00    -0.092 C  
HETATM   27  C   UNK A   0      -5.427  15.736  68.433  1.00  0.00    -0.108 C  
ENDBRANCH  24  26
BRANCH  25  28
HETATM   28  C   UNK A   0      -9.466   7.420  68.828  1.00  0.00    -0.143 C  
HETATM   29  O   UNK A   0     -10.614   7.264  68.432  1.00  0.00    -0.202 OA 
ATOM     30  N   GLU A   1      -8.704   6.392  69.378  1.00  0.00    -0.129 N  
ATOM     31  H   GLU A   1      -7.782   6.587  69.769  1.00  0.00     0.000 HD 
BRANCH  30  32
ATOM     32  CA  GLU A   1      -9.245   5.017  69.391  1.00  0.00    -0.108 C  
ATOM     33  O   GLU A   1      -8.511   5.175  71.689  1.00  0.00    -0.121 OA 
ATOM     34  C   GLU A   1      -9.358   4.529  70.849  1.00  0.00    -0.153 C  
ATOM     35  OXT GLU A   1     -10.016   3.562  71.204  1.00  0.00    -0.158 OA 
BRANCH  32  36
ATOM     36  CB  GLU A   1      -8.326   4.074  68.594  1.00  0.00    -0.093 C  
BRANCH  36  37
ATOM     37  CG  GLU A   1      -9.075   3.235  67.552  1.00  0.00    -0.205 C  
ATOM     38  CD  GLU A   1      -9.226   3.945  66.229  1.00  0.00    -0.163 C  
ATOM     39  OE2 GLU A   1      -8.819   5.067  65.980  1.00  0.00    -0.122 OA 
ATOM     40  OE1 GLU A   1      -9.870   3.186  65.313  1.00  0.00    -0.057 OA 
ENDBRANCH  36  37
ENDBRANCH  32  36
ENDBRANCH  30  32
ENDBRANCH  25  28
ENDBRANCH   9  17
TORSDOF 6
ENDMDL
MODEL      130
REMARK 921   NORMALIZED FREE ENERGY PREDICTED BY IDOCK:   -4.10 KCAL/MOL
REMARK 922        TOTAL FREE ENERGY PREDICTED BY IDOCK:   -6.95 KCAL/MOL
REMARK 923 INTER-LIGAND FREE ENERGY PREDICTED BY IDOCK:   -5.14 KCAL/MOL
REMARK 924 INTRA-LIGAND FREE ENERGY PREDICTED BY IDOCK:   -1.81 KCAL/MOL
REMARK 927      BINDING AFFINITY PREDICTED BY RF-SCORE:    0.00 PKD
ROOT
HETATM    1  N   UNK A   0     -12.246   8.473  72.931  1.00  0.00    -0.489 NA 
HETATM    2  C   UNK A   0     -11.187   8.650  72.073  1.00  0.00    -0.364 A  
HETATM    3  H2  UNK A   0     -13.208   8.543  72.602  1.00  0.00     0.000 HD 
HETATM    4  H1  UNK A   0     -12.037   8.268  73.908  1.00  0.00     0.000 HD 
HETATM    5  N   UNK A   0     -11.460   8.916  70.799  1.00  0.00    -0.277 NA 
HETATM    6  C   UNK A   0     -10.438   9.003  69.951  1.00  0.00    -0.215 A  
HETATM    7  N   UNK A   0     -10.714   9.186  68.655  1.00  0.00    -0.165 NA 
HETATM    8  C   UNK A   0      -9.687   9.172  67.773  1.00  0.00    -0.154 A  
HETATM    9  C   UNK A   0      -8.366   8.995  68.158  1.00  0.00    -0.121 A  
HETATM   10  H2  UNK A   0      -7.134   9.350  72.023  1.00  0.00     0.000 HD 
HETATM   11  N   UNK A   0      -8.058   8.864  69.466  1.00  0.00    -0.098 NA 
HETATM   12  H1  UNK A   0      -7.547   8.336  73.264  1.00  0.00     0.000 HD 
HETATM   13  C   UNK A   0      -9.105   8.858  70.349  1.00  0.00    -0.190 A  
HETATM   14  C   UNK A   0      -8.948   8.621  71.708  1.00  0.00    -0.237 A  
HETATM   15  N   UNK A   0      -7.662   8.511  72.265  1.00  0.00    -0.274 NA 
HETATM   16  N   UNK A   0      -9.965   8.514  72.575  1.00  0.00    -0.284 NA 
ENDROOT
BRANCH   9  17
HETATM   17  C   UNK A   0      -7.253   8.812  67.154  1.00  0.00    -0.080 C  
HETATM   18  C   UNK A   0      -7.858   6.350  66.886  1.00  0.00    -0.104 A  
HETATM   19  C   UNK A   0      -6.980   5.806  67.840  1.00  0.00    -0.066 A  
HETATM   20  C   UNK A   0      -9.099   5.731  66.682  1.00  0.00    -0.133 A  
HETATM   21  C   UNK A   0      -7.528   7.654  66.152  1.00  0.00    -0.083 C  
HETATM   22  C   UNK A   0      -9.504   4.671  67.495  1.00  0.00    -0.182 A  
HETATM   23  C   UNK A   0      -7.382   4.743  68.654  1.00  0.00    -0.065 A  
HETATM   24  C   UNK A   0      -6.362   7.427  65.171  1.00  0.00    -0.038 C  
HETATM   25  C   UNK A   0      -8.670   4.217  68.520  1.00  0.00    -0.121 A  
BRANCH  24  26
HETATM   26  C   UNK A   0      -6.039   8.608  64.349  1.00  0.00    -0.066 C  
HETATM   27  C   UNK A   0      -5.821   9.544  63.628  1.00  0.00    -0.092 C  
ENDBRANCH  24  26
BRANCH  25  28
HETATM   28  C   UNK A   0      -9.144   3.202  69.494  1.00  0.00    -0.130 C  
HETATM   29  O   UNK A   0      -9.372   2.050  69.146  1.00  0.00    -0.128 OA 
ATOM     30  N   GLU A   1      -9.253   3.636  70.813  1.00  0.00    -0.117 N  
ATOM     31  H   GLU A   1      -9.133   4.622  71.043  1.00  0.00     0.000 HD 
BRANCH  30  32
ATOM     32  CA  GLU A   1      -9.546   2.652  71.876  1.00  0.00    -0.142 C  
ATOM     33  O   GLU A   1     -10.414   4.646  72.932  1.00  0.00    -0.177 OA 
ATOM     34  C   GLU A   1     -10.489   3.291  72.915  1.00  0.00    -0.149 C  
ATOM     35  OXT GLU A   1     -11.126   2.662  73.748  1.00  0.00    -0.199 OA 
BRANCH  32  36
ATOM     36  CB  GLU A   1      -8.243   2.201  72.560  1.00  0.00    -0.054 C  
BRANCH  36  37
ATOM     37  CG  GLU A   1      -7.002   2.942  72.048  1.00  0.00    -0.033 C  
ATOM     38  CD  GLU A   1      -6.554   4.044  72.976  1.00  0.00    -0.041 C  
ATOM     39  OE2 GLU A   1      -7.099   4.347  74.024  1.00  0.00    -0.064 OA 
ATOM     40  OE1 GLU A   1      -5.447   4.675  72.523  1.00  0.00    -0.007 OA 
ENDBRANCH  36  37
ENDBRANCH  32  36
ENDBRANCH  30  32
ENDBRANCH  25  28
ENDBRANCH   9  17
TORSDOF 6
ENDMDL
MODEL      131
REMARK 921   NORMALIZED FREE ENERGY PREDICTED BY IDOCK:   -4.07 KCAL/MOL
REMARK 922        TOTAL FREE ENERGY PREDICTED BY IDOCK:   -6.91 KCAL/MOL
REMARK 923 INTER-LIGAND FREE ENERGY PREDICTED BY IDOCK:   -5.79 KCAL/MOL
REMARK 924 INTRA-LIGAND FREE ENERGY PREDICTED BY IDOCK:   -1.12 KCAL/MOL
REMARK 927      BINDING AFFINITY PREDICTED BY RF-SCORE:    0.00 PKD
ROOT
HETATM    1  N   UNK A   0      -9.023   2.759  63.429  1.00  0.00    -0.092 NA 
HETATM    2  C   UNK A   0      -8.455   2.812  64.679  1.00  0.00    -0.088 A  
HETATM    3  H2  UNK A   0      -9.951   2.360  63.288  1.00  0.00     0.000 HD 
HETATM    4  H1  UNK A   0      -8.486   3.132  62.646  1.00  0.00     0.000 HD 
HETATM    5  N   UNK A   0      -9.156   2.327  65.699  1.00  0.00    -0.117 NA 
HETATM    6  C   UNK A   0      -8.643   2.455  66.921  1.00  0.00    -0.112 A  
HETATM    7  N   UNK A   0      -9.384   2.044  67.956  1.00  0.00    -0.195 NA 
HETATM    8  C   UNK A   0      -8.914   2.266  69.207  1.00  0.00    -0.107 A  
HETATM    9  C   UNK A   0      -7.697   2.880  69.456  1.00  0.00    -0.043 A  
HETATM   10  H2  UNK A   0      -4.854   3.377  66.583  1.00  0.00     0.000 HD 
HETATM   11  N   UNK A   0      -6.906   3.252  68.426  1.00  0.00    -0.048 NA 
HETATM   12  H1  UNK A   0      -4.984   4.357  65.257  1.00  0.00     0.000 HD 
HETATM   13  C   UNK A   0      -7.399   3.044  67.165  1.00  0.00    -0.062 A  
HETATM   14  C   UNK A   0      -6.748   3.477  66.017  1.00  0.00    -0.041 A  
HETATM   15  N   UNK A   0      -5.462   4.039  66.100  1.00  0.00    -0.013 NA 
HETATM   16  N   UNK A   0      -7.254   3.372  64.781  1.00  0.00    -0.065 NA 
ENDROOT
BRANCH   9  17
HETATM   17  C   UNK A   0      -7.264   3.273  70.848  1.00  0.00    -0.033 C  
HETATM   18  C   UNK A   0      -8.985   5.153  70.887  1.00  0.00    -0.162 A  
HETATM   19  C   UNK A   0      -8.171   6.202  70.424  1.00  0.00    -0.117 A  
HETATM   20  C   UNK A   0     -10.344   5.154  70.545  1.00  0.00    -0.314 A  
HETATM   21  C   UNK A   0      -8.395   3.969  71.659  1.00  0.00    -0.095 C  
HETATM   22  C   UNK A   0     -10.853   6.109  69.663  1.00  0.00    -0.424 A  
HETATM   23  C   UNK A   0      -8.677   7.161  69.542  1.00  0.00    -0.134 A  
HETATM   24  C   UNK A   0      -7.931   4.427  73.055  1.00  0.00    -0.094 C  
HETATM   25  C   UNK A   0     -10.006   7.076  69.115  1.00  0.00    -0.165 A  
BRANCH  24  26
HETATM   26  C   UNK A   0      -7.436   3.329  73.906  1.00  0.00    -0.060 C  
HETATM   27  C   UNK A   0      -6.987   2.416  74.544  1.00  0.00    -0.031 C  
ENDBRANCH  24  26
BRANCH  25  28
HETATM   28  C   UNK A   0     -10.488   7.998  68.057  1.00  0.00    -0.184 C  
HETATM   29  O   UNK A   0     -11.015   7.571  67.038  1.00  0.00    -0.306 OA 
ATOM     30  N   GLU A   1     -10.350   9.357  68.331  1.00  0.00    -0.198 N  
ATOM     31  H   GLU A   1      -9.832   9.666  69.154  1.00  0.00     0.000 HD 
BRANCH  30  32
ATOM     32  CA  GLU A   1     -10.961  10.346  67.419  1.00  0.00    -0.270 C  
ATOM     33  O   GLU A   1      -8.632  10.926  67.129  1.00  0.00    -0.128 OA 
ATOM     34  C   GLU A   1      -9.858  10.986  66.552  1.00  0.00    -0.203 C  
ATOM     35  OXT GLU A   1     -10.068  11.623  65.530  1.00  0.00    -0.227 OA 
BRANCH  32  36
ATOM     36  CB  GLU A   1     -11.693  11.434  68.223  1.00  0.00    -0.359 C  
BRANCH  36  37
ATOM     37  CG  GLU A   1     -12.100  10.978  69.629  1.00  0.00    -0.411 C  
ATOM     38  CD  GLU A   1     -12.432  12.131  70.545  1.00  0.00    -0.198 C  
ATOM     39  OE2 GLU A   1     -12.384  13.310  70.239  1.00  0.00    -0.315 OA 
ATOM     40  OE1 GLU A   1     -12.809  11.714  71.775  1.00  0.00    -0.381 OA 
ENDBRANCH  36  37
ENDBRANCH  32  36
ENDBRANCH  30  32
ENDBRANCH  25  28
ENDBRANCH   9  17
TORSDOF 6
ENDMDL
MODEL      132
REMARK 921   NORMALIZED FREE ENERGY PREDICTED BY IDOCK:   -4.05 KCAL/MOL
REMARK 922        TOTAL FREE ENERGY PREDICTED BY IDOCK:   -6.89 KCAL/MOL
REMARK 923 INTER-LIGAND FREE ENERGY PREDICTED BY IDOCK:   -7.11 KCAL/MOL
REMARK 924 INTRA-LIGAND FREE ENERGY PREDICTED BY IDOCK:    0.22 KCAL/MOL
REMARK 927      BINDING AFFINITY PREDICTED BY RF-SCORE:    0.00 PKD
ROOT
HETATM    1  N   UNK A   0     -12.008  15.722  71.948  1.00  0.00    -0.418 NA 
HETATM    2  C   UNK A   0     -11.496  15.257  70.761  1.00  0.00    -0.325 A  
HETATM    3  H2  UNK A   0     -12.840  15.304  72.363  1.00  0.00     0.000 HD 
HETATM    4  H1  UNK A   0     -11.527  16.500  72.401  1.00  0.00     0.000 HD 
HETATM    5  N   UNK A   0     -12.122  14.244  70.171  1.00  0.00    -0.318 NA 
HETATM    6  C   UNK A   0     -11.578  13.737  69.066  1.00  0.00    -0.313 A  
HETATM    7  N   UNK A   0     -12.160  12.664  68.519  1.00  0.00    -0.192 NA 
HETATM    8  C   UNK A   0     -11.555  12.081  67.456  1.00  0.00    -0.330 A  
HETATM    9  C   UNK A   0     -10.377  12.560  66.905  1.00  0.00    -0.229 A  
HETATM   10  H2  UNK A   0      -8.906  16.266  67.729  1.00  0.00     0.000 HD 
HETATM   11  N   UNK A   0      -9.802  13.675  67.405  1.00  0.00    -0.231 NA 
HETATM   12  H1  UNK A   0      -8.329  16.771  69.195  1.00  0.00     0.000 HD 
HETATM   13  C   UNK A   0     -10.408  14.245  68.493  1.00  0.00    -0.244 A  
HETATM   14  C   UNK A   0      -9.870  15.325  69.180  1.00  0.00    -0.239 A  
HETATM   15  N   UNK A   0      -8.725  15.978  68.691  1.00  0.00    -0.195 NA 
HETATM   16  N   UNK A   0     -10.393  15.839  70.302  1.00  0.00    -0.235 NA 
ENDROOT
BRANCH   9  17
HETATM   17  C   UNK A   0      -9.626  11.806  65.833  1.00  0.00    -0.249 C  
HETATM   18  C   UNK A   0      -9.585   9.714  67.289  1.00  0.00    -0.203 A  
HETATM   19  C   UNK A   0      -8.340   9.908  67.913  1.00  0.00    -0.114 A  
HETATM   20  C   UNK A   0     -10.609   9.082  68.009  1.00  0.00    -0.242 A  
HETATM   21  C   UNK A   0      -9.870  10.270  65.890  1.00  0.00    -0.298 C  
HETATM   22  C   UNK A   0     -10.434   8.763  69.357  1.00  0.00    -0.228 A  
HETATM   23  C   UNK A   0      -8.162   9.588  69.262  1.00  0.00    -0.112 A  
HETATM   24  C   UNK A   0      -9.053   9.498  64.838  1.00  0.00    -0.276 C  
HETATM   25  C   UNK A   0      -9.232   9.071  69.998  1.00  0.00    -0.193 A  
BRANCH  24  26
HETATM   26  C   UNK A   0      -9.338   9.904  63.449  1.00  0.00    -0.223 C  
HETATM   27  C   UNK A   0      -9.641  10.219  62.331  1.00  0.00    -0.172 C  
ENDBRANCH  24  26
BRANCH  25  28
HETATM   28  C   UNK A   0      -9.082   8.887  71.464  1.00  0.00    -0.229 C  
HETATM   29  O   UNK A   0     -10.040   9.008  72.217  1.00  0.00    -0.236 OA 
ATOM     30  N   GLU A   1      -7.811   8.521  71.900  1.00  0.00    -0.126 N  
ATOM     31  H   GLU A   1      -7.026   8.512  71.248  1.00  0.00     0.000 HD 
BRANCH  30  32
ATOM     32  CA  GLU A   1      -7.612   8.145  73.315  1.00  0.00    -0.146 C  
ATOM     33  O   GLU A   1      -5.738   6.979  72.328  1.00  0.00    -0.037 OA 
ATOM     34  C   GLU A   1      -6.216   7.511  73.481  1.00  0.00    -0.061 C  
ATOM     35  OXT GLU A   1      -5.653   7.355  74.555  1.00  0.00    -0.068 OA 
BRANCH  32  36
ATOM     36  CB  GLU A   1      -8.695   7.147  73.760  1.00  0.00    -0.199 C  
BRANCH  36  37
ATOM     37  CG  GLU A   1      -8.163   5.722  73.958  1.00  0.00    -0.108 C  
ATOM     38  CD  GLU A   1      -8.515   4.803  72.814  1.00  0.00    -0.112 C  
ATOM     39  OE2 GLU A   1      -9.157   5.119  71.827  1.00  0.00    -0.135 OA 
ATOM     40  OE1 GLU A   1      -8.022   3.556  72.991  1.00  0.00    -0.068 OA 
ENDBRANCH  36  37
ENDBRANCH  32  36
ENDBRANCH  30  32
ENDBRANCH  25  28
ENDBRANCH   9  17
TORSDOF 6
ENDMDL
MODEL      133
REMARK 921   NORMALIZED FREE ENERGY PREDICTED BY IDOCK:   -4.03 KCAL/MOL
REMARK 922        TOTAL FREE ENERGY PREDICTED BY IDOCK:   -6.86 KCAL/MOL
REMARK 923 INTER-LIGAND FREE ENERGY PREDICTED BY IDOCK:   -4.91 KCAL/MOL
REMARK 924 INTRA-LIGAND FREE ENERGY PREDICTED BY IDOCK:   -1.96 KCAL/MOL
REMARK 927      BINDING AFFINITY PREDICTED BY RF-SCORE:    0.00 PKD
ROOT
HETATM    1  N   UNK A   0      -8.944   4.159  72.641  1.00  0.00    -0.109 NA 
HETATM    2  C   UNK A   0      -9.084   5.475  72.272  1.00  0.00    -0.142 A  
HETATM    3  H2  UNK A   0      -9.598   3.448  72.315  1.00  0.00     0.000 HD 
HETATM    4  H1  UNK A   0      -8.163   3.917  73.251  1.00  0.00     0.000 HD 
HETATM    5  N   UNK A   0     -10.101   5.791  71.476  1.00  0.00    -0.190 NA 
HETATM    6  C   UNK A   0     -10.188   7.049  71.050  1.00  0.00    -0.196 A  
HETATM    7  N   UNK A   0     -11.161   7.349  70.182  1.00  0.00    -0.263 NA 
HETATM    8  C   UNK A   0     -11.193   8.600  69.665  1.00  0.00     0.079 A  
HETATM    9  C   UNK A   0     -10.276   9.582  70.010  1.00  0.00    -0.244 A  
HETATM   10  H2  UNK A   0      -7.832   9.269  73.252  1.00  0.00     0.000 HD 
HETATM   11  N   UNK A   0      -9.319   9.318  70.926  1.00  0.00    -0.259 NA 
HETATM   12  H1  UNK A   0      -6.606   8.174  73.434  1.00  0.00     0.000 HD 
HETATM   13  C   UNK A   0      -9.281   8.045  71.427  1.00  0.00    -0.144 A  
HETATM   14  C   UNK A   0      -8.287   7.600  72.290  1.00  0.00    -0.108 A  
HETATM   15  N   UNK A   0      -7.336   8.501  72.801  1.00  0.00    -0.301 NA 
HETATM   16  N   UNK A   0      -8.173   6.335  72.717  1.00  0.00    -0.112 NA 
ENDROOT
BRANCH   9  17
HETATM   17  C   UNK A   0     -10.220  10.914  69.302  1.00  0.00    -0.190 C  
HETATM   18  C   UNK A   0      -9.303   9.796  67.202  1.00  0.00    -0.169 A  
HETATM   19  C   UNK A   0      -7.929   9.960  67.451  1.00  0.00    -0.106 A  
HETATM   20  C   UNK A   0      -9.732   8.652  66.516  1.00  0.00    -0.325 A  
HETATM   21  C   UNK A   0     -10.336  10.783  67.756  1.00  0.00    -0.226 C  
HETATM   22  C   UNK A   0      -8.827   7.638  66.195  1.00  0.00    -0.192 A  
HETATM   23  C   UNK A   0      -7.021   8.948  67.129  1.00  0.00    -0.075 A  
HETATM   24  C   UNK A   0     -10.213  12.138  67.033  1.00  0.00    -0.225 C  
HETATM   25  C   UNK A   0      -7.483   7.760  66.556  1.00  0.00    -0.088 A  
BRANCH  24  26
HETATM   26  C   UNK A   0     -11.234  13.121  67.436  1.00  0.00    -0.319 C  
HETATM   27  C   UNK A   0     -12.020  13.976  67.746  1.00  0.00    -0.392 C  
ENDBRANCH  24  26
BRANCH  25  28
HETATM   28  C   UNK A   0      -6.539   6.630  66.367  1.00  0.00    -0.044 C  
HETATM   29  O   UNK A   0      -5.337   6.824  66.243  1.00  0.00    -0.017 OA 
ATOM     30  N   GLU A   1      -7.106   5.358  66.397  1.00  0.00    -0.067 N  
ATOM     31  H   GLU A   1      -8.120   5.246  66.420  1.00  0.00     0.000 HD 
BRANCH  30  32
ATOM     32  CA  GLU A   1      -6.224   4.172  66.395  1.00  0.00    -0.032 C  
ATOM     33  O   GLU A   1      -7.334   3.843  64.273  1.00  0.00    -0.064 OA 
ATOM     34  C   GLU A   1      -6.220   3.543  64.988  1.00  0.00    -0.024 C  
ATOM     35  OXT GLU A   1      -5.392   2.734  64.596  1.00  0.00    -0.008 OA 
BRANCH  32  36
ATOM     36  CB  GLU A   1      -6.714   3.141  67.427  1.00  0.00    -0.045 C  
BRANCH  36  37
ATOM     37  CG  GLU A   1      -8.199   3.293  67.779  1.00  0.00    -0.086 C  
ATOM     38  CD  GLU A   1      -8.471   3.131  69.254  1.00  0.00    -0.062 C  
ATOM     39  OE2 GLU A   1      -7.629   2.895  70.103  1.00  0.00    -0.043 OA 
ATOM     40  OE1 GLU A   1      -9.780   3.288  69.553  1.00  0.00    -0.116 OA 
ENDBRANCH  36  37
ENDBRANCH  32  36
ENDBRANCH  30  32
ENDBRANCH  25  28
ENDBRANCH   9  17
TORSDOF 6
ENDMDL
MODEL      134
REMARK 921   NORMALIZED FREE ENERGY PREDICTED BY IDOCK:   -4.00 KCAL/MOL
REMARK 922        TOTAL FREE ENERGY PREDICTED BY IDOCK:   -6.82 KCAL/MOL
REMARK 923 INTER-LIGAND FREE ENERGY PREDICTED BY IDOCK:   -6.05 KCAL/MOL
REMARK 924 INTRA-LIGAND FREE ENERGY PREDICTED BY IDOCK:   -0.77 KCAL/MOL
REMARK 927      BINDING AFFINITY PREDICTED BY RF-SCORE:    0.00 PKD
ROOT
HETATM    1  N   UNK A   0      -5.194   8.424  62.547  1.00  0.00    -0.068 NA 
HETATM    2  C   UNK A   0      -5.939   8.306  63.696  1.00  0.00    -0.071 A  
HETATM    3  H2  UNK A   0      -4.472   9.138  62.458  1.00  0.00     0.000 HD 
HETATM    4  H1  UNK A   0      -5.387   7.772  61.786  1.00  0.00     0.000 HD 
HETATM    5  N   UNK A   0      -5.687   9.155  64.687  1.00  0.00    -0.062 NA 
HETATM    6  C   UNK A   0      -6.349   8.987  65.830  1.00  0.00    -0.056 A  
HETATM    7  N   UNK A   0      -6.037   9.786  66.857  1.00  0.00    -0.062 NA 
HETATM    8  C   UNK A   0      -6.630   9.554  68.052  1.00  0.00    -0.062 A  
HETATM    9  C   UNK A   0      -7.556   8.542  68.249  1.00  0.00    -0.097 A  
HETATM   10  H2  UNK A   0      -9.376   6.594  65.170  1.00  0.00     0.000 HD 
HETATM   11  N   UNK A   0      -7.929   7.758  67.213  1.00  0.00    -0.116 NA 
HETATM   12  H1  UNK A   0      -8.629   5.590  64.089  1.00  0.00     0.000 HD 
HETATM   13  C   UNK A   0      -7.308   7.986  66.014  1.00  0.00    -0.073 A  
HETATM   14  C   UNK A   0      -7.508   7.188  64.895  1.00  0.00    -0.095 A  
HETATM   15  N   UNK A   0      -8.483   6.175  64.911  1.00  0.00    -0.088 NA 
HETATM   16  N   UNK A   0      -6.841   7.331  63.741  1.00  0.00    -0.051 NA 
ENDROOT
BRANCH   9  17
HETATM   17  C   UNK A   0      -8.081   8.187  69.619  1.00  0.00    -0.118 C  
HETATM   18  C   UNK A   0     -10.270   9.399  69.130  1.00  0.00    -0.209 A  
HETATM   19  C   UNK A   0      -9.946  10.657  69.667  1.00  0.00    -0.090 A  
HETATM   20  C   UNK A   0     -11.117   9.340  68.014  1.00  0.00     0.055 A  
HETATM   21  C   UNK A   0      -9.634   8.114  69.672  1.00  0.00    -0.168 C  
HETATM   22  C   UNK A   0     -11.530  10.511  67.376  1.00  0.00     0.074 A  
HETATM   23  C   UNK A   0     -10.360  11.831  69.031  1.00  0.00    -0.087 A  
HETATM   24  C   UNK A   0     -10.169   7.817  71.086  1.00  0.00    -0.214 C  
HETATM   25  C   UNK A   0     -11.103  11.754  67.849  1.00  0.00    -0.302 A  
BRANCH  24  26
HETATM   26  C   UNK A   0      -9.683   6.544  71.648  1.00  0.00    -0.174 C  
HETATM   27  C   UNK A   0      -9.346   5.506  72.150  1.00  0.00    -0.159 C  
ENDBRANCH  24  26
BRANCH  25  28
HETATM   28  C   UNK A   0     -11.399  12.997  67.095  1.00  0.00    -0.305 C  
HETATM   29  O   UNK A   0     -12.378  13.076  66.364  1.00  0.00    -0.417 OA 
ATOM     30  N   GLU A   1     -10.529  14.062  67.320  1.00  0.00    -0.267 N  
ATOM     31  H   GLU A   1      -9.681  13.926  67.872  1.00  0.00     0.000 HD 
BRANCH  30  32
ATOM     32  CA  GLU A   1     -10.846  15.389  66.752  1.00  0.00    -0.306 C  
ATOM     33  O   GLU A   1      -9.668  14.425  64.874  1.00  0.00    -0.072 OA 
ATOM     34  C   GLU A   1     -10.571  15.371  65.236  1.00  0.00    -0.428 C  
ATOM     35  OXT GLU A   1     -10.989  16.209  64.449  1.00  0.00    -0.612 OA 
BRANCH  32  36
ATOM     36  CB  GLU A   1      -9.991  16.476  67.426  1.00  0.00    -0.267 C  
BRANCH  36  37
ATOM     37  CG  GLU A   1     -10.655  17.089  68.665  1.00  0.00    -0.362 C  
ATOM     38  CD  GLU A   1     -10.681  16.144  69.842  1.00  0.00    -0.328 C  
ATOM     39  OE2 GLU A   1     -10.239  15.008  69.843  1.00  0.00    -0.183 OA 
ATOM     40  OE1 GLU A   1     -11.250  16.704  70.934  1.00  0.00    -0.209 OA 
ENDBRANCH  36  37
ENDBRANCH  32  36
ENDBRANCH  30  32
ENDBRANCH  25  28
ENDBRANCH   9  17
TORSDOF 6
ENDMDL
MODEL      135
REMARK 921   NORMALIZED FREE ENERGY PREDICTED BY IDOCK:   -4.00 KCAL/MOL
REMARK 922        TOTAL FREE ENERGY PREDICTED BY IDOCK:   -6.81 KCAL/MOL
REMARK 923 INTER-LIGAND FREE ENERGY PREDICTED BY IDOCK:   -7.18 KCAL/MOL
REMARK 924 INTRA-LIGAND FREE ENERGY PREDICTED BY IDOCK:    0.37 KCAL/MOL
REMARK 927      BINDING AFFINITY PREDICTED BY RF-SCORE:    0.00 PKD
ROOT
HETATM    1  N   UNK A   0      -6.741   8.237  62.946  1.00  0.00    -0.086 NA 
HETATM    2  C   UNK A   0      -6.944   8.017  64.288  1.00  0.00    -0.072 A  
HETATM    3  H2  UNK A   0      -7.465   8.021  62.262  1.00  0.00     0.000 HD 
HETATM    4  H1  UNK A   0      -5.842   8.624  62.659  1.00  0.00     0.000 HD 
HETATM    5  N   UNK A   0      -8.116   7.514  64.662  1.00  0.00    -0.128 NA 
HETATM    6  C   UNK A   0      -8.346   7.381  65.967  1.00  0.00    -0.143 A  
HETATM    7  N   UNK A   0      -9.554   6.954  66.349  1.00  0.00    -0.139 NA 
HETATM    8  C   UNK A   0      -9.830   6.916  67.675  1.00  0.00    -0.134 A  
HETATM    9  C   UNK A   0      -8.910   7.279  68.646  1.00  0.00    -0.129 A  
HETATM   10  H2  UNK A   0      -4.936   7.706  67.864  1.00  0.00     0.000 HD 
HETATM   11  N   UNK A   0      -7.664   7.660  68.286  1.00  0.00    -0.117 NA 
HETATM   12  H1  UNK A   0      -4.262   8.872  66.904  1.00  0.00     0.000 HD 
HETATM   13  C   UNK A   0      -7.402   7.717  66.943  1.00  0.00    -0.090 A  
HETATM   14  C   UNK A   0      -6.205   8.196  66.425  1.00  0.00    -0.046 A  
HETATM   15  N   UNK A   0      -5.140   8.520  67.284  1.00  0.00    -0.032 NA 
HETATM   16  N   UNK A   0      -5.961   8.352  65.117  1.00  0.00    -0.045 NA 
ENDROOT
BRANCH   9  17
HETATM   17  C   UNK A   0      -9.282   7.394  70.105  1.00  0.00    -0.151 C  
HETATM   18  C   UNK A   0     -10.751   9.416  69.604  1.00  0.00    -0.251 A  
HETATM   19  C   UNK A   0      -9.811  10.433  69.846  1.00  0.00    -0.052 A  
HETATM   20  C   UNK A   0     -11.721   9.617  68.611  1.00  0.00     0.625 A  
HETATM   21  C   UNK A   0     -10.668   8.066  70.324  1.00  0.00    -0.239 C  
HETATM   22  C   UNK A   0     -11.677  10.751  67.798  1.00  0.00     0.021 A  
HETATM   23  C   UNK A   0      -9.767  11.570  69.035  1.00  0.00     0.016 A  
HETATM   24  C   UNK A   0     -11.017   8.240  71.814  1.00  0.00    -0.342 C  
HETATM   25  C   UNK A   0     -10.664  11.697  67.971  1.00  0.00    -0.246 A  
BRANCH  24  26
HETATM   26  C   UNK A   0     -11.055   6.973  72.567  1.00  0.00    -0.310 C  
HETATM   27  C   UNK A   0     -11.031   5.916  73.138  1.00  0.00    -0.286 C  
ENDBRANCH  24  26
BRANCH  25  28
HETATM   28  C   UNK A   0     -10.505  12.825  67.019  1.00  0.00    -0.237 C  
HETATM   29  O   UNK A   0      -9.547  12.881  66.259  1.00  0.00    -0.265 OA 
ATOM     30  N   GLU A   1     -11.535  13.763  67.017  1.00  0.00    -0.329 N  
ATOM     31  H   GLU A   1     -12.271  13.721  67.722  1.00  0.00     0.000 HD 
BRANCH  30  32
ATOM     32  CA  GLU A   1     -11.550  14.819  65.983  1.00  0.00    -0.286 C  
ATOM     33  O   GLU A   1     -12.206  12.929  64.627  1.00  0.00    -0.388 OA 
ATOM     34  C   GLU A   1     -12.247  14.282  64.718  1.00  0.00    -0.443 C  
ATOM     35  OXT GLU A   1     -12.658  14.985  63.806  1.00  0.00    -0.776 OA 
BRANCH  32  36
ATOM     36  CB  GLU A   1     -10.113  15.255  65.645  1.00  0.00    -0.401 C  
BRANCH  36  37
ATOM     37  CG  GLU A   1      -9.651  16.487  66.432  1.00  0.00    -0.309 C  
ATOM     38  CD  GLU A   1     -10.241  17.772  65.905  1.00  0.00    -0.225 C  
ATOM     39  OE2 GLU A   1     -10.998  17.862  64.954  1.00  0.00    -0.827 OA 
ATOM     40  OE1 GLU A   1      -9.842  18.848  66.621  1.00  0.00    -0.320 OA 
ENDBRANCH  36  37
ENDBRANCH  32  36
ENDBRANCH  30  32
ENDBRANCH  25  28
ENDBRANCH   9  17
TORSDOF 6
ENDMDL
MODEL      136
REMARK 921   NORMALIZED FREE ENERGY PREDICTED BY IDOCK:   -3.96 KCAL/MOL
REMARK 922        TOTAL FREE ENERGY PREDICTED BY IDOCK:   -6.77 KCAL/MOL
REMARK 923 INTER-LIGAND FREE ENERGY PREDICTED BY IDOCK:   -5.74 KCAL/MOL
REMARK 924 INTRA-LIGAND FREE ENERGY PREDICTED BY IDOCK:   -1.02 KCAL/MOL
REMARK 927      BINDING AFFINITY PREDICTED BY RF-SCORE:    0.00 PKD
ROOT
HETATM    1  N   UNK A   0      -9.656  13.227  65.137  1.00  0.00    -0.482 NA 
HETATM    2  C   UNK A   0      -9.377  11.888  65.012  1.00  0.00     0.086 A  
HETATM    3  H2  UNK A   0      -9.514  13.715  66.021  1.00  0.00     0.000 HD 
HETATM    4  H1  UNK A   0     -10.010  13.718  64.316  1.00  0.00     0.000 HD 
HETATM    5  N   UNK A   0      -8.915  11.249  66.083  1.00  0.00    -0.199 NA 
HETATM    6  C   UNK A   0      -8.563   9.973  65.939  1.00  0.00    -0.139 A  
HETATM    7  N   UNK A   0      -8.020   9.352  66.992  1.00  0.00    -0.102 NA 
HETATM    8  C   UNK A   0      -7.565   8.087  66.825  1.00  0.00    -0.094 A  
HETATM    9  C   UNK A   0      -7.657   7.407  65.620  1.00  0.00    -0.092 A  
HETATM   10  H2  UNK A   0     -10.051   8.648  62.569  1.00  0.00     0.000 HD 
HETATM   11  N   UNK A   0      -8.252   7.993  64.559  1.00  0.00    -0.130 NA 
HETATM   12  H1  UNK A   0      -9.845  10.028  61.681  1.00  0.00     0.000 HD 
HETATM   13  C   UNK A   0      -8.690   9.280  64.731  1.00  0.00    -0.188 A  
HETATM   14  C   UNK A   0      -9.218  10.044  63.699  1.00  0.00    -0.274 A  
HETATM   15  N   UNK A   0      -9.457   9.467  62.439  1.00  0.00    -0.017 NA 
HETATM   16  N   UNK A   0      -9.563  11.334  63.818  1.00  0.00    -0.254 NA 
ENDROOT
BRANCH   9  17
HETATM   17  C   UNK A   0      -6.996   6.067  65.401  1.00  0.00    -0.063 C  
HETATM   18  C   UNK A   0      -8.542   4.989  67.117  1.00  0.00    -0.104 A  
HETATM   19  C   UNK A   0      -7.725   5.116  68.255  1.00  0.00    -0.083 A  
HETATM   20  C   UNK A   0      -9.932   5.072  67.274  1.00  0.00    -0.220 A  
HETATM   21  C   UNK A   0      -7.940   4.870  65.714  1.00  0.00    -0.106 C  
HETATM   22  C   UNK A   0     -10.488   5.396  68.513  1.00  0.00    -0.192 A  
HETATM   23  C   UNK A   0      -8.278   5.438  69.497  1.00  0.00    -0.096 A  
HETATM   24  C   UNK A   0      -7.243   3.505  65.551  1.00  0.00    -0.071 C  
HETATM   25  C   UNK A   0      -9.657   5.638  69.610  1.00  0.00    -0.197 A  
BRANCH  24  26
HETATM   26  C   UNK A   0      -6.717   3.265  64.195  1.00  0.00    -0.036 C  
HETATM   27  C   UNK A   0      -6.329   3.009  63.087  1.00  0.00    -0.018 C  
ENDBRANCH  24  26
BRANCH  25  28
HETATM   28  C   UNK A   0     -10.215   6.137  70.892  1.00  0.00    -0.201 C  
HETATM   29  O   UNK A   0      -9.582   6.045  71.936  1.00  0.00    -0.152 OA 
ATOM     30  N   GLU A   1     -11.462   6.754  70.808  1.00  0.00    -0.320 N  
ATOM     31  H   GLU A   1     -11.988   6.735  69.934  1.00  0.00     0.000 HD 
BRANCH  30  32
ATOM     32  CA  GLU A   1     -12.013   7.436  71.998  1.00  0.00    -0.297 C  
ATOM     33  O   GLU A   1     -13.929   7.586  70.532  1.00  0.00     0.480 OA 
ATOM     34  C   GLU A   1     -13.537   7.597  71.831  1.00  0.00    -0.252 C  
ATOM     35  OXT GLU A   1     -14.306   7.863  72.742  1.00  0.00     0.050 OA 
BRANCH  32  36
ATOM     36  CB  GLU A   1     -11.357   8.816  72.173  1.00  0.00    -0.411 C  
BRANCH  36  37
ATOM     37  CG  GLU A   1     -11.310   9.634  70.877  1.00  0.00    -0.431 C  
ATOM     38  CD  GLU A   1     -12.350  10.726  70.836  1.00  0.00    -0.396 C  
ATOM     39  OE2 GLU A   1     -13.163  10.958  71.714  1.00  0.00    -0.444 OA 
ATOM     40  OE1 GLU A   1     -12.284  11.452  69.697  1.00  0.00    -0.296 OA 
ENDBRANCH  36  37
ENDBRANCH  32  36
ENDBRANCH  30  32
ENDBRANCH  25  28
ENDBRANCH   9  17
TORSDOF 6
ENDMDL
MODEL      137
REMARK 921   NORMALIZED FREE ENERGY PREDICTED BY IDOCK:   -3.94 KCAL/MOL
REMARK 922        TOTAL FREE ENERGY PREDICTED BY IDOCK:   -6.73 KCAL/MOL
REMARK 923 INTER-LIGAND FREE ENERGY PREDICTED BY IDOCK:   -6.06 KCAL/MOL
REMARK 924 INTRA-LIGAND FREE ENERGY PREDICTED BY IDOCK:   -0.67 KCAL/MOL
REMARK 927      BINDING AFFINITY PREDICTED BY RF-SCORE:    0.00 PKD
ROOT
HETATM    1  N   UNK A   0     -13.620  11.482  62.987  1.00  0.00     0.124 NA 
HETATM    2  C   UNK A   0     -12.570  11.884  63.777  1.00  0.00    -0.396 A  
HETATM    3  H2  UNK A   0     -14.584  11.686  63.248  1.00  0.00     0.000 HD 
HETATM    4  H1  UNK A   0     -13.402  10.973  62.130  1.00  0.00     0.000 HD 
HETATM    5  N   UNK A   0     -12.853  12.547  64.893  1.00  0.00    -0.800 NA 
HETATM    6  C   UNK A   0     -11.835  13.011  65.615  1.00  0.00    -0.399 A  
HETATM    7  N   UNK A   0     -12.118  13.751  66.693  1.00  0.00    -0.428 NA 
HETATM    8  C   UNK A   0     -11.089  14.312  67.372  1.00  0.00    -0.304 A  
HETATM    9  C   UNK A   0      -9.762  14.135  67.010  1.00  0.00    -0.258 A  
HETATM   10  H2  UNK A   0      -8.557  11.242  64.410  1.00  0.00     0.000 HD 
HETATM   11  N   UNK A   0      -9.450  13.346  65.959  1.00  0.00    -0.154 NA 
HETATM   12  H1  UNK A   0      -8.920  11.182  62.798  1.00  0.00     0.000 HD 
HETATM   13  C   UNK A   0     -10.497  12.801  65.265  1.00  0.00    -0.292 A  
HETATM   14  C   UNK A   0     -10.331  12.063  64.100  1.00  0.00    -0.347 A  
HETATM   15  N   UNK A   0      -9.042  11.723  63.653  1.00  0.00     0.155 NA 
HETATM   16  N   UNK A   0     -11.343  11.602  63.351  1.00  0.00    -0.357 NA 
ENDROOT
BRANCH   9  17
HETATM   17  C   UNK A   0      -8.640  14.900  67.670  1.00  0.00    -0.181 C  
HETATM   18  C   UNK A   0      -7.239  12.775  67.819  1.00  0.00    -0.132 A  
HETATM   19  C   UNK A   0      -7.609  12.361  69.111  1.00  0.00     0.223 A  
HETATM   20  C   UNK A   0      -6.954  11.799  66.854  1.00  0.00    -0.101 A  
HETATM   21  C   UNK A   0      -7.244  14.256  67.425  1.00  0.00    -0.137 C  
HETATM   22  C   UNK A   0      -7.153  10.446  67.135  1.00  0.00    -0.090 A  
HETATM   23  C   UNK A   0      -7.808  11.007  69.395  1.00  0.00     0.001 A  
HETATM   24  C   UNK A   0      -6.109  15.001  68.153  1.00  0.00    -0.144 C  
HETATM   25  C   UNK A   0      -7.638  10.055  68.386  1.00  0.00    -0.083 A  
BRANCH  24  26
HETATM   26  C   UNK A   0      -5.980  16.416  67.760  1.00  0.00    -0.151 C  
HETATM   27  C   UNK A   0      -5.900  17.587  67.506  1.00  0.00    -0.151 C  
ENDBRANCH  24  26
BRANCH  25  28
HETATM   28  C   UNK A   0      -8.007   8.642  68.651  1.00  0.00    -0.115 C  
HETATM   29  O   UNK A   0      -7.743   7.758  67.847  1.00  0.00    -0.116 OA 
ATOM     30  N   GLU A   1      -8.612   8.397  69.882  1.00  0.00    -0.129 N  
ATOM     31  H   GLU A   1      -8.886   9.173  70.485  1.00  0.00     0.000 HD 
BRANCH  30  32
ATOM     32  CA  GLU A   1      -8.851   7.002  70.305  1.00  0.00    -0.148 C  
ATOM     33  O   GLU A   1     -11.128   7.672  69.843  1.00  0.00    -0.237 OA 
ATOM     34  C   GLU A   1     -10.297   6.604  69.949  1.00  0.00    -0.200 C  
ATOM     35  OXT GLU A   1     -10.708   5.453  69.916  1.00  0.00    -0.316 OA 
BRANCH  32  36
ATOM     36  CB  GLU A   1      -8.628   6.858  71.821  1.00  0.00    -0.119 C  
BRANCH  36  37
ATOM     37  CG  GLU A   1      -7.264   6.254  72.178  1.00  0.00    -0.091 C  
ATOM     38  CD  GLU A   1      -7.316   4.757  72.357  1.00  0.00    -0.083 C  
ATOM     39  OE2 GLU A   1      -8.316   4.068  72.247  1.00  0.00    -0.094 OA 
ATOM     40  OE1 GLU A   1      -6.103   4.235  72.651  1.00  0.00    -0.015 OA 
ENDBRANCH  36  37
ENDBRANCH  32  36
ENDBRANCH  30  32
ENDBRANCH  25  28
ENDBRANCH   9  17
TORSDOF 6
ENDMDL
MODEL      138
REMARK 921   NORMALIZED FREE ENERGY PREDICTED BY IDOCK:   -3.94 KCAL/MOL
REMARK 922        TOTAL FREE ENERGY PREDICTED BY IDOCK:   -6.73 KCAL/MOL
REMARK 923 INTER-LIGAND FREE ENERGY PREDICTED BY IDOCK:   -5.68 KCAL/MOL
REMARK 924 INTRA-LIGAND FREE ENERGY PREDICTED BY IDOCK:   -1.05 KCAL/MOL
REMARK 927      BINDING AFFINITY PREDICTED BY RF-SCORE:    0.00 PKD
ROOT
HETATM    1  N   UNK A   0      -5.181  13.259  70.112  1.00  0.00    -0.090 NA 
HETATM    2  C   UNK A   0      -6.091  12.230  70.095  1.00  0.00    -0.111 A  
HETATM    3  H2  UNK A   0      -4.333  13.204  70.675  1.00  0.00     0.000 HD 
HETATM    4  H1  UNK A   0      -5.383  14.081  69.541  1.00  0.00     0.000 HD 
HETATM    5  N   UNK A   0      -5.828  11.159  70.838  1.00  0.00    -0.345 NA 
HETATM    6  C   UNK A   0      -6.665  10.127  70.757  1.00  0.00     0.040 A  
HETATM    7  N   UNK A   0      -6.358   9.017  71.437  1.00  0.00    -0.076 NA 
HETATM    8  C   UNK A   0      -7.148   7.929  71.278  1.00  0.00    -0.055 A  
HETATM    9  C   UNK A   0      -8.266   7.924  70.459  1.00  0.00    -0.118 A  
HETATM   10  H2  UNK A   0      -9.962  11.339  69.029  1.00  0.00     0.000 HD 
HETATM   11  N   UNK A   0      -8.628   9.050  69.805  1.00  0.00    -0.130 NA 
HETATM   12  H1  UNK A   0      -9.271  12.378  67.943  1.00  0.00     0.000 HD 
HETATM   13  C   UNK A   0      -7.811  10.138  69.955  1.00  0.00    -0.115 A  
HETATM   14  C   UNK A   0      -7.996  11.326  69.258  1.00  0.00     0.086 A  
HETATM   15  N   UNK A   0      -9.136  11.506  68.455  1.00  0.00    -0.184 NA 
HETATM   16  N   UNK A   0      -7.157  12.369  69.314  1.00  0.00     0.007 NA 
ENDROOT
BRANCH   9  17
HETATM   17  C   UNK A   0      -9.038   6.662  70.158  1.00  0.00    -0.155 C  
HETATM   18  C   UNK A   0      -8.617   6.960  67.662  1.00  0.00    -0.121 A  
HETATM   19  C   UNK A   0      -9.788   7.661  67.326  1.00  0.00    -0.245 A  
HETATM   20  C   UNK A   0      -7.436   7.247  66.963  1.00  0.00    -0.105 A  
HETATM   21  C   UNK A   0      -8.586   5.976  68.836  1.00  0.00    -0.116 C  
HETATM   22  C   UNK A   0      -7.396   8.292  66.038  1.00  0.00    -0.080 A  
HETATM   23  C   UNK A   0      -9.752   8.707  66.399  1.00  0.00    -0.333 A  
HETATM   24  C   UNK A   0      -9.419   4.725  68.500  1.00  0.00    -0.200 C  
HETATM   25  C   UNK A   0      -8.538   9.060  65.801  1.00  0.00    -0.180 A  
BRANCH  24  26
HETATM   26  C   UNK A   0      -9.367   3.680  69.538  1.00  0.00    -0.247 C  
HETATM   27  C   UNK A   0      -9.398   2.828  70.384  1.00  0.00    -0.217 C  
ENDBRANCH  24  26
BRANCH  25  28
HETATM   28  C   UNK A   0      -8.477  10.271  64.945  1.00  0.00    -0.177 C  
HETATM   29  O   UNK A   0      -7.829  10.279  63.906  1.00  0.00    -0.155 OA 
ATOM     30  N   GLU A   1      -9.241  11.354  65.375  1.00  0.00    -0.326 N  
ATOM     31  H   GLU A   1      -9.698  11.332  66.287  1.00  0.00     0.000 HD 
BRANCH  30  32
ATOM     32  CA  GLU A   1      -9.380  12.535  64.498  1.00  0.00     0.554 C  
ATOM     33  O   GLU A   1     -10.849  13.204  66.298  1.00  0.00    -0.277 OA 
ATOM     34  C   GLU A   1     -10.087  13.664  65.273  1.00  0.00    -0.275 C  
ATOM     35  OXT GLU A   1     -10.101  14.836  64.926  1.00  0.00    -0.352 OA 
BRANCH  32  36
ATOM     36  CB  GLU A   1     -10.194  12.173  63.243  1.00  0.00    -0.341 C  
BRANCH  36  37
ATOM     37  CG  GLU A   1     -11.489  11.415  63.557  1.00  0.00    -0.190 C  
ATOM     38  CD  GLU A   1     -12.717  12.286  63.455  1.00  0.00    -0.393 C  
ATOM     39  OE2 GLU A   1     -12.719  13.470  63.166  1.00  0.00    -0.718 OA 
ATOM     40  OE1 GLU A   1     -13.853  11.600  63.715  1.00  0.00     0.057 OA 
ENDBRANCH  36  37
ENDBRANCH  32  36
ENDBRANCH  30  32
ENDBRANCH  25  28
ENDBRANCH   9  17
TORSDOF 6
ENDMDL
MODEL      139
REMARK 921   NORMALIZED FREE ENERGY PREDICTED BY IDOCK:   -3.92 KCAL/MOL
REMARK 922        TOTAL FREE ENERGY PREDICTED BY IDOCK:   -6.71 KCAL/MOL
REMARK 923 INTER-LIGAND FREE ENERGY PREDICTED BY IDOCK:   -4.84 KCAL/MOL
REMARK 924 INTRA-LIGAND FREE ENERGY PREDICTED BY IDOCK:   -1.87 KCAL/MOL
REMARK 927      BINDING AFFINITY PREDICTED BY RF-SCORE:    0.00 PKD
ROOT
HETATM    1  N   UNK A   0      -7.181   3.609  63.741  1.00  0.00    -0.050 NA 
HETATM    2  C   UNK A   0      -7.208   3.651  65.114  1.00  0.00    -0.067 A  
HETATM    3  H2  UNK A   0      -7.864   3.063  63.217  1.00  0.00     0.000 HD 
HETATM    4  H1  UNK A   0      -6.454   4.143  63.264  1.00  0.00     0.000 HD 
HETATM    5  N   UNK A   0      -8.155   2.956  65.736  1.00  0.00    -0.086 NA 
HETATM    6  C   UNK A   0      -8.235   3.064  67.061  1.00  0.00    -0.085 A  
HETATM    7  N   UNK A   0      -9.238   2.433  67.681  1.00  0.00    -0.183 NA 
HETATM    8  C   UNK A   0      -9.388   2.622  69.013  1.00  0.00    -0.143 A  
HETATM    9  C   UNK A   0      -8.537   3.422  69.760  1.00  0.00    -0.063 A  
HETATM   10  H2  UNK A   0      -4.923   4.687  68.374  1.00  0.00     0.000 HD 
HETATM   11  N   UNK A   0      -7.483   4.024  69.166  1.00  0.00    -0.054 NA 
HETATM   12  H1  UNK A   0      -4.686   5.743  67.123  1.00  0.00     0.000 HD 
HETATM   13  C   UNK A   0      -7.353   3.845  67.815  1.00  0.00    -0.067 A  
HETATM   14  C   UNK A   0      -6.387   4.492  67.055  1.00  0.00    -0.040 A  
HETATM   15  N   UNK A   0      -5.395   5.268  67.681  1.00  0.00    -0.011 NA 
HETATM   16  N   UNK A   0      -6.300   4.409  65.720  1.00  0.00    -0.035 NA 
ENDROOT
BRANCH   9  17
HETATM   17  C   UNK A   0      -8.812   3.759  71.206  1.00  0.00    -0.143 C  
HETATM   18  C   UNK A   0     -10.234   5.755  70.503  1.00  0.00    -0.284 A  
HETATM   19  C   UNK A   0      -9.244   6.752  70.542  1.00  0.00    -0.156 A  
HETATM   20  C   UNK A   0     -11.256   5.857  69.549  1.00  0.00    -0.299 A  
HETATM   21  C   UNK A   0     -10.156   4.518  71.404  1.00  0.00    -0.230 C  
HETATM   22  C   UNK A   0     -11.222   6.861  68.579  1.00  0.00    -0.068 A  
HETATM   23  C   UNK A   0      -9.208   7.759  69.574  1.00  0.00    -0.149 A  
HETATM   24  C   UNK A   0     -10.403   4.918  72.872  1.00  0.00    -0.235 C  
HETATM   25  C   UNK A   0     -10.166   7.775  68.556  1.00  0.00    -0.227 A  
BRANCH  24  26
HETATM   26  C   UNK A   0     -10.441   3.773  73.800  1.00  0.00    -0.268 C  
HETATM   27  C   UNK A   0     -10.508   2.803  74.505  1.00  0.00    -0.191 C  
ENDBRANCH  24  26
BRANCH  25  28
HETATM   28  C   UNK A   0     -10.026   8.748  67.443  1.00  0.00    -0.208 C  
HETATM   29  O   UNK A   0     -10.878   9.604  67.241  1.00  0.00    -0.254 OA 
ATOM     30  N   GLU A   1      -8.852   8.650  66.699  1.00  0.00    -0.128 N  
ATOM     31  H   GLU A   1      -8.210   7.872  66.850  1.00  0.00     0.000 HD 
BRANCH  30  32
ATOM     32  CA  GLU A   1      -8.547   9.685  65.690  1.00  0.00    -0.136 C  
ATOM     33  O   GLU A   1      -7.629   7.752  64.565  1.00  0.00    -0.093 OA 
ATOM     34  C   GLU A   1      -8.121   9.003  64.375  1.00  0.00    -0.146 C  
ATOM     35  OXT GLU A   1      -8.074   9.564  63.290  1.00  0.00    -0.134 OA 
BRANCH  32  36
ATOM     36  CB  GLU A   1      -7.419  10.604  66.192  1.00  0.00    -0.138 C  
BRANCH  36  37
ATOM     37  CG  GLU A   1      -7.913  11.991  66.623  1.00  0.00     0.013 C  
ATOM     38  CD  GLU A   1      -8.296  12.048  68.081  1.00  0.00    -0.165 C  
ATOM     39  OE2 GLU A   1      -8.242  11.113  68.861  1.00  0.00    -0.145 OA 
ATOM     40  OE1 GLU A   1      -8.710  13.281  68.452  1.00  0.00    -0.175 OA 
ENDBRANCH  36  37
ENDBRANCH  32  36
ENDBRANCH  30  32
ENDBRANCH  25  28
ENDBRANCH   9  17
TORSDOF 6
ENDMDL
MODEL      140
REMARK 921   NORMALIZED FREE ENERGY PREDICTED BY IDOCK:   -3.89 KCAL/MOL
REMARK 922        TOTAL FREE ENERGY PREDICTED BY IDOCK:   -6.66 KCAL/MOL
REMARK 923 INTER-LIGAND FREE ENERGY PREDICTED BY IDOCK:   -6.56 KCAL/MOL
REMARK 924 INTRA-LIGAND FREE ENERGY PREDICTED BY IDOCK:   -0.11 KCAL/MOL
REMARK 927      BINDING AFFINITY PREDICTED BY RF-SCORE:    0.00 PKD
ROOT
HETATM    1  N   UNK A   0      -6.070  10.792  64.760  1.00  0.00    -0.376 NA 
HETATM    2  C   UNK A   0      -6.943  10.847  65.820  1.00  0.00     0.014 A  
HETATM    3  H2  UNK A   0      -6.245  10.181  63.964  1.00  0.00     0.000 HD 
HETATM    4  H1  UNK A   0      -5.240  11.385  64.798  1.00  0.00     0.000 HD 
HETATM    5  N   UNK A   0      -8.025  10.075  65.771  1.00  0.00    -0.121 NA 
HETATM    6  C   UNK A   0      -8.914  10.190  66.755  1.00  0.00    -0.132 A  
HETATM    7  N   UNK A   0     -10.042   9.477  66.666  1.00  0.00    -0.243 NA 
HETATM    8  C   UNK A   0     -10.995   9.666  67.608  1.00  0.00    -0.124 A  
HETATM    9  C   UNK A   0     -10.843  10.548  68.667  1.00  0.00    -0.237 A  
HETATM   10  H2  UNK A   0      -7.237  12.121  69.720  1.00  0.00     0.000 HD 
HETATM   11  N   UNK A   0      -9.690  11.237  68.810  1.00  0.00    -0.199 NA 
HETATM   12  H1  UNK A   0      -6.346  13.180  68.814  1.00  0.00     0.000 HD 
HETATM   13  C   UNK A   0      -8.740  11.055  67.840  1.00  0.00    -0.133 A  
HETATM   14  C   UNK A   0      -7.555  11.779  67.796  1.00  0.00    -0.127 A  
HETATM   15  N   UNK A   0      -7.216  12.649  68.847  1.00  0.00    -0.082 NA 
HETATM   16  N   UNK A   0      -6.656  11.690  66.806  1.00  0.00    -0.126 NA 
ENDROOT
BRANCH   9  17
HETATM   17  C   UNK A   0     -11.975  10.874  69.612  1.00  0.00    -0.414 C  
HETATM   18  C   UNK A   0     -11.152   9.110  71.257  1.00  0.00    -0.405 A  
HETATM   19  C   UNK A   0     -11.934   8.025  70.822  1.00  0.00    -0.132 A  
HETATM   20  C   UNK A   0      -9.867   8.856  71.758  1.00  0.00    -0.386 A  
HETATM   21  C   UNK A   0     -11.634  10.555  71.096  1.00  0.00    -0.230 C  
HETATM   22  C   UNK A   0      -9.330   7.568  71.711  1.00  0.00    -0.168 A  
HETATM   23  C   UNK A   0     -11.399   6.735  70.775  1.00  0.00    -0.374 A  
HETATM   24  C   UNK A   0     -12.814  10.828  72.049  1.00  0.00    -0.357 C  
HETATM   25  C   UNK A   0     -10.074   6.520  71.164  1.00  0.00    -0.206 A  
BRANCH  24  26
HETATM   26  C   UNK A   0     -13.281  12.226  72.030  1.00  0.00    -0.508 C  
HETATM   27  C   UNK A   0     -13.731  13.339  72.015  1.00  0.00    -0.519 C  
ENDBRANCH  24  26
BRANCH  25  28
HETATM   28  C   UNK A   0      -9.465   5.181  70.959  1.00  0.00    -0.160 C  
HETATM   29  O   UNK A   0     -10.021   4.166  71.359  1.00  0.00    -0.185 OA 
ATOM     30  N   GLU A   1      -8.270   5.165  70.244  1.00  0.00    -0.089 N  
ATOM     31  H   GLU A   1      -7.802   6.038  70.002  1.00  0.00     0.000 HD 
BRANCH  30  32
ATOM     32  CA  GLU A   1      -7.686   3.868  69.840  1.00  0.00    -0.051 C  
ATOM     33  O   GLU A   1      -9.383   4.088  68.132  1.00  0.00    -0.142 OA 
ATOM     34  C   GLU A   1      -8.201   3.495  68.436  1.00  0.00    -0.077 C  
ATOM     35  OXT GLU A   1      -7.698   2.639  67.722  1.00  0.00    -0.060 OA 
BRANCH  32  36
ATOM     36  CB  GLU A   1      -8.073   2.772  70.848  1.00  0.00    -0.060 C  
BRANCH  36  37
ATOM     37  CG  GLU A   1      -6.986   2.500  71.895  1.00  0.00    -0.030 C  
ATOM     38  CD  GLU A   1      -7.550   2.039  73.216  1.00  0.00    -0.041 C  
ATOM     39  OE2 GLU A   1      -8.734   1.895  73.466  1.00  0.00    -0.061 OA 
ATOM     40  OE1 GLU A   1      -6.580   1.782  74.124  1.00  0.00    -0.018 OA 
ENDBRANCH  36  37
ENDBRANCH  32  36
ENDBRANCH  30  32
ENDBRANCH  25  28
ENDBRANCH   9  17
TORSDOF 6
ENDMDL
MODEL      141
REMARK 921   NORMALIZED FREE ENERGY PREDICTED BY IDOCK:   -3.83 KCAL/MOL
REMARK 922        TOTAL FREE ENERGY PREDICTED BY IDOCK:   -6.58 KCAL/MOL
REMARK 923 INTER-LIGAND FREE ENERGY PREDICTED BY IDOCK:   -6.79 KCAL/MOL
REMARK 924 INTRA-LIGAND FREE ENERGY PREDICTED BY IDOCK:    0.21 KCAL/MOL
REMARK 927      BINDING AFFINITY PREDICTED BY RF-SCORE:    0.00 PKD
ROOT
HETATM    1  N   UNK A   0     -13.944  11.113  72.263  1.00  0.00    -0.058 NA 
HETATM    2  C   UNK A   0     -13.157  11.902  71.458  1.00  0.00    -0.275 A  
HETATM    3  H2  UNK A   0     -14.181  11.401  73.212  1.00  0.00     0.000 HD 
HETATM    4  H1  UNK A   0     -14.284  10.232  71.879  1.00  0.00     0.000 HD 
HETATM    5  N   UNK A   0     -12.715  13.051  71.958  1.00  0.00    -0.129 NA 
HETATM    6  C   UNK A   0     -12.024  13.854  71.151  1.00  0.00    -0.116 A  
HETATM    7  N   UNK A   0     -11.651  15.047  71.626  1.00  0.00    -0.371 NA 
HETATM    8  C   UNK A   0     -11.040  15.910  70.781  1.00  0.00    -0.322 A  
HETATM    9  C   UNK A   0     -10.770  15.602  69.456  1.00  0.00    -0.271 A  
HETATM   10  H2  UNK A   0     -10.925  11.800  68.005  1.00  0.00     0.000 HD 
HETATM   11  N   UNK A   0     -11.087  14.382  68.970  1.00  0.00    -0.251 NA 
HETATM   12  H1  UNK A   0     -12.291  10.880  67.856  1.00  0.00     0.000 HD 
HETATM   13  C   UNK A   0     -11.724  13.524  69.826  1.00  0.00    -0.295 A  
HETATM   14  C   UNK A   0     -12.208  12.283  69.433  1.00  0.00    -0.065 A  
HETATM   15  N   UNK A   0     -11.935  11.791  68.145  1.00  0.00    -0.557 NA 
HETATM   16  N   UNK A   0     -12.919  11.468  70.225  1.00  0.00     0.139 NA 
ENDROOT
BRANCH   9  17
HETATM   17  C   UNK A   0     -10.244  16.629  68.482  1.00  0.00    -0.282 C  
HETATM   18  C   UNK A   0      -9.320  14.784  66.986  1.00  0.00    -0.245 A  
HETATM   19  C   UNK A   0      -8.013  14.720  67.501  1.00  0.00    -0.207 A  
HETATM   20  C   UNK A   0      -9.916  13.606  66.514  1.00  0.00    -0.288 A  
HETATM   21  C   UNK A   0     -10.131  16.083  67.029  1.00  0.00    -0.271 C  
HETATM   22  C   UNK A   0      -9.273  12.376  66.665  1.00  0.00    -0.218 A  
HETATM   23  C   UNK A   0      -7.366  13.490  67.652  1.00  0.00    -0.180 A  
HETATM   24  C   UNK A   0      -9.533  17.112  66.051  1.00  0.00    -0.167 C  
HETATM   25  C   UNK A   0      -8.025  12.312  67.289  1.00  0.00    -0.177 A  
BRANCH  24  26
HETATM   26  C   UNK A   0     -10.310  18.362  65.957  1.00  0.00    -0.397 C  
HETATM   27  C   UNK A   0     -10.908  19.403  65.942  1.00  0.00    -0.401 C  
ENDBRANCH  24  26
BRANCH  25  28
HETATM   28  C   UNK A   0      -7.397  11.004  67.603  1.00  0.00    -0.094 C  
HETATM   29  O   UNK A   0      -6.342  10.941  68.221  1.00  0.00    -0.056 OA 
ATOM     30  N   GLU A   1      -8.112   9.879  67.198  1.00  0.00    -0.116 N  
ATOM     31  H   GLU A   1      -8.943   9.979  66.615  1.00  0.00     0.000 HD 
BRANCH  30  32
ATOM     32  CA  GLU A   1      -7.653   8.539  67.622  1.00  0.00    -0.098 C  
ATOM     33  O   GLU A   1      -8.424   8.007  65.393  1.00  0.00    -0.149 OA 
ATOM     34  C   GLU A   1      -7.599   7.608  66.395  1.00  0.00    -0.088 C  
ATOM     35  OXT GLU A   1      -7.006   6.540  66.365  1.00  0.00    -0.063 OA 
BRANCH  32  36
ATOM     36  CB  GLU A   1      -8.610   7.958  68.678  1.00  0.00    -0.128 C  
BRANCH  36  37
ATOM     37  CG  GLU A   1      -7.884   7.357  69.888  1.00  0.00    -0.115 C  
ATOM     38  CD  GLU A   1      -7.705   8.347  71.013  1.00  0.00    -0.097 C  
ATOM     39  OE2 GLU A   1      -8.075   9.508  70.995  1.00  0.00    -0.312 OA 
ATOM     40  OE1 GLU A   1      -7.083   7.798  72.081  1.00  0.00    -0.063 OA 
ENDBRANCH  36  37
ENDBRANCH  32  36
ENDBRANCH  30  32
ENDBRANCH  25  28
ENDBRANCH   9  17
TORSDOF 6
ENDMDL
MODEL      142
REMARK 921   NORMALIZED FREE ENERGY PREDICTED BY IDOCK:   -3.79 KCAL/MOL
REMARK 922        TOTAL FREE ENERGY PREDICTED BY IDOCK:   -6.54 KCAL/MOL
REMARK 923 INTER-LIGAND FREE ENERGY PREDICTED BY IDOCK:   -6.57 KCAL/MOL
REMARK 924 INTRA-LIGAND FREE ENERGY PREDICTED BY IDOCK:    0.04 KCAL/MOL
REMARK 927      BINDING AFFINITY PREDICTED BY RF-SCORE:    0.00 PKD
ROOT
HETATM    1  N   UNK A   0      -8.777  10.167  63.165  1.00  0.00    -0.189 NA 
HETATM    2  C   UNK A   0      -9.534  10.653  64.204  1.00  0.00    -0.281 A  
HETATM    3  H2  UNK A   0      -7.883   9.708  63.334  1.00  0.00     0.000 HD 
HETATM    4  H1  UNK A   0      -9.141  10.280  62.219  1.00  0.00     0.000 HD 
HETATM    5  N   UNK A   0      -9.060  10.505  65.437  1.00  0.00    -0.177 NA 
HETATM    6  C   UNK A   0      -9.831  10.899  66.449  1.00  0.00    -0.207 A  
HETATM    7  N   UNK A   0      -9.393  10.674  67.693  1.00  0.00    -0.146 NA 
HETATM    8  C   UNK A   0     -10.215  10.977  68.725  1.00  0.00    -0.198 A  
HETATM    9  C   UNK A   0     -11.477  11.524  68.548  1.00  0.00    -0.292 A  
HETATM   10  H2  UNK A   0     -12.690  13.161  65.022  1.00  0.00     0.000 HD 
HETATM   11  N   UNK A   0     -11.918  11.812  67.304  1.00  0.00    -0.607 NA 
HETATM   12  H1  UNK A   0     -12.938  12.336  63.610  1.00  0.00     0.000 HD 
HETATM   13  C   UNK A   0     -11.088  11.482  66.265  1.00  0.00    -0.263 A  
HETATM   14  C   UNK A   0     -11.455  11.616  64.932  1.00  0.00    -0.136 A  
HETATM   15  N   UNK A   0     -12.669  12.238  64.589  1.00  0.00    -0.635 NA 
HETATM   16  N   UNK A   0     -10.701  11.212  63.900  1.00  0.00    -0.378 NA 
ENDROOT
BRANCH   9  17
HETATM   17  C   UNK A   0     -12.446  11.698  69.692  1.00  0.00    -0.047 C  
HETATM   18  C   UNK A   0     -11.402   9.723  70.919  1.00  0.00    -0.439 A  
HETATM   19  C   UNK A   0     -12.254   8.704  70.456  1.00  0.00     0.199 A  
HETATM   20  C   UNK A   0     -10.059   9.413  71.175  1.00  0.00    -0.335 A  
HETATM   21  C   UNK A   0     -11.886  11.171  71.045  1.00  0.00    -0.128 C  
HETATM   22  C   UNK A   0      -9.550   8.151  70.860  1.00  0.00    -0.187 A  
HETATM   23  C   UNK A   0     -11.748   7.440  70.142  1.00  0.00    -0.028 A  
HETATM   24  C   UNK A   0     -12.902  11.290  72.197  1.00  0.00    -0.081 C  
HETATM   25  C   UNK A   0     -10.382   7.185  70.288  1.00  0.00    -0.214 A  
BRANCH  24  26
HETATM   26  C   UNK A   0     -13.350  12.671  72.452  1.00  0.00    -0.424 C  
HETATM   27  C   UNK A   0     -13.680  13.817  72.599  1.00  0.00    -0.566 C  
ENDBRANCH  24  26
BRANCH  25  28
HETATM   28  C   UNK A   0      -9.828   5.897  69.800  1.00  0.00    -0.169 C  
HETATM   29  O   UNK A   0     -10.558   5.028  69.340  1.00  0.00    -0.161 OA 
ATOM     30  N   GLU A   1      -8.441   5.777  69.853  1.00  0.00    -0.122 N  
ATOM     31  H   GLU A   1      -7.880   6.491  70.319  1.00  0.00     0.000 HD 
BRANCH  30  32
ATOM     32  CA  GLU A   1      -7.791   4.607  69.227  1.00  0.00    -0.063 C  
ATOM     33  O   GLU A   1      -7.570   3.987  71.554  1.00  0.00    -0.060 OA 
ATOM     34  C   GLU A   1      -7.606   3.502  70.287  1.00  0.00    -0.044 C  
ATOM     35  OXT GLU A   1      -7.359   2.333  70.029  1.00  0.00    -0.039 OA 
BRANCH  32  36
ATOM     36  CB  GLU A   1      -6.425   5.004  68.641  1.00  0.00    -0.037 C  
BRANCH  36  37
ATOM     37  CG  GLU A   1      -6.339   6.485  68.254  1.00  0.00    -0.037 C  
ATOM     38  CD  GLU A   1      -5.740   7.340  69.344  1.00  0.00    -0.023 C  
ATOM     39  OE2 GLU A   1      -5.362   6.936  70.430  1.00  0.00    -0.022 OA 
ATOM     40  OE1 GLU A   1      -5.651   8.641  68.981  1.00  0.00    -0.038 OA 
ENDBRANCH  36  37
ENDBRANCH  32  36
ENDBRANCH  30  32
ENDBRANCH  25  28
ENDBRANCH   9  17
TORSDOF 6
ENDMDL
MODEL      143
REMARK 921   NORMALIZED FREE ENERGY PREDICTED BY IDOCK:   -3.79 KCAL/MOL
REMARK 922        TOTAL FREE ENERGY PREDICTED BY IDOCK:   -6.53 KCAL/MOL
REMARK 923 INTER-LIGAND FREE ENERGY PREDICTED BY IDOCK:   -5.31 KCAL/MOL
REMARK 924 INTRA-LIGAND FREE ENERGY PREDICTED BY IDOCK:   -1.22 KCAL/MOL
REMARK 927      BINDING AFFINITY PREDICTED BY RF-SCORE:    0.00 PKD
ROOT
HETATM    1  N   UNK A   0      -6.540   7.174  62.331  1.00  0.00    -0.055 NA 
HETATM    2  C   UNK A   0      -6.877   7.097  63.661  1.00  0.00    -0.052 A  
HETATM    3  H2  UNK A   0      -5.853   7.851  62.000  1.00  0.00     0.000 HD 
HETATM    4  H1  UNK A   0      -7.001   6.532  61.686  1.00  0.00     0.000 HD 
HETATM    5  N   UNK A   0      -6.277   7.933  64.502  1.00  0.00    -0.052 NA 
HETATM    6  C   UNK A   0      -6.538   7.801  65.801  1.00  0.00    -0.045 A  
HETATM    7  N   UNK A   0      -5.872   8.584  66.656  1.00  0.00    -0.047 NA 
HETATM    8  C   UNK A   0      -6.055   8.385  67.982  1.00  0.00    -0.051 A  
HETATM    9  C   UNK A   0      -6.915   7.422  68.487  1.00  0.00    -0.079 A  
HETATM   10  H2  UNK A   0      -9.728   5.566  66.201  1.00  0.00     0.000 HD 
HETATM   11  N   UNK A   0      -7.641   6.657  67.643  1.00  0.00    -0.104 NA 
HETATM   12  H1  UNK A   0      -9.422   4.523  64.954  1.00  0.00     0.000 HD 
HETATM   13  C   UNK A   0      -7.433   6.851  66.304  1.00  0.00    -0.077 A  
HETATM   14  C   UNK A   0      -8.024   6.063  65.324  1.00  0.00    -0.117 A  
HETATM   15  N   UNK A   0      -8.988   5.101  65.673  1.00  0.00    -0.152 NA 
HETATM   16  N   UNK A   0      -7.761   6.169  64.014  1.00  0.00    -0.101 NA 
ENDROOT
BRANCH   9  17
HETATM   17  C   UNK A   0      -6.983   7.097  69.960  1.00  0.00    -0.061 C  
HETATM   18  C   UNK A   0      -9.364   8.000  70.083  1.00  0.00    -0.156 A  
HETATM   19  C   UNK A   0      -9.075   9.321  70.469  1.00  0.00    -0.307 A  
HETATM   20  C   UNK A   0     -10.473   7.767  69.258  1.00  0.00    -0.221 A  
HETATM   21  C   UNK A   0      -8.435   6.840  70.457  1.00  0.00    -0.138 C  
HETATM   22  C   UNK A   0     -11.202   8.835  68.732  1.00  0.00     0.368 A  
HETATM   23  C   UNK A   0      -9.804  10.392  69.945  1.00  0.00    -0.052 A  
HETATM   24  C   UNK A   0      -8.508   6.573  71.972  1.00  0.00    -0.114 C  
HETATM   25  C   UNK A   0     -10.830  10.148  69.027  1.00  0.00    -0.257 A  
BRANCH  24  26
HETATM   26  C   UNK A   0      -7.717   5.408  72.408  1.00  0.00    -0.102 C  
HETATM   27  C   UNK A   0      -7.061   4.493  72.827  1.00  0.00    -0.076 C  
ENDBRANCH  24  26
BRANCH  25  28
HETATM   28  C   UNK A   0     -11.490  11.295  68.355  1.00  0.00    -0.307 C  
HETATM   29  O   UNK A   0     -12.261  12.027  68.962  1.00  0.00    -0.216 OA 
ATOM     30  N   GLU A   1     -11.130  11.505  67.025  1.00  0.00    -0.293 N  
ATOM     31  H   GLU A   1     -10.548  10.824  66.536  1.00  0.00     0.000 HD 
BRANCH  30  32
ATOM     32  CA  GLU A   1     -11.598  12.722  66.331  1.00  0.00    -0.378 C  
ATOM     33  O   GLU A   1     -11.326  11.260  64.425  1.00  0.00    -0.222 OA 
ATOM     34  C   GLU A   1     -11.966  12.369  64.877  1.00  0.00    -0.398 C  
ATOM     35  OXT GLU A   1     -12.634  13.081  64.142  1.00  0.00    -0.619 OA 
BRANCH  32  36
ATOM     36  CB  GLU A   1     -10.501  13.801  66.346  1.00  0.00    -0.284 C  
BRANCH  36  37
ATOM     37  CG  GLU A   1      -9.583  13.715  67.572  1.00  0.00    -0.220 C  
ATOM     38  CD  GLU A   1      -8.419  12.776  67.366  1.00  0.00    -0.191 C  
ATOM     39  OE2 GLU A   1      -8.204  12.132  66.353  1.00  0.00    -0.014 OA 
ATOM     40  OE1 GLU A   1      -7.606  12.726  68.446  1.00  0.00    -0.122 OA 
ENDBRANCH  36  37
ENDBRANCH  32  36
ENDBRANCH  30  32
ENDBRANCH  25  28
ENDBRANCH   9  17
TORSDOF 6
ENDMDL
MODEL      144
REMARK 921   NORMALIZED FREE ENERGY PREDICTED BY IDOCK:   -3.73 KCAL/MOL
REMARK 922        TOTAL FREE ENERGY PREDICTED BY IDOCK:   -6.45 KCAL/MOL
REMARK 923 INTER-LIGAND FREE ENERGY PREDICTED BY IDOCK:   -6.88 KCAL/MOL
REMARK 924 INTRA-LIGAND FREE ENERGY PREDICTED BY IDOCK:    0.43 KCAL/MOL
REMARK 927      BINDING AFFINITY PREDICTED BY RF-SCORE:    0.00 PKD
ROOT
HETATM    1  N   UNK A   0     -12.756  12.724  70.814  1.00  0.00    -0.197 NA 
HETATM    2  C   UNK A   0     -12.488  11.393  71.028  1.00  0.00    -0.383 A  
HETATM    3  H2  UNK A   0     -12.101  13.318  70.306  1.00  0.00     0.000 HD 
HETATM    4  H1  UNK A   0     -13.631  13.098  71.181  1.00  0.00     0.000 HD 
HETATM    5  N   UNK A   0     -11.348  10.906  70.550  1.00  0.00    -0.232 NA 
HETATM    6  C   UNK A   0     -11.128   9.599  70.682  1.00  0.00    -0.319 A  
HETATM    7  N   UNK A   0     -10.021   9.092  70.127  1.00  0.00    -0.187 NA 
HETATM    8  C   UNK A   0      -9.842   7.751  70.167  1.00  0.00    -0.184 A  
HETATM    9  C   UNK A   0     -10.744   6.888  70.773  1.00  0.00    -0.233 A  
HETATM   10  H2  UNK A   0     -13.658   8.176  73.309  1.00  0.00     0.000 HD 
HETATM   11  N   UNK A   0     -11.840   7.383  71.388  1.00  0.00    -0.287 NA 
HETATM   12  H1  UNK A   0     -14.957   9.110  72.890  1.00  0.00     0.000 HD 
HETATM   13  C   UNK A   0     -12.024   8.738  71.323  1.00  0.00    -0.301 A  
HETATM   14  C   UNK A   0     -13.159   9.372  71.812  1.00  0.00    -0.409 A  
HETATM   15  N   UNK A   0     -14.123   8.645  72.531  1.00  0.00    -0.399 NA 
HETATM   16  N   UNK A   0     -13.406  10.682  71.675  1.00  0.00    -0.349 NA 
ENDROOT
BRANCH   9  17
HETATM   17  C   UNK A   0     -10.619   5.388  70.663  1.00  0.00    -0.302 C  
HETATM   18  C   UNK A   0      -8.648   5.636  69.065  1.00  0.00    -0.105 A  
HETATM   19  C   UNK A   0      -9.349   5.587  67.847  1.00  0.00    -0.117 A  
HETATM   20  C   UNK A   0      -7.499   6.434  69.150  1.00  0.00    -0.095 A  
HETATM   21  C   UNK A   0      -9.174   4.925  70.316  1.00  0.00    -0.192 C  
HETATM   22  C   UNK A   0      -7.128   7.258  68.085  1.00  0.00    -0.081 A  
HETATM   23  C   UNK A   0      -8.978   6.409  66.779  1.00  0.00    -0.134 A  
HETATM   24  C   UNK A   0      -9.065   3.398  70.141  1.00  0.00    -0.203 C  
HETATM   25  C   UNK A   0      -7.902   7.290  66.923  1.00  0.00    -0.111 A  
BRANCH  24  26
HETATM   26  C   UNK A   0      -9.461   2.633  71.337  1.00  0.00    -0.215 C  
HETATM   27  C   UNK A   0      -9.775   2.072  72.351  1.00  0.00    -0.180 C  
ENDBRANCH  24  26
BRANCH  25  28
HETATM   28  C   UNK A   0      -7.618   8.271  65.846  1.00  0.00    -0.082 C  
HETATM   29  O   UNK A   0      -6.481   8.679  65.646  1.00  0.00    -0.055 OA 
ATOM     30  N   GLU A   1      -8.709   8.641  65.063  1.00  0.00    -0.332 N  
ATOM     31  H   GLU A   1      -9.651   8.340  65.316  1.00  0.00     0.000 HD 
BRANCH  30  32
ATOM     32  CA  GLU A   1      -8.489   9.472  63.861  1.00  0.00    -0.190 C  
ATOM     33  O   GLU A   1     -10.631  10.348  64.561  1.00  0.00    -0.149 OA 
ATOM     34  C   GLU A   1      -9.511  10.626  63.848  1.00  0.00    -0.282 C  
ATOM     35  OXT GLU A   1      -9.414  11.626  63.150  1.00  0.00    -0.345 OA 
BRANCH  32  36
ATOM     36  CB  GLU A   1      -8.642   8.622  62.588  1.00  0.00    -0.117 C  
BRANCH  36  37
ATOM     37  CG  GLU A   1      -7.451   7.691  62.333  1.00  0.00    -0.098 C  
ATOM     38  CD  GLU A   1      -7.706   6.276  62.788  1.00  0.00    -0.088 C  
ATOM     39  OE2 GLU A   1      -8.732   5.879  63.314  1.00  0.00     0.101 OA 
ATOM     40  OE1 GLU A   1      -6.656   5.461  62.538  1.00  0.00    -0.025 OA 
ENDBRANCH  36  37
ENDBRANCH  32  36
ENDBRANCH  30  32
ENDBRANCH  25  28
ENDBRANCH   9  17
TORSDOF 6
ENDMDL
MODEL      145
REMARK 921   NORMALIZED FREE ENERGY PREDICTED BY IDOCK:   -3.73 KCAL/MOL
REMARK 922        TOTAL FREE ENERGY PREDICTED BY IDOCK:   -6.45 KCAL/MOL
REMARK 923 INTER-LIGAND FREE ENERGY PREDICTED BY IDOCK:   -7.22 KCAL/MOL
REMARK 924 INTRA-LIGAND FREE ENERGY PREDICTED BY IDOCK:    0.77 KCAL/MOL
REMARK 927      BINDING AFFINITY PREDICTED BY RF-SCORE:    0.00 PKD
ROOT
HETATM    1  N   UNK A   0      -5.967  15.156  70.680  1.00  0.00    -0.082 NA 
HETATM    2  C   UNK A   0      -5.889  13.829  70.329  1.00  0.00    -0.152 A  
HETATM    3  H2  UNK A   0      -6.195  15.871  69.990  1.00  0.00     0.000 HD 
HETATM    4  H1  UNK A   0      -5.789  15.400  71.654  1.00  0.00     0.000 HD 
HETATM    5  N   UNK A   0      -6.121  13.510  69.060  1.00  0.00    -0.081 NA 
HETATM    6  C   UNK A   0      -6.131  12.218  68.737  1.00  0.00    -0.068 A  
HETATM    7  N   UNK A   0      -6.447  11.891  67.479  1.00  0.00    -0.096 NA 
HETATM    8  C   UNK A   0      -6.560  10.577  67.169  1.00  0.00    -0.074 A  
HETATM    9  C   UNK A   0      -6.343   9.565  68.091  1.00  0.00    -0.057 A  
HETATM   10  H2  UNK A   0      -4.488  10.198  71.661  1.00  0.00     0.000 HD 
HETATM   11  N   UNK A   0      -5.967   9.870  69.352  1.00  0.00    -0.037 NA 
HETATM   12  H1  UNK A   0      -5.087  11.099  72.912  1.00  0.00     0.000 HD 
HETATM   13  C   UNK A   0      -5.877  11.201  69.662  1.00  0.00    -0.073 A  
HETATM   14  C   UNK A   0      -5.611  11.663  70.945  1.00  0.00    -0.069 A  
HETATM   15  N   UNK A   0      -5.282  10.759  71.970  1.00  0.00    -0.310 NA 
HETATM   16  N   UNK A   0      -5.614  12.957  71.294  1.00  0.00    -0.360 NA 
ENDROOT
BRANCH   9  17
HETATM   17  C   UNK A   0      -6.636   8.117  67.779  1.00  0.00    -0.057 C  
HETATM   18  C   UNK A   0      -7.582   8.765  65.503  1.00  0.00    -0.087 A  
HETATM   19  C   UNK A   0      -8.938   8.881  65.856  1.00  0.00    -0.244 A  
HETATM   20  C   UNK A   0      -7.071   9.610  64.508  1.00  0.00    -0.121 A  
HETATM   21  C   UNK A   0      -6.642   7.816  66.253  1.00  0.00    -0.050 C  
HETATM   22  C   UNK A   0      -7.860  10.627  63.968  1.00  0.00     0.131 A  
HETATM   23  C   UNK A   0      -9.731   9.897  65.315  1.00  0.00    -0.383 A  
HETATM   24  C   UNK A   0      -7.005   6.353  65.936  1.00  0.00    -0.061 C  
HETATM   25  C   UNK A   0      -9.171  10.808  64.415  1.00  0.00    -0.250 A  
BRANCH  24  26
HETATM   26  C   UNK A   0      -6.089   5.369  66.541  1.00  0.00    -0.030 C  
HETATM   27  C   UNK A   0      -5.330   4.541  66.966  1.00  0.00    -0.013 C  
ENDBRANCH  24  26
BRANCH  25  28
HETATM   28  C   UNK A   0      -9.972  11.976  63.972  1.00  0.00    -0.291 C  
HETATM   29  O   UNK A   0     -10.669  11.921  62.967  1.00  0.00    -0.288 OA 
ATOM     30  N   GLU A   1      -9.915  13.096  64.799  1.00  0.00    -0.578 N  
ATOM     31  H   GLU A   1      -9.258  13.127  65.579  1.00  0.00     0.000 HD 
BRANCH  30  32
ATOM     32  CA  GLU A   1     -10.814  14.238  64.533  1.00  0.00    -0.288 C  
ATOM     33  O   GLU A   1      -9.270  15.297  66.063  1.00  0.00    -0.313 OA 
ATOM     34  C   GLU A   1     -10.168  15.530  65.072  1.00  0.00    -0.216 C  
ATOM     35  OXT GLU A   1     -10.524  16.659  64.766  1.00  0.00    -0.587 OA 
BRANCH  32  36
ATOM     36  CB  GLU A   1     -12.177  14.013  65.211  1.00  0.00    -0.451 C  
BRANCH  36  37
ATOM     37  CG  GLU A   1     -12.274  12.672  65.947  1.00  0.00    -0.375 C  
ATOM     38  CD  GLU A   1     -11.819  12.759  67.383  1.00  0.00    -0.342 C  
ATOM     39  OE2 GLU A   1     -11.405  13.766  67.931  1.00  0.00    -0.271 OA 
ATOM     40  OE1 GLU A   1     -11.929  11.574  68.027  1.00  0.00    -0.595 OA 
ENDBRANCH  36  37
ENDBRANCH  32  36
ENDBRANCH  30  32
ENDBRANCH  25  28
ENDBRANCH   9  17
TORSDOF 6
ENDMDL
MODEL      146
REMARK 921   NORMALIZED FREE ENERGY PREDICTED BY IDOCK:   -3.71 KCAL/MOL
REMARK 922        TOTAL FREE ENERGY PREDICTED BY IDOCK:   -6.43 KCAL/MOL
REMARK 923 INTER-LIGAND FREE ENERGY PREDICTED BY IDOCK:   -6.09 KCAL/MOL
REMARK 924 INTRA-LIGAND FREE ENERGY PREDICTED BY IDOCK:   -0.33 KCAL/MOL
REMARK 927      BINDING AFFINITY PREDICTED BY RF-SCORE:    0.00 PKD
ROOT
HETATM    1  N   UNK A   0      -5.143  16.427  66.291  1.00  0.00     0.166 NA 
HETATM    2  C   UNK A   0      -6.387  16.544  66.862  1.00  0.00    -0.131 A  
HETATM    3  H2  UNK A   0      -4.403  15.891  66.744  1.00  0.00     0.000 HD 
HETATM    4  H1  UNK A   0      -4.985  16.893  65.398  1.00  0.00     0.000 HD 
HETATM    5  N   UNK A   0      -6.594  15.936  68.026  1.00  0.00    -0.121 NA 
HETATM    6  C   UNK A   0      -7.822  15.977  68.538  1.00  0.00    -0.160 A  
HETATM    7  N   UNK A   0      -8.053  15.295  69.666  1.00  0.00    -0.199 NA 
HETATM    8  C   UNK A   0      -9.322  15.247  70.136  1.00  0.00     0.365 A  
HETATM    9  C   UNK A   0     -10.381  15.888  69.511  1.00  0.00    -0.277 A  
HETATM   10  H2  UNK A   0      -9.853  18.751  66.664  1.00  0.00     0.000 HD 
HETATM   11  N   UNK A   0     -10.163  16.628  68.403  1.00  0.00    -0.268 NA 
HETATM   12  H1  UNK A   0      -9.218  18.506  65.157  1.00  0.00     0.000 HD 
HETATM   13  C   UNK A   0      -8.881  16.653  67.923  1.00  0.00    -0.205 A  
HETATM   14  C   UNK A   0      -8.530  17.279  66.733  1.00  0.00    -0.247 A  
HETATM   15  N   UNK A   0      -9.475  18.047  66.030  1.00  0.00    -0.523 NA 
HETATM   16  N   UNK A   0      -7.304  17.236  66.193  1.00  0.00    -0.304 NA 
ENDROOT
BRANCH   9  17
HETATM   17  C   UNK A   0     -11.813  15.687  69.948  1.00  0.00    -0.374 C  
HETATM   18  C   UNK A   0     -11.649  13.193  69.450  1.00  0.00    -0.360 A  
HETATM   19  C   UNK A   0     -12.136  13.202  68.132  1.00  0.00    -0.224 A  
HETATM   20  C   UNK A   0     -10.668  12.254  69.800  1.00  0.00     0.542 A  
HETATM   21  C   UNK A   0     -12.090  14.248  70.470  1.00  0.00    -0.413 C  
HETATM   22  C   UNK A   0     -10.100  11.428  68.828  1.00  0.00    -0.199 A  
HETATM   23  C   UNK A   0     -11.571  12.375  67.157  1.00  0.00    -0.435 A  
HETATM   24  C   UNK A   0     -13.566  14.028  70.854  1.00  0.00    -0.002 C  
HETATM   25  C   UNK A   0     -10.509  11.531  67.496  1.00  0.00    -0.229 A  
BRANCH  24  26
HETATM   26  C   UNK A   0     -14.049  14.942  71.905  1.00  0.00    -0.613 C  
HETATM   27  C   UNK A   0     -14.375  15.684  72.791  1.00  0.00    -0.049 C  
ENDBRANCH  24  26
BRANCH  25  28
HETATM   28  C   UNK A   0      -9.809  10.779  66.425  1.00  0.00    -0.209 C  
HETATM   29  O   UNK A   0      -9.558  11.301  65.346  1.00  0.00    -0.216 OA 
ATOM     30  N   GLU A   1      -9.419   9.483  66.753  1.00  0.00    -0.158 N  
ATOM     31  H   GLU A   1      -9.721   9.061  67.632  1.00  0.00     0.000 HD 
BRANCH  30  32
ATOM     32  CA  GLU A   1      -8.565   8.725  65.815  1.00  0.00    -0.164 C  
ATOM     33  O   GLU A   1      -9.215   6.929  67.298  1.00  0.00    -0.124 OA 
ATOM     34  C   GLU A   1      -8.769   7.215  66.049  1.00  0.00    -0.147 C  
ATOM     35  OXT GLU A   1      -8.425   6.343  65.264  1.00  0.00    -0.149 OA 
BRANCH  32  36
ATOM     36  CB  GLU A   1      -7.085   9.091  66.026  1.00  0.00    -0.085 C  
BRANCH  36  37
ATOM     37  CG  GLU A   1      -6.804  10.591  65.873  1.00  0.00    -0.132 C  
ATOM     38  CD  GLU A   1      -6.030  11.162  67.036  1.00  0.00    -0.091 C  
ATOM     39  OE2 GLU A   1      -5.658  10.534  68.012  1.00  0.00    -0.040 OA 
ATOM     40  OE1 GLU A   1      -5.771  12.481  66.878  1.00  0.00    -0.319 OA 
ENDBRANCH  36  37
ENDBRANCH  32  36
ENDBRANCH  30  32
ENDBRANCH  25  28
ENDBRANCH   9  17
TORSDOF 6
ENDMDL
MODEL      147
REMARK 921   NORMALIZED FREE ENERGY PREDICTED BY IDOCK:   -3.71 KCAL/MOL
REMARK 922        TOTAL FREE ENERGY PREDICTED BY IDOCK:   -6.42 KCAL/MOL
REMARK 923 INTER-LIGAND FREE ENERGY PREDICTED BY IDOCK:   -5.03 KCAL/MOL
REMARK 924 INTRA-LIGAND FREE ENERGY PREDICTED BY IDOCK:   -1.39 KCAL/MOL
REMARK 927      BINDING AFFINITY PREDICTED BY RF-SCORE:    0.00 PKD
ROOT
HETATM    1  N   UNK A   0      -5.137   8.191  63.624  1.00  0.00    -0.041 NA 
HETATM    2  C   UNK A   0      -6.138   9.062  63.981  1.00  0.00    -0.072 A  
HETATM    3  H2  UNK A   0      -4.274   8.131  64.163  1.00  0.00     0.000 HD 
HETATM    4  H1  UNK A   0      -5.287   7.605  62.802  1.00  0.00     0.000 HD 
HETATM    5  N   UNK A   0      -5.943   9.824  65.052  1.00  0.00    -0.082 NA 
HETATM    6  C   UNK A   0      -6.946  10.606  65.448  1.00  0.00    -0.013 A  
HETATM    7  N   UNK A   0      -6.783  11.310  66.573  1.00  0.00    -0.130 NA 
HETATM    8  C   UNK A   0      -7.834  12.026  67.038  1.00  0.00    -0.138 A  
HETATM    9  C   UNK A   0      -9.058  12.075  66.388  1.00  0.00    -0.193 A  
HETATM   10  H2  UNK A   0      -9.560  10.835  62.542  1.00  0.00     0.000 HD 
HETATM   11  N   UNK A   0      -9.228  11.418  65.220  1.00  0.00    -0.176 NA 
HETATM   12  H1  UNK A   0      -9.429   9.275  62.007  1.00  0.00     0.000 HD 
HETATM   13  C   UNK A   0      -8.167  10.679  64.770  1.00  0.00    -0.038 A  
HETATM   14  C   UNK A   0      -8.234   9.864  63.647  1.00  0.00    -0.157 A  
HETATM   15  N   UNK A   0      -9.380   9.874  62.831  1.00  0.00    -0.269 NA 
HETATM   16  N   UNK A   0      -7.243   9.058  63.241  1.00  0.00    -0.092 NA 
ENDROOT
BRANCH   9  17
HETATM   17  C   UNK A   0     -10.269  12.737  67.002  1.00  0.00    -0.245 C  
HETATM   18  C   UNK A   0     -10.433  10.888  68.749  1.00  0.00    -0.224 A  
HETATM   19  C   UNK A   0     -11.334  10.039  68.082  1.00  0.00    -0.100 A  
HETATM   20  C   UNK A   0      -9.451  10.317  69.570  1.00  0.00    -0.207 A  
HETATM   21  C   UNK A   0     -10.441  12.402  68.511  1.00  0.00    -0.244 C  
HETATM   22  C   UNK A   0      -9.293   8.931  69.627  1.00  0.00    -0.163 A  
HETATM   23  C   UNK A   0     -11.180   8.651  68.139  1.00  0.00     0.508 A  
HETATM   24  C   UNK A   0     -11.712  13.025  69.118  1.00  0.00    -0.378 C  
HETATM   25  C   UNK A   0     -10.119   8.101  68.865  1.00  0.00    -0.211 A  
BRANCH  24  26
HETATM   26  C   UNK A   0     -11.758  14.495  69.020  1.00  0.00    -0.346 C  
HETATM   27  C   UNK A   0     -11.863  15.691  68.968  1.00  0.00    -0.379 C  
ENDBRANCH  24  26
BRANCH  25  28
HETATM   28  C   UNK A   0      -9.867   6.641  68.788  1.00  0.00    -0.138 C  
HETATM   29  O   UNK A   0     -10.615   5.840  69.334  1.00  0.00    -0.257 OA 
ATOM     30  N   GLU A   1      -8.771   6.256  68.018  1.00  0.00    -0.115 N  
ATOM     31  H   GLU A   1      -8.129   6.959  67.650  1.00  0.00     0.000 HD 
BRANCH  30  32
ATOM     32  CA  GLU A   1      -8.549   4.822  67.740  1.00  0.00    -0.103 C  
ATOM     33  O   GLU A   1      -6.356   5.408  68.572  1.00  0.00    -0.032 OA 
ATOM     34  C   GLU A   1      -7.221   4.379  68.385  1.00  0.00    -0.060 C  
ATOM     35  OXT GLU A   1      -6.898   3.215  68.570  1.00  0.00    -0.044 OA 
BRANCH  32  36
ATOM     36  CB  GLU A   1      -8.502   4.574  66.222  1.00  0.00    -0.113 C  
BRANCH  36  37
ATOM     37  CG  GLU A   1      -9.888   4.571  65.565  1.00  0.00    -0.219 C  
ATOM     38  CD  GLU A   1     -10.026   3.516  64.496  1.00  0.00    -0.171 C  
ATOM     39  OE2 GLU A   1      -9.152   2.737  64.157  1.00  0.00    -0.103 OA 
ATOM     40  OE1 GLU A   1     -11.259   3.511  63.939  1.00  0.00    -0.286 OA 
ENDBRANCH  36  37
ENDBRANCH  32  36
ENDBRANCH  30  32
ENDBRANCH  25  28
ENDBRANCH   9  17
TORSDOF 6
ENDMDL
MODEL      148
REMARK 921   NORMALIZED FREE ENERGY PREDICTED BY IDOCK:   -3.70 KCAL/MOL
REMARK 922        TOTAL FREE ENERGY PREDICTED BY IDOCK:   -6.41 KCAL/MOL
REMARK 923 INTER-LIGAND FREE ENERGY PREDICTED BY IDOCK:   -5.49 KCAL/MOL
REMARK 924 INTRA-LIGAND FREE ENERGY PREDICTED BY IDOCK:   -0.93 KCAL/MOL
REMARK 927      BINDING AFFINITY PREDICTED BY RF-SCORE:    0.00 PKD
ROOT
HETATM    1  N   UNK A   0     -13.231  14.047  65.585  1.00  0.00    -0.664 NA 
HETATM    2  C   UNK A   0     -12.341  13.029  65.340  1.00  0.00    -0.486 A  
HETATM    3  H2  UNK A   0     -13.854  14.019  66.391  1.00  0.00     0.000 HD 
HETATM    4  H1  UNK A   0     -13.247  14.831  64.933  1.00  0.00     0.000 HD 
HETATM    5  N   UNK A   0     -12.320  12.007  66.191  1.00  0.00    -0.189 NA 
HETATM    6  C   UNK A   0     -11.400  11.063  66.003  1.00  0.00     0.269 A  
HETATM    7  N   UNK A   0     -11.322  10.078  66.905  1.00  0.00     0.153 NA 
HETATM    8  C   UNK A   0     -10.323   9.172  66.778  1.00  0.00    -0.238 A  
HETATM    9  C   UNK A   0      -9.397   9.212  65.747  1.00  0.00    -0.245 A  
HETATM   10  H2  UNK A   0      -9.925  11.470  62.399  1.00  0.00     0.000 HD 
HETATM   11  N   UNK A   0      -9.490  10.164  64.793  1.00  0.00    -0.272 NA 
HETATM   12  H1  UNK A   0      -9.937  13.123  62.343  1.00  0.00     0.000 HD 
HETATM   13  C   UNK A   0     -10.490  11.088  64.942  1.00  0.00    -0.303 A  
HETATM   14  C   UNK A   0     -10.637  12.185  64.102  1.00  0.00    -0.365 A  
HETATM   15  N   UNK A   0      -9.829  12.317  62.959  1.00  0.00    -0.153 NA 
HETATM   16  N   UNK A   0     -11.545  13.154  64.284  1.00  0.00    -0.372 NA 
ENDROOT
BRANCH   9  17
HETATM   17  C   UNK A   0      -8.193   8.302  65.712  1.00  0.00    -0.123 C  
HETATM   18  C   UNK A   0      -7.236   9.434  67.786  1.00  0.00    -0.083 A  
HETATM   19  C   UNK A   0      -6.428  10.396  67.155  1.00  0.00    -0.072 A  
HETATM   20  C   UNK A   0      -7.839   9.758  69.010  1.00  0.00    -0.087 A  
HETATM   21  C   UNK A   0      -7.551   8.093  67.114  1.00  0.00    -0.096 C  
HETATM   22  C   UNK A   0      -7.738  11.050  69.529  1.00  0.00     0.039 A  
HETATM   23  C   UNK A   0      -6.323  11.689  67.674  1.00  0.00    -0.072 A  
HETATM   24  C   UNK A   0      -6.285   7.217  67.065  1.00  0.00    -0.049 C  
HETATM   25  C   UNK A   0      -7.030  12.031  68.830  1.00  0.00    -0.104 A  
BRANCH  24  26
HETATM   26  C   UNK A   0      -6.518   5.867  66.520  1.00  0.00    -0.047 C  
HETATM   27  C   UNK A   0      -6.766   4.795  66.038  1.00  0.00    -0.050 C  
ENDBRANCH  24  26
BRANCH  25  28
HETATM   28  C   UNK A   0      -7.043  13.445  69.281  1.00  0.00     0.060 C  
HETATM   29  O   UNK A   0      -6.605  13.763  70.380  1.00  0.00     0.016 OA 
ATOM     30  N   GLU A   1      -7.529  14.369  68.359  1.00  0.00    -0.110 N  
ATOM     31  H   GLU A   1      -7.960  14.052  67.490  1.00  0.00     0.000 HD 
BRANCH  30  32
ATOM     32  CA  GLU A   1      -7.416  15.813  68.652  1.00  0.00    -0.151 C  
ATOM     33  O   GLU A   1      -8.192  15.933  66.366  1.00  0.00    -0.283 OA 
ATOM     34  C   GLU A   1      -8.115  16.615  67.537  1.00  0.00    -0.168 C  
ATOM     35  OXT GLU A   1      -8.432  17.792  67.628  1.00  0.00    -0.225 OA 
BRANCH  32  36
ATOM     36  CB  GLU A   1      -5.936  16.224  68.743  1.00  0.00    -0.115 C  
BRANCH  36  37
ATOM     37  CG  GLU A   1      -5.578  16.913  70.065  1.00  0.00    -0.222 C  
ATOM     38  CD  GLU A   1      -5.536  18.417  69.948  1.00  0.00    -0.234 C  
ATOM     39  OE2 GLU A   1      -5.749  19.051  68.929  1.00  0.00    -0.202 OA 
ATOM     40  OE1 GLU A   1      -5.240  19.013  71.126  1.00  0.00    -0.248 OA 
ENDBRANCH  36  37
ENDBRANCH  32  36
ENDBRANCH  30  32
ENDBRANCH  25  28
ENDBRANCH   9  17
TORSDOF 6
ENDMDL
MODEL      149
REMARK 921   NORMALIZED FREE ENERGY PREDICTED BY IDOCK:   -3.66 KCAL/MOL
REMARK 922        TOTAL FREE ENERGY PREDICTED BY IDOCK:   -6.36 KCAL/MOL
REMARK 923 INTER-LIGAND FREE ENERGY PREDICTED BY IDOCK:   -5.69 KCAL/MOL
REMARK 924 INTRA-LIGAND FREE ENERGY PREDICTED BY IDOCK:   -0.67 KCAL/MOL
REMARK 927      BINDING AFFINITY PREDICTED BY RF-SCORE:    0.00 PKD
ROOT
HETATM    1  N   UNK A   0     -13.374   8.566  72.893  1.00  0.00    -0.703 NA 
HETATM    2  C   UNK A   0     -12.538   8.636  71.804  1.00  0.00    -0.349 A  
HETATM    3  H2  UNK A   0     -13.582   9.393  73.452  1.00  0.00     0.000 HD 
HETATM    4  H1  UNK A   0     -13.781   7.659  73.121  1.00  0.00     0.000 HD 
HETATM    5  N   UNK A   0     -12.008   9.818  71.506  1.00  0.00    -0.395 NA 
HETATM    6  C   UNK A   0     -11.267   9.905  70.403  1.00  0.00    -0.313 A  
HETATM    7  N   UNK A   0     -10.803  11.111  70.055  1.00  0.00    -0.031 NA 
HETATM    8  C   UNK A   0     -10.137  11.226  68.882  1.00  0.00    -0.170 A  
HETATM    9  C   UNK A   0      -9.901  10.148  68.041  1.00  0.00    -0.148 A  
HETATM   10  H2  UNK A   0     -10.346   6.282  69.241  1.00  0.00     0.000 HD 
HETATM   11  N   UNK A   0     -10.310   8.912  68.399  1.00  0.00    -0.200 NA 
HETATM   12  H1  UNK A   0     -11.777   5.555  69.638  1.00  0.00     0.000 HD 
HETATM   13  C   UNK A   0     -11.002   8.809  69.576  1.00  0.00    -0.068 A  
HETATM   14  C   UNK A   0     -11.579   7.624  70.015  1.00  0.00     0.093 A  
HETATM   15  N   UNK A   0     -11.353   6.425  69.316  1.00  0.00    -0.378 NA 
HETATM   16  N   UNK A   0     -12.342   7.519  71.112  1.00  0.00    -0.313 NA 
ENDROOT
BRANCH   9  17
HETATM   17  C   UNK A   0      -9.309  10.318  66.663  1.00  0.00    -0.192 C  
HETATM   18  C   UNK A   0      -8.190   8.033  66.827  1.00  0.00    -0.111 A  
HETATM   19  C   UNK A   0      -6.940   8.439  67.327  1.00  0.00    -0.075 A  
HETATM   20  C   UNK A   0      -8.704   6.791  67.225  1.00  0.00    -0.119 A  
HETATM   21  C   UNK A   0      -9.037   8.962  65.950  1.00  0.00    -0.271 C  
HETATM   22  C   UNK A   0      -8.046   6.029  68.192  1.00  0.00    -0.110 A  
HETATM   23  C   UNK A   0      -6.278   7.677  68.294  1.00  0.00    -0.040 A  
HETATM   24  C   UNK A   0      -8.373   9.137  64.571  1.00  0.00    -0.175 C  
HETATM   25  C   UNK A   0      -6.865   6.500  68.769  1.00  0.00    -0.070 A  
BRANCH  24  26
HETATM   26  C   UNK A   0      -9.170   9.940  63.626  1.00  0.00    -0.283 C  
HETATM   27  C   UNK A   0      -9.873  10.546  62.864  1.00  0.00    -0.224 C  
ENDBRANCH  24  26
BRANCH  25  28
HETATM   28  C   UNK A   0      -6.237   5.785  69.908  1.00  0.00    -0.026 C  
HETATM   29  O   UNK A   0      -5.127   5.277  69.801  1.00  0.00    -0.003 OA 
ATOM     30  N   GLU A   1      -6.964   5.784  71.096  1.00  0.00    -0.065 N  
ATOM     31  H   GLU A   1      -7.917   6.147  71.117  1.00  0.00     0.000 HD 
BRANCH  30  32
ATOM     32  CA  GLU A   1      -6.340   5.252  72.326  1.00  0.00    -0.035 C  
ATOM     33  O   GLU A   1      -8.307   3.848  72.239  1.00  0.00    -0.090 OA 
ATOM     34  C   GLU A   1      -7.043   3.939  72.724  1.00  0.00    -0.053 C  
ATOM     35  OXT GLU A   1      -6.589   3.127  73.518  1.00  0.00    -0.027 OA 
BRANCH  32  36
ATOM     36  CB  GLU A   1      -6.456   6.275  73.469  1.00  0.00    -0.066 C  
BRANCH  36  37
ATOM     37  CG  GLU A   1      -7.034   7.623  73.020  1.00  0.00    -0.081 C  
ATOM     38  CD  GLU A   1      -8.541   7.661  73.079  1.00  0.00    -0.148 C  
ATOM     39  OE2 GLU A   1      -9.257   6.740  73.432  1.00  0.00    -0.130 OA 
ATOM     40  OE1 GLU A   1      -9.037   8.862  72.701  1.00  0.00    -0.321 OA 
ENDBRANCH  36  37
ENDBRANCH  32  36
ENDBRANCH  30  32
ENDBRANCH  25  28
ENDBRANCH   9  17
TORSDOF 6
ENDMDL
MODEL      150
REMARK 921   NORMALIZED FREE ENERGY PREDICTED BY IDOCK:   -3.66 KCAL/MOL
REMARK 922        TOTAL FREE ENERGY PREDICTED BY IDOCK:   -6.36 KCAL/MOL
REMARK 923 INTER-LIGAND FREE ENERGY PREDICTED BY IDOCK:   -5.76 KCAL/MOL
REMARK 924 INTRA-LIGAND FREE ENERGY PREDICTED BY IDOCK:   -0.59 KCAL/MOL
REMARK 927      BINDING AFFINITY PREDICTED BY RF-SCORE:    0.00 PKD
ROOT
HETATM    1  N   UNK A   0     -11.965  13.225  63.553  1.00  0.00    -0.715 NA 
HETATM    2  C   UNK A   0     -11.003  12.265  63.755  1.00  0.00    -0.435 A  
HETATM    3  H2  UNK A   0     -12.798  13.267  64.139  1.00  0.00     0.000 HD 
HETATM    4  H1  UNK A   0     -11.818  13.893  62.797  1.00  0.00     0.000 HD 
HETATM    5  N   UNK A   0     -11.195  11.393  64.740  1.00  0.00    -0.189 NA 
HETATM    6  C   UNK A   0     -10.224  10.517  64.991  1.00  0.00    -0.295 A  
HETATM    7  N   UNK A   0     -10.378   9.695  66.035  1.00  0.00    -0.168 NA 
HETATM    8  C   UNK A   0      -9.351   8.874  66.359  1.00  0.00    -0.204 A  
HETATM    9  C   UNK A   0      -8.163   8.836  65.646  1.00  0.00    -0.121 A  
HETATM   10  H2  UNK A   0      -7.762  10.491  61.947  1.00  0.00     0.000 HD 
HETATM   11  N   UNK A   0      -8.007   9.616  64.554  1.00  0.00    -0.131 NA 
HETATM   12  H1  UNK A   0      -7.823  12.107  61.602  1.00  0.00     0.000 HD 
HETATM   13  C   UNK A   0      -9.041  10.459  64.247  1.00  0.00    -0.238 A  
HETATM   14  C   UNK A   0      -8.976  11.395  63.223  1.00  0.00    -0.018 A  
HETATM   15  N   UNK A   0      -7.871  11.420  62.354  1.00  0.00    -0.024 NA 
HETATM   16  N   UNK A   0      -9.934  12.295  62.965  1.00  0.00    -0.180 NA 
ENDROOT
BRANCH   9  17
HETATM   17  C   UNK A   0      -6.967   8.042  66.116  1.00  0.00    -0.058 C  
HETATM   18  C   UNK A   0      -6.860   9.414  68.262  1.00  0.00    -0.063 A  
HETATM   19  C   UNK A   0      -5.944  10.396  67.846  1.00  0.00    -0.044 A  
HETATM   20  C   UNK A   0      -7.868   9.773  69.168  1.00  0.00    -0.095 A  
HETATM   21  C   UNK A   0      -6.840   8.002  67.666  1.00  0.00    -0.070 C  
HETATM   22  C   UNK A   0      -8.033  11.105  69.553  1.00  0.00     0.222 A  
HETATM   23  C   UNK A   0      -6.106  11.730  68.231  1.00  0.00    -0.049 A  
HETATM   24  C   UNK A   0      -5.584   7.247  68.141  1.00  0.00    -0.022 C  
HETATM   25  C   UNK A   0      -7.189  12.091  69.037  1.00  0.00    -0.053 A  
BRANCH  24  26
HETATM   26  C   UNK A   0      -5.530   5.844  67.692  1.00  0.00    -0.005 C  
HETATM   27  C   UNK A   0      -5.550   4.711  67.292  1.00  0.00    -0.013 C  
ENDBRANCH  24  26
BRANCH  25  28
HETATM   28  C   UNK A   0      -7.444  13.528  69.308  1.00  0.00     0.221 C  
HETATM   29  O   UNK A   0      -6.522  14.308  69.507  1.00  0.00    -0.117 OA 
ATOM     30  N   GLU A   1      -8.780  13.923  69.263  1.00  0.00    -0.206 N  
ATOM     31  H   GLU A   1      -9.520  13.227  69.175  1.00  0.00     0.000 HD 
BRANCH  30  32
ATOM     32  CA  GLU A   1      -9.112  15.361  69.343  1.00  0.00    -0.258 C  
ATOM     33  O   GLU A   1     -11.316  14.425  69.679  1.00  0.00    -0.256 OA 
ATOM     34  C   GLU A   1     -10.544  15.521  69.890  1.00  0.00    -0.313 C  
ATOM     35  OXT GLU A   1     -11.003  16.567  70.328  1.00  0.00    -0.332 OA 
BRANCH  32  36
ATOM     36  CB  GLU A   1      -9.007  16.012  67.953  1.00  0.00    -0.186 C  
BRANCH  36  37
ATOM     37  CG  GLU A   1      -9.846  17.288  67.816  1.00  0.00    -0.281 C  
ATOM     38  CD  GLU A   1      -9.830  17.851  66.416  1.00  0.00    -0.337 C  
ATOM     39  OE2 GLU A   1      -9.221  17.376  65.473  1.00  0.00    -0.307 OA 
ATOM     40  OE1 GLU A   1     -10.590  18.964  66.305  1.00  0.00    -0.424 OA 
ENDBRANCH  36  37
ENDBRANCH  32  36
ENDBRANCH  30  32
ENDBRANCH  25  28
ENDBRANCH   9  17
TORSDOF 6
ENDMDL
MODEL      151
REMARK 921   NORMALIZED FREE ENERGY PREDICTED BY IDOCK:   -3.63 KCAL/MOL
REMARK 922        TOTAL FREE ENERGY PREDICTED BY IDOCK:   -6.31 KCAL/MOL
REMARK 923 INTER-LIGAND FREE ENERGY PREDICTED BY IDOCK:   -5.68 KCAL/MOL
REMARK 924 INTRA-LIGAND FREE ENERGY PREDICTED BY IDOCK:   -0.63 KCAL/MOL
REMARK 927      BINDING AFFINITY PREDICTED BY RF-SCORE:    0.00 PKD
ROOT
HETATM    1  N   UNK A   0      -5.146  13.848  68.734  1.00  0.00    -0.073 NA 
HETATM    2  C   UNK A   0      -5.853  12.672  68.805  1.00  0.00    -0.068 A  
HETATM    3  H2  UNK A   0      -4.128  13.848  68.680  1.00  0.00     0.000 HD 
HETATM    4  H1  UNK A   0      -5.674  14.721  68.737  1.00  0.00     0.000 HD 
HETATM    5  N   UNK A   0      -5.166  11.535  68.800  1.00  0.00    -0.046 NA 
HETATM    6  C   UNK A   0      -5.853  10.395  68.783  1.00  0.00    -0.040 A  
HETATM    7  N   UNK A   0      -5.165   9.251  68.692  1.00  0.00    -0.034 NA 
HETATM    8  C   UNK A   0      -5.859   8.095  68.570  1.00  0.00    -0.040 A  
HETATM    9  C   UNK A   0      -7.244   8.046  68.553  1.00  0.00    -0.085 A  
HETATM   10  H2  UNK A   0      -9.571  11.174  69.730  1.00  0.00     0.000 HD 
HETATM   11  N   UNK A   0      -7.960   9.182  68.699  1.00  0.00    -0.100 NA 
HETATM   12  H1  UNK A   0      -9.694  12.630  68.955  1.00  0.00     0.000 HD 
HETATM   13  C   UNK A   0      -7.251  10.348  68.801  1.00  0.00    -0.085 A  
HETATM   14  C   UNK A   0      -7.852  11.600  68.844  1.00  0.00    -0.040 A  
HETATM   15  N   UNK A   0      -9.252  11.711  68.924  1.00  0.00    -0.023 NA 
HETATM   16  N   UNK A   0      -7.179  12.759  68.845  1.00  0.00    -0.076 NA 
ENDROOT
BRANCH   9  17
HETATM   17  C   UNK A   0      -8.001   6.776  68.246  1.00  0.00    -0.111 C  
HETATM   18  C   UNK A   0      -9.310   7.962  66.408  1.00  0.00    -0.247 A  
HETATM   19  C   UNK A   0     -10.431   8.355  67.159  1.00  0.00    -0.380 A  
HETATM   20  C   UNK A   0      -8.872   8.791  65.365  1.00  0.00    -0.221 A  
HETATM   21  C   UNK A   0      -8.503   6.712  66.775  1.00  0.00    -0.117 C  
HETATM   22  C   UNK A   0      -9.464  10.038  65.156  1.00  0.00    -0.331 A  
HETATM   23  C   UNK A   0     -11.027   9.602  66.950  1.00  0.00     0.028 A  
HETATM   24  C   UNK A   0      -9.330   5.445  66.483  1.00  0.00    -0.150 C  
HETATM   25  C   UNK A   0     -10.501  10.468  65.988  1.00  0.00    -0.226 A  
BRANCH  24  26
HETATM   26  C   UNK A   0      -8.595   4.189  66.718  1.00  0.00    -0.108 C  
HETATM   27  C   UNK A   0      -7.943   3.205  66.940  1.00  0.00    -0.079 C  
ENDBRANCH  24  26
BRANCH  25  28
HETATM   28  C   UNK A   0     -11.034  11.850  65.885  1.00  0.00    -0.307 C  
HETATM   29  O   UNK A   0     -12.187  12.057  65.529  1.00  0.00    -0.483 OA 
ATOM     30  N   GLU A   1     -10.161  12.865  66.270  1.00  0.00    -0.272 N  
ATOM     31  H   GLU A   1      -9.186  12.652  66.481  1.00  0.00     0.000 HD 
BRANCH  30  32
ATOM     32  CA  GLU A   1     -10.662  14.251  66.370  1.00  0.00    -0.297 C  
ATOM     33  O   GLU A   1     -10.090  14.205  64.021  1.00  0.00     0.386 OA 
ATOM     34  C   GLU A   1     -10.860  14.823  64.952  1.00  0.00    -0.416 C  
ATOM     35  OXT GLU A   1     -11.513  15.825  64.697  1.00  0.00    -0.393 OA 
BRANCH  32  36
ATOM     36  CB  GLU A   1      -9.665  15.124  67.152  1.00  0.00    -0.230 C  
BRANCH  36  37
ATOM     37  CG  GLU A   1      -8.984  16.191  66.286  1.00  0.00    -0.379 C  
ATOM     38  CD  GLU A   1      -7.558  16.457  66.701  1.00  0.00    -0.253 C  
ATOM     39  OE2 GLU A   1      -6.979  15.911  67.624  1.00  0.00    -0.131 OA 
ATOM     40  OE1 GLU A   1      -6.963  17.385  65.917  1.00  0.00    -0.248 OA 
ENDBRANCH  36  37
ENDBRANCH  32  36
ENDBRANCH  30  32
ENDBRANCH  25  28
ENDBRANCH   9  17
TORSDOF 6
ENDMDL
MODEL      152
REMARK 921   NORMALIZED FREE ENERGY PREDICTED BY IDOCK:   -3.58 KCAL/MOL
REMARK 922        TOTAL FREE ENERGY PREDICTED BY IDOCK:   -6.25 KCAL/MOL
REMARK 923 INTER-LIGAND FREE ENERGY PREDICTED BY IDOCK:   -5.17 KCAL/MOL
REMARK 924 INTRA-LIGAND FREE ENERGY PREDICTED BY IDOCK:   -1.08 KCAL/MOL
REMARK 927      BINDING AFFINITY PREDICTED BY RF-SCORE:    0.00 PKD
ROOT
HETATM    1  N   UNK A   0     -12.050   5.805  71.960  1.00  0.00    -0.015 NA 
HETATM    2  C   UNK A   0     -11.202   6.859  71.719  1.00  0.00    -0.252 A  
HETATM    3  H2  UNK A   0     -12.758   5.533  71.279  1.00  0.00     0.000 HD 
HETATM    4  H1  UNK A   0     -11.946   5.303  72.842  1.00  0.00     0.000 HD 
HETATM    5  N   UNK A   0     -11.336   7.513  70.570  1.00  0.00    -0.275 NA 
HETATM    6  C   UNK A   0     -10.461   8.479  70.299  1.00  0.00    -0.220 A  
HETATM    7  N   UNK A   0     -10.542   9.080  69.107  1.00  0.00    -0.224 NA 
HETATM    8  C   UNK A   0      -9.593   9.990  68.784  1.00  0.00    -0.168 A  
HETATM    9  C   UNK A   0      -8.558  10.335  69.639  1.00  0.00    -0.107 A  
HETATM   10  H2  UNK A   0      -8.575   9.403  73.603  1.00  0.00     0.000 HD 
HETATM   11  N   UNK A   0      -8.488   9.782  70.870  1.00  0.00    -0.080 NA 
HETATM   12  H1  UNK A   0      -8.481   7.878  74.236  1.00  0.00     0.000 HD 
HETATM   13  C   UNK A   0      -9.439   8.848  71.180  1.00  0.00    -0.265 A  
HETATM   14  C   UNK A   0      -9.426   8.117  72.361  1.00  0.00    -0.251 A  
HETATM   15  N   UNK A   0      -8.491   8.414  73.368  1.00  0.00    -0.361 NA 
HETATM   16  N   UNK A   0     -10.288   7.131  72.646  1.00  0.00    -0.202 NA 
ENDROOT
BRANCH   9  17
HETATM   17  C   UNK A   0      -7.415  11.221  69.203  1.00  0.00    -0.084 C  
HETATM   18  C   UNK A   0      -7.049   9.782  67.131  1.00  0.00    -0.086 A  
HETATM   19  C   UNK A   0      -6.073   8.909  67.642  1.00  0.00    -0.047 A  
HETATM   20  C   UNK A   0      -7.962   9.293  66.186  1.00  0.00    -0.107 A  
HETATM   21  C   UNK A   0      -7.197  11.211  67.663  1.00  0.00    -0.094 C  
HETATM   22  C   UNK A   0      -7.978   7.937  65.852  1.00  0.00    -0.106 A  
HETATM   23  C   UNK A   0      -6.086   7.552  67.308  1.00  0.00    -0.047 A  
HETATM   24  C   UNK A   0      -5.990  12.064  67.227  1.00  0.00    -0.146 C  
HETATM   25  C   UNK A   0      -7.079   7.057  66.458  1.00  0.00    -0.077 A  
BRANCH  24  26
HETATM   26  C   UNK A   0      -6.094  13.482  67.615  1.00  0.00    -0.120 C  
HETATM   27  C   UNK A   0      -6.248  14.624  67.954  1.00  0.00    -0.171 C  
ENDBRANCH  24  26
BRANCH  25  28
HETATM   28  C   UNK A   0      -7.183   5.592  66.239  1.00  0.00    -0.077 C  
HETATM   29  O   UNK A   0      -6.214   4.937  65.877  1.00  0.00    -0.029 OA 
ATOM     30  N   GLU A   1      -8.423   5.025  66.523  1.00  0.00    -0.111 N  
ATOM     31  H   GLU A   1      -9.223   5.620  66.743  1.00  0.00     0.000 HD 
BRANCH  30  32
ATOM     32  CA  GLU A   1      -8.568   3.555  66.504  1.00  0.00    -0.116 C  
ATOM     33  O   GLU A   1     -10.076   4.125  64.702  1.00  0.00    -0.196 OA 
ATOM     34  C   GLU A   1      -9.306   3.134  65.217  1.00  0.00    -0.135 C  
ATOM     35  OXT GLU A   1      -9.333   1.993  64.780  1.00  0.00    -0.133 OA 
BRANCH  32  36
ATOM     36  CB  GLU A   1      -9.356   3.080  67.737  1.00  0.00    -0.251 C  
BRANCH  36  37
ATOM     37  CG  GLU A   1      -9.274   4.052  68.921  1.00  0.00    -0.210 C  
ATOM     38  CD  GLU A   1      -9.312   3.352  70.256  1.00  0.00    -0.172 C  
ATOM     39  OE2 GLU A   1      -9.406   2.147  70.418  1.00  0.00    -0.111 OA 
ATOM     40  OE1 GLU A   1      -9.218   4.219  71.290  1.00  0.00    -0.121 OA 
ENDBRANCH  36  37
ENDBRANCH  32  36
ENDBRANCH  30  32
ENDBRANCH  25  28
ENDBRANCH   9  17
TORSDOF 6
ENDMDL
MODEL      153
REMARK 921   NORMALIZED FREE ENERGY PREDICTED BY IDOCK:   -3.58 KCAL/MOL
REMARK 922        TOTAL FREE ENERGY PREDICTED BY IDOCK:   -6.25 KCAL/MOL
REMARK 923 INTER-LIGAND FREE ENERGY PREDICTED BY IDOCK:   -6.64 KCAL/MOL
REMARK 924 INTRA-LIGAND FREE ENERGY PREDICTED BY IDOCK:    0.39 KCAL/MOL
REMARK 927      BINDING AFFINITY PREDICTED BY RF-SCORE:    0.00 PKD
ROOT
HETATM    1  N   UNK A   0      -5.154   7.769  63.841  1.00  0.00    -0.036 NA 
HETATM    2  C   UNK A   0      -5.764   7.448  65.030  1.00  0.00    -0.037 A  
HETATM    3  H2  UNK A   0      -4.514   8.560  63.774  1.00  0.00     0.000 HD 
HETATM    4  H1  UNK A   0      -5.362   7.190  63.028  1.00  0.00     0.000 HD 
HETATM    5  N   UNK A   0      -5.492   8.203  66.090  1.00  0.00    -0.028 NA 
HETATM    6  C   UNK A   0      -6.015   7.842  67.260  1.00  0.00    -0.048 A  
HETATM    7  N   UNK A   0      -5.675   8.550  68.342  1.00  0.00    -0.038 NA 
HETATM    8  C   UNK A   0      -6.119   8.127  69.549  1.00  0.00    -0.033 A  
HETATM    9  C   UNK A   0      -6.923   7.008  69.706  1.00  0.00    -0.059 A  
HETATM   10  H2  UNK A   0      -8.860   5.236  66.593  1.00  0.00     0.000 HD 
HETATM   11  N   UNK A   0      -7.325   6.310  68.622  1.00  0.00    -0.084 NA 
HETATM   12  H1  UNK A   0      -8.138   4.441  65.335  1.00  0.00     0.000 HD 
HETATM   13  C   UNK A   0      -6.853   6.732  67.408  1.00  0.00    -0.073 A  
HETATM   14  C   UNK A   0      -7.092   6.048  66.223  1.00  0.00    -0.068 A  
HETATM   15  N   UNK A   0      -7.963   4.944  66.205  1.00  0.00    -0.106 NA 
HETATM   16  N   UNK A   0      -6.562   6.386  65.039  1.00  0.00    -0.038 NA 
ENDROOT
BRANCH   9  17
HETATM   17  C   UNK A   0      -7.270   6.451  71.066  1.00  0.00    -0.078 C  
HETATM   18  C   UNK A   0      -9.642   7.364  70.869  1.00  0.00    -0.166 A  
HETATM   19  C   UNK A   0      -9.453   8.600  71.512  1.00  0.00    -0.320 A  
HETATM   20  C   UNK A   0     -10.567   7.286  69.819  1.00  0.00    -0.247 A  
HETATM   21  C   UNK A   0      -8.787   6.143  71.224  1.00  0.00    -0.136 C  
HETATM   22  C   UNK A   0     -11.196   8.437  69.341  1.00  0.00     0.208 A  
HETATM   23  C   UNK A   0     -10.082   9.754  71.037  1.00  0.00    -0.048 A  
HETATM   24  C   UNK A   0      -9.148   5.636  72.633  1.00  0.00    -0.132 C  
HETATM   25  C   UNK A   0     -10.907   9.679  69.911  1.00  0.00    -0.287 A  
BRANCH  24  26
HETATM   26  C   UNK A   0      -8.440   4.403  73.020  1.00  0.00    -0.098 C  
HETATM   27  C   UNK A   0      -7.920   3.381  73.379  1.00  0.00    -0.074 C  
ENDBRANCH  24  26
BRANCH  25  28
HETATM   28  C   UNK A   0     -11.440  10.931  69.318  1.00  0.00    -0.302 C  
HETATM   29  O   UNK A   0     -12.612  11.018  68.971  1.00  0.00    -0.378 OA 
ATOM     30  N   GLU A   1     -10.542  11.993  69.239  1.00  0.00    -0.442 N  
ATOM     31  H   GLU A   1      -9.556  11.851  69.462  1.00  0.00     0.000 HD 
BRANCH  30  32
ATOM     32  CA  GLU A   1     -11.030  13.325  68.828  1.00  0.00    -0.260 C  
ATOM     33  O   GLU A   1     -12.205  13.104  70.929  1.00  0.00    -0.358 OA 
ATOM     34  C   GLU A   1     -11.738  13.997  70.021  1.00  0.00    -0.280 C  
ATOM     35  OXT GLU A   1     -12.000  15.190  70.085  1.00  0.00    -0.290 OA 
BRANCH  32  36
ATOM     36  CB  GLU A   1     -12.008  13.195  67.646  1.00  0.00    -0.363 C  
BRANCH  36  37
ATOM     37  CG  GLU A   1     -11.308  12.931  66.307  1.00  0.00    -0.364 C  
ATOM     38  CD  GLU A   1     -12.131  13.369  65.121  1.00  0.00    -0.409 C  
ATOM     39  OE2 GLU A   1     -13.239  13.874  65.180  1.00  0.00    -0.768 OA 
ATOM     40  OE1 GLU A   1     -11.494  13.150  63.948  1.00  0.00    -0.396 OA 
ENDBRANCH  36  37
ENDBRANCH  32  36
ENDBRANCH  30  32
ENDBRANCH  25  28
ENDBRANCH   9  17
TORSDOF 6
ENDMDL
MODEL      154
REMARK 921   NORMALIZED FREE ENERGY PREDICTED BY IDOCK:   -3.57 KCAL/MOL
REMARK 922        TOTAL FREE ENERGY PREDICTED BY IDOCK:   -6.23 KCAL/MOL
REMARK 923 INTER-LIGAND FREE ENERGY PREDICTED BY IDOCK:   -6.39 KCAL/MOL
REMARK 924 INTRA-LIGAND FREE ENERGY PREDICTED BY IDOCK:    0.16 KCAL/MOL
REMARK 927      BINDING AFFINITY PREDICTED BY RF-SCORE:    0.00 PKD
ROOT
HETATM    1  N   UNK A   0      -9.653   6.644  74.387  1.00  0.00    -0.257 NA 
HETATM    2  C   UNK A   0      -9.861   6.265  73.083  1.00  0.00    -0.167 A  
HETATM    3  H2  UNK A   0      -8.791   6.402  74.875  1.00  0.00     0.000 HD 
HETATM    4  H1  UNK A   0     -10.390   7.175  74.851  1.00  0.00     0.000 HD 
HETATM    5  N   UNK A   0      -8.900   5.574  72.478  1.00  0.00    -0.130 NA 
HETATM    6  C   UNK A   0      -9.064   5.281  71.189  1.00  0.00    -0.144 A  
HETATM    7  N   UNK A   0      -8.063   4.660  70.557  1.00  0.00    -0.067 NA 
HETATM    8  C   UNK A   0      -8.179   4.452  69.224  1.00  0.00    -0.067 A  
HETATM    9  C   UNK A   0      -9.294   4.837  68.496  1.00  0.00    -0.133 A  
HETATM   10  H2  UNK A   0     -12.820   5.871  70.253  1.00  0.00     0.000 HD 
HETATM   11  N   UNK A   0     -10.342   5.415  69.123  1.00  0.00    -0.236 NA 
HETATM   12  H1  UNK A   0     -13.073   7.207  71.194  1.00  0.00     0.000 HD 
HETATM   13  C   UNK A   0     -10.206   5.641  70.467  1.00  0.00    -0.231 A  
HETATM   14  C   UNK A   0     -11.152   6.327  71.218  1.00  0.00    -0.289 A  
HETATM   15  N   UNK A   0     -12.378   6.704  70.642  1.00  0.00    -0.247 NA 
HETATM   16  N   UNK A   0     -10.999   6.645  72.511  1.00  0.00    -0.237 NA 
ENDROOT
BRANCH   9  17
HETATM   17  C   UNK A   0      -9.340   4.753  66.989  1.00  0.00    -0.144 C  
HETATM   18  C   UNK A   0      -9.186   7.291  66.811  1.00  0.00    -0.187 A  
HETATM   19  C   UNK A   0     -10.559   7.589  66.757  1.00  0.00    -0.269 A  
HETATM   20  C   UNK A   0      -8.324   8.200  67.441  1.00  0.00    -0.122 A  
HETATM   21  C   UNK A   0      -8.639   5.956  66.295  1.00  0.00    -0.132 C  
HETATM   22  C   UNK A   0      -8.834   9.316  68.106  1.00  0.00    -0.129 A  
HETATM   23  C   UNK A   0     -11.073   8.707  67.421  1.00  0.00     0.356 A  
HETATM   24  C   UNK A   0      -8.744   5.901  64.759  1.00  0.00     0.068 C  
HETATM   25  C   UNK A   0     -10.213   9.536  68.147  1.00  0.00    -0.231 A  
BRANCH  24  26
HETATM   26  C   UNK A   0      -8.151   4.688  64.167  1.00  0.00    -0.104 C  
HETATM   27  C   UNK A   0      -7.634   3.743  63.635  1.00  0.00    -0.059 C  
ENDBRANCH  24  26
BRANCH  25  28
HETATM   28  C   UNK A   0     -10.786  10.624  68.979  1.00  0.00    -0.235 C  
HETATM   29  O   UNK A   0     -10.540  10.700  70.176  1.00  0.00    -0.199 OA 
ATOM     30  N   GLU A   1     -11.562  11.560  68.299  1.00  0.00    -0.301 N  
ATOM     31  H   GLU A   1     -11.808  11.411  67.320  1.00  0.00     0.000 HD 
BRANCH  30  32
ATOM     32  CA  GLU A   1     -12.024  12.770  69.010  1.00  0.00    -0.242 C  
ATOM     33  O   GLU A   1      -9.807  13.502  68.385  1.00  0.00    -0.232 OA 
ATOM     34  C   GLU A   1     -11.048  13.929  68.730  1.00  0.00    -0.265 C  
ATOM     35  OXT GLU A   1     -11.297  15.107  68.940  1.00  0.00    -0.268 OA 
BRANCH  32  36
ATOM     36  CB  GLU A   1     -12.099  12.503  70.524  1.00  0.00    -0.361 C  
BRANCH  36  37
ATOM     37  CG  GLU A   1     -13.318  13.148  71.194  1.00  0.00    -0.013 C  
ATOM     38  CD  GLU A   1     -12.957  14.344  72.039  1.00  0.00    -0.353 C  
ATOM     39  OE2 GLU A   1     -11.829  14.777  72.203  1.00  0.00    -0.327 OA 
ATOM     40  OE1 GLU A   1     -14.044  14.915  72.607  1.00  0.00    -0.435 OA 
ENDBRANCH  36  37
ENDBRANCH  32  36
ENDBRANCH  30  32
ENDBRANCH  25  28
ENDBRANCH   9  17
TORSDOF 6
ENDMDL
MODEL      155
REMARK 921   NORMALIZED FREE ENERGY PREDICTED BY IDOCK:   -3.56 KCAL/MOL
REMARK 922        TOTAL FREE ENERGY PREDICTED BY IDOCK:   -6.22 KCAL/MOL
REMARK 923 INTER-LIGAND FREE ENERGY PREDICTED BY IDOCK:   -5.47 KCAL/MOL
REMARK 924 INTRA-LIGAND FREE ENERGY PREDICTED BY IDOCK:   -0.75 KCAL/MOL
REMARK 927      BINDING AFFINITY PREDICTED BY RF-SCORE:    0.00 PKD
ROOT
HETATM    1  N   UNK A   0     -13.148   8.844  72.929  1.00  0.00    -0.749 NA 
HETATM    2  C   UNK A   0     -12.047   8.400  72.238  1.00  0.00    -0.392 A  
HETATM    3  H2  UNK A   0     -13.811   9.491  72.504  1.00  0.00     0.000 HD 
HETATM    4  H1  UNK A   0     -13.280   8.504  73.882  1.00  0.00     0.000 HD 
HETATM    5  N   UNK A   0     -11.875   8.842  70.996  1.00  0.00    -0.286 NA 
HETATM    6  C   UNK A   0     -10.856   8.346  70.296  1.00  0.00    -0.239 A  
HETATM    7  N   UNK A   0     -10.732   8.725  69.019  1.00  0.00    -0.166 NA 
HETATM    8  C   UNK A   0      -9.762   8.147  68.272  1.00  0.00    -0.161 A  
HETATM    9  C   UNK A   0      -8.885   7.199  68.778  1.00  0.00    -0.130 A  
HETATM   10  H2  UNK A   0      -8.413   6.548  72.770  1.00  0.00     0.000 HD 
HETATM   11  N   UNK A   0      -8.956   6.842  70.079  1.00  0.00    -0.142 NA 
HETATM   12  H1  UNK A   0      -9.555   5.917  73.786  1.00  0.00     0.000 HD 
HETATM   13  C   UNK A   0      -9.954   7.416  70.821  1.00  0.00    -0.182 A  
HETATM   14  C   UNK A   0     -10.217   7.061  72.138  1.00  0.00    -0.186 A  
HETATM   15  N   UNK A   0      -9.362   6.177  72.819  1.00  0.00    -0.148 NA 
HETATM   16  N   UNK A   0     -11.246   7.536  72.854  1.00  0.00    -0.356 NA 
ENDROOT
BRANCH   9  17
HETATM   17  C   UNK A   0      -7.923   6.441  67.896  1.00  0.00    -0.111 C  
HETATM   18  C   UNK A   0      -6.253   8.364  68.012  1.00  0.00    -0.052 A  
HETATM   19  C   UNK A   0      -6.642   9.060  66.854  1.00  0.00    -0.064 A  
HETATM   20  C   UNK A   0      -5.777   9.095  69.109  1.00  0.00    -0.036 A  
HETATM   21  C   UNK A   0      -6.439   6.848  68.131  1.00  0.00    -0.050 C  
HETATM   22  C   UNK A   0      -5.804  10.491  69.097  1.00  0.00    -0.040 A  
HETATM   23  C   UNK A   0      -6.669  10.457  66.838  1.00  0.00    -0.083 A  
HETATM   24  C   UNK A   0      -5.466   6.120  67.184  1.00  0.00    -0.009 C  
HETATM   25  C   UNK A   0      -6.306  11.170  67.984  1.00  0.00    -0.053 A  
BRANCH  24  26
HETATM   26  C   UNK A   0      -5.509   4.652  67.302  1.00  0.00    -0.013 C  
HETATM   27  C   UNK A   0      -5.570   3.452  67.329  1.00  0.00    -0.021 C  
ENDBRANCH  24  26
BRANCH  25  28
HETATM   28  C   UNK A   0      -6.492  12.643  68.012  1.00  0.00    -0.093 C  
HETATM   29  O   UNK A   0      -5.653  13.395  67.534  1.00  0.00    -0.304 OA 
ATOM     30  N   GLU A   1      -7.692  13.090  68.560  1.00  0.00    -0.174 N  
ATOM     31  H   GLU A   1      -8.324  12.434  69.020  1.00  0.00     0.000 HD 
BRANCH  30  32
ATOM     32  CA  GLU A   1      -8.040  14.523  68.469  1.00  0.00    -0.148 C  
ATOM     33  O   GLU A   1      -7.263  14.449  70.757  1.00  0.00     0.548 OA 
ATOM     34  C   GLU A   1      -7.463  15.265  69.692  1.00  0.00    -0.181 C  
ATOM     35  OXT GLU A   1      -7.341  16.479  69.767  1.00  0.00     0.018 OA 
BRANCH  32  36
ATOM     36  CB  GLU A   1      -9.567  14.700  68.423  1.00  0.00    -0.217 C  
BRANCH  36  37
ATOM     37  CG  GLU A   1     -10.080  15.798  69.362  1.00  0.00    -0.268 C  
ATOM     38  CD  GLU A   1     -11.263  15.357  70.188  1.00  0.00    -0.302 C  
ATOM     39  OE2 GLU A   1     -11.787  14.257  70.136  1.00  0.00    -0.279 OA 
ATOM     40  OE1 GLU A   1     -11.691  16.327  71.027  1.00  0.00    -0.403 OA 
ENDBRANCH  36  37
ENDBRANCH  32  36
ENDBRANCH  30  32
ENDBRANCH  25  28
ENDBRANCH   9  17
TORSDOF 6
ENDMDL
MODEL      156
REMARK 921   NORMALIZED FREE ENERGY PREDICTED BY IDOCK:   -3.56 KCAL/MOL
REMARK 922        TOTAL FREE ENERGY PREDICTED BY IDOCK:   -6.21 KCAL/MOL
REMARK 923 INTER-LIGAND FREE ENERGY PREDICTED BY IDOCK:   -5.06 KCAL/MOL
REMARK 924 INTRA-LIGAND FREE ENERGY PREDICTED BY IDOCK:   -1.16 KCAL/MOL
REMARK 927      BINDING AFFINITY PREDICTED BY RF-SCORE:    0.00 PKD
ROOT
HETATM    1  N   UNK A   0     -11.383   7.605  73.231  1.00  0.00    -0.619 NA 
HETATM    2  C   UNK A   0     -10.983   7.894  71.949  1.00  0.00    -0.256 A  
HETATM    3  H2  UNK A   0     -11.093   8.185  74.017  1.00  0.00     0.000 HD 
HETATM    4  H1  UNK A   0     -11.980   6.789  73.370  1.00  0.00     0.000 HD 
HETATM    5  N   UNK A   0     -10.206   8.957  71.767  1.00  0.00    -0.330 NA 
HETATM    6  C   UNK A   0      -9.889   9.288  70.517  1.00  0.00    -0.253 A  
HETATM    7  N   UNK A   0      -9.177  10.405  70.327  1.00  0.00     0.414 NA 
HETATM    8  C   UNK A   0      -8.940  10.803  69.055  1.00  0.00    -0.132 A  
HETATM    9  C   UNK A   0      -9.384  10.095  67.948  1.00  0.00    -0.141 A  
HETATM   10  H2  UNK A   0     -10.724   6.257  68.184  1.00  0.00     0.000 HD 
HETATM   11  N   UNK A   0     -10.056   8.935  68.116  1.00  0.00    -0.181 NA 
HETATM   12  H1  UNK A   0     -12.102   5.762  68.954  1.00  0.00     0.000 HD 
HETATM   13  C   UNK A   0     -10.310   8.551  69.406  1.00  0.00    -0.215 A  
HETATM   14  C   UNK A   0     -11.085   7.444  69.727  1.00  0.00    -0.152 A  
HETATM   15  N   UNK A   0     -11.534   6.575  68.717  1.00  0.00    -0.154 NA 
HETATM   16  N   UNK A   0     -11.428   7.104  70.977  1.00  0.00    -0.284 NA 
ENDROOT
BRANCH   9  17
HETATM   17  C   UNK A   0      -9.261  10.636  66.544  1.00  0.00    -0.187 C  
HETATM   18  C   UNK A   0      -8.538   8.345  65.691  1.00  0.00    -0.197 A  
HETATM   19  C   UNK A   0      -7.145   8.506  65.791  1.00  0.00    -0.075 A  
HETATM   20  C   UNK A   0      -9.087   7.074  65.911  1.00  0.00    -0.048 A  
HETATM   21  C   UNK A   0      -9.463   9.543  65.455  1.00  0.00    -0.334 C  
HETATM   22  C   UNK A   0      -8.280   6.018  66.339  1.00  0.00    -0.112 A  
HETATM   23  C   UNK A   0      -6.334   7.450  66.218  1.00  0.00    -0.041 A  
HETATM   24  C   UNK A   0      -9.272  10.085  64.026  1.00  0.00    -0.318 C  
HETATM   25  C   UNK A   0      -6.914   6.223  66.550  1.00  0.00    -0.067 A  
BRANCH  24  26
HETATM   26  C   UNK A   0     -10.194  11.181  63.678  1.00  0.00    -0.444 C  
HETATM   27  C   UNK A   0     -10.954  12.087  63.467  1.00  0.00    -0.514 C  
ENDBRANCH  24  26
BRANCH  25  28
HETATM   28  C   UNK A   0      -6.071   5.162  67.155  1.00  0.00    -0.030 C  
HETATM   29  O   UNK A   0      -5.139   4.664  66.536  1.00  0.00    -0.007 OA 
ATOM     30  N   GLU A   1      -6.377   4.823  68.471  1.00  0.00    -0.035 N  
ATOM     31  H   GLU A   1      -7.211   5.203  68.920  1.00  0.00     0.000 HD 
BRANCH  30  32
ATOM     32  CA  GLU A   1      -5.483   3.908  69.211  1.00  0.00    -0.012 C  
ATOM     33  O   GLU A   1      -7.508   2.587  69.234  1.00  0.00    -0.044 OA 
ATOM     34  C   GLU A   1      -6.155   2.526  69.329  1.00  0.00    -0.024 C  
ATOM     35  OXT GLU A   1      -5.569   1.497  69.633  1.00  0.00    -0.015 OA 
BRANCH  32  36
ATOM     36  CB  GLU A   1      -5.187   4.468  70.613  1.00  0.00     0.000 C  
BRANCH  36  37
ATOM     37  CG  GLU A   1      -6.313   5.353  71.162  1.00  0.00    -0.034 C  
ATOM     38  CD  GLU A   1      -7.118   4.672  72.242  1.00  0.00    -0.066 C  
ATOM     39  OE2 GLU A   1      -6.930   3.540  72.653  1.00  0.00    -0.039 OA 
ATOM     40  OE1 GLU A   1      -8.093   5.470  72.732  1.00  0.00    -0.108 OA 
ENDBRANCH  36  37
ENDBRANCH  32  36
ENDBRANCH  30  32
ENDBRANCH  25  28
ENDBRANCH   9  17
TORSDOF 6
ENDMDL
MODEL      157
REMARK 921   NORMALIZED FREE ENERGY PREDICTED BY IDOCK:   -3.51 KCAL/MOL
REMARK 922        TOTAL FREE ENERGY PREDICTED BY IDOCK:   -6.16 KCAL/MOL
REMARK 923 INTER-LIGAND FREE ENERGY PREDICTED BY IDOCK:   -5.31 KCAL/MOL
REMARK 924 INTRA-LIGAND FREE ENERGY PREDICTED BY IDOCK:   -0.85 KCAL/MOL
REMARK 927      BINDING AFFINITY PREDICTED BY RF-SCORE:    0.00 PKD
ROOT
HETATM    1  N   UNK A   0      -9.368   4.755  63.414  1.00  0.00    -0.348 NA 
HETATM    2  C   UNK A   0      -8.856   4.483  64.659  1.00  0.00    -0.151 A  
HETATM    3  H2  UNK A   0     -10.373   4.842  63.265  1.00  0.00     0.000 HD 
HETATM    4  H1  UNK A   0      -8.709   4.868  62.643  1.00  0.00     0.000 HD 
HETATM    5  N   UNK A   0      -9.714   4.337  65.664  1.00  0.00    -0.189 NA 
HETATM    6  C   UNK A   0      -9.215   4.159  66.885  1.00  0.00    -0.156 A  
HETATM    7  N   UNK A   0     -10.075   4.096  67.909  1.00  0.00     0.059 NA 
HETATM    8  C   UNK A   0      -9.571   4.020  69.163  1.00  0.00    -0.163 A  
HETATM    9  C   UNK A   0      -8.210   3.984  69.428  1.00  0.00    -0.058 A  
HETATM   10  H2  UNK A   0      -5.429   3.222  66.552  1.00  0.00     0.000 HD 
HETATM   11  N   UNK A   0      -7.325   3.989  68.407  1.00  0.00    -0.059 NA 
HETATM   12  H1  UNK A   0      -5.072   4.205  65.271  1.00  0.00     0.000 HD 
HETATM   13  C   UNK A   0      -7.843   4.089  67.143  1.00  0.00    -0.092 A  
HETATM   14  C   UNK A   0      -7.052   4.218  66.009  1.00  0.00    -0.067 A  
HETATM   15  N   UNK A   0      -5.653   4.111  66.104  1.00  0.00    -0.017 NA 
HETATM   16  N   UNK A   0      -7.533   4.414  64.774  1.00  0.00    -0.072 NA 
ENDROOT
BRANCH   9  17
HETATM   17  C   UNK A   0      -7.661   4.069  70.831  1.00  0.00    -0.051 C  
HETATM   18  C   UNK A   0      -7.982   6.598  70.837  1.00  0.00    -0.110 A  
HETATM   19  C   UNK A   0      -6.702   6.980  70.398  1.00  0.00    -0.053 A  
HETATM   20  C   UNK A   0      -9.084   7.380  70.463  1.00  0.00    -0.157 A  
HETATM   21  C   UNK A   0      -8.201   5.298  71.618  1.00  0.00    -0.118 C  
HETATM   22  C   UNK A   0      -8.928   8.444  69.573  1.00  0.00    -0.149 A  
HETATM   23  C   UNK A   0      -6.542   8.047  69.509  1.00  0.00    -0.038 A  
HETATM   24  C   UNK A   0      -7.589   5.419  73.027  1.00  0.00    -0.097 C  
HETATM   25  C   UNK A   0      -7.666   8.739  69.050  1.00  0.00    -0.091 A  
BRANCH  24  26
HETATM   26  C   UNK A   0      -7.837   4.246  73.884  1.00  0.00    -0.085 C  
HETATM   27  C   UNK A   0      -7.992   3.252  74.541  1.00  0.00    -0.065 C  
ENDBRANCH  24  26
BRANCH  25  28
HETATM   28  C   UNK A   0      -7.505   9.760  67.985  1.00  0.00    -0.082 C  
HETATM   29  O   UNK A   0      -6.533   9.748  67.239  1.00  0.00    -0.067 OA 
ATOM     30  N   GLU A   1      -8.545  10.679  67.865  1.00  0.00    -0.123 N  
ATOM     31  H   GLU A   1      -9.293  10.703  68.559  1.00  0.00     0.000 HD 
BRANCH  30  32
ATOM     32  CA  GLU A   1      -8.554  11.618  66.724  1.00  0.00    -0.180 C  
ATOM     33  O   GLU A   1     -10.230  12.668  68.114  1.00  0.00    -0.226 OA 
ATOM     34  C   GLU A   1      -9.337  12.887  67.116  1.00  0.00    -0.229 C  
ATOM     35  OXT GLU A   1      -9.289  13.944  66.504  1.00  0.00    -0.277 OA 
BRANCH  32  36
ATOM     36  CB  GLU A   1      -9.206  10.959  65.496  1.00  0.00    -0.232 C  
BRANCH  36  37
ATOM     37  CG  GLU A   1     -10.452  11.702  64.999  1.00  0.00    -0.336 C  
ATOM     38  CD  GLU A   1     -10.369  12.070  63.538  1.00  0.00    -0.461 C  
ATOM     39  OE2 GLU A   1      -9.428  11.828  62.802  1.00  0.00    -0.347 OA 
ATOM     40  OE1 GLU A   1     -11.483  12.706  63.108  1.00  0.00    -0.424 OA 
ENDBRANCH  36  37
ENDBRANCH  32  36
ENDBRANCH  30  32
ENDBRANCH  25  28
ENDBRANCH   9  17
TORSDOF 6
ENDMDL
MODEL      158
REMARK 921   NORMALIZED FREE ENERGY PREDICTED BY IDOCK:   -3.51 KCAL/MOL
REMARK 922        TOTAL FREE ENERGY PREDICTED BY IDOCK:   -6.15 KCAL/MOL
REMARK 923 INTER-LIGAND FREE ENERGY PREDICTED BY IDOCK:   -4.91 KCAL/MOL
REMARK 924 INTRA-LIGAND FREE ENERGY PREDICTED BY IDOCK:   -1.24 KCAL/MOL
REMARK 927      BINDING AFFINITY PREDICTED BY RF-SCORE:    0.00 PKD
ROOT
HETATM    1  N   UNK A   0      -5.126   5.985  65.731  1.00  0.00    -0.012 NA 
HETATM    2  C   UNK A   0      -5.936   7.042  65.394  1.00  0.00    -0.036 A  
HETATM    3  H2  UNK A   0      -4.496   6.038  66.532  1.00  0.00     0.000 HD 
HETATM    4  H1  UNK A   0      -5.175   5.145  65.155  1.00  0.00     0.000 HD 
HETATM    5  N   UNK A   0      -5.872   8.136  66.145  1.00  0.00    -0.040 NA 
HETATM    6  C   UNK A   0      -6.717   9.127  65.871  1.00  0.00    -0.079 A  
HETATM    7  N   UNK A   0      -6.713  10.195  66.678  1.00  0.00    -0.076 NA 
HETATM    8  C   UNK A   0      -7.639  11.159  66.468  1.00  0.00    -0.135 A  
HETATM    9  C   UNK A   0      -8.574  11.097  65.445  1.00  0.00    -0.009 A  
HETATM   10  H2  UNK A   0      -8.247   8.504  62.322  1.00  0.00     0.000 HD 
HETATM   11  N   UNK A   0      -8.561  10.056  64.584  1.00  0.00    -0.167 NA 
HETATM   12  H1  UNK A   0      -8.363   6.857  62.419  1.00  0.00     0.000 HD 
HETATM   13  C   UNK A   0      -7.635   9.075  64.817  1.00  0.00    -0.105 A  
HETATM   14  C   UNK A   0      -7.579   7.896  64.084  1.00  0.00    -0.112 A  
HETATM   15  N   UNK A   0      -8.404   7.722  62.958  1.00  0.00    -0.014 NA 
HETATM   16  N   UNK A   0      -6.748   6.881  64.353  1.00  0.00    -0.045 NA 
ENDROOT
BRANCH   9  17
HETATM   17  C   UNK A   0      -9.704  12.091  65.326  1.00  0.00    -0.183 C  
HETATM   18  C   UNK A   0     -10.429  11.601  67.720  1.00  0.00    -0.213 A  
HETATM   19  C   UNK A   0     -11.385  10.604  67.458  1.00  0.00    -0.241 A  
HETATM   20  C   UNK A   0      -9.681  11.523  68.904  1.00  0.00    -0.069 A  
HETATM   21  C   UNK A   0     -10.121  12.698  66.696  1.00  0.00    -0.248 C  
HETATM   22  C   UNK A   0      -9.796  10.414  69.743  1.00  0.00    -0.134 A  
HETATM   23  C   UNK A   0     -11.504   9.493  68.298  1.00  0.00     0.422 A  
HETATM   24  C   UNK A   0     -11.317  13.663  66.580  1.00  0.00    -0.343 C  
HETATM   25  C   UNK A   0     -10.663   9.371  69.409  1.00  0.00    -0.234 A  
BRANCH  24  26
HETATM   26  C   UNK A   0     -11.072  14.808  65.685  1.00  0.00    -0.342 C  
HETATM   27  C   UNK A   0     -10.939  15.766  64.972  1.00  0.00    -0.431 C  
ENDBRANCH  24  26
BRANCH  25  28
HETATM   28  C   UNK A   0     -10.684   8.115  70.200  1.00  0.00    -0.243 C  
HETATM   29  O   UNK A   0     -11.369   8.015  71.210  1.00  0.00    -0.254 OA 
ATOM     30  N   GLU A   1      -9.926   7.065  69.687  1.00  0.00    -0.171 N  
ATOM     31  H   GLU A   1      -9.307   7.218  68.890  1.00  0.00     0.000 HD 
BRANCH  30  32
ATOM     32  CA  GLU A   1     -10.027   5.728  70.308  1.00  0.00    -0.198 C  
ATOM     33  O   GLU A   1      -7.857   6.391  71.144  1.00  0.00    -0.109 OA 
ATOM     34  C   GLU A   1      -8.919   5.576  71.369  1.00  0.00    -0.139 C  
ATOM     35  OXT GLU A   1      -8.907   4.713  72.235  1.00  0.00    -0.120 OA 
BRANCH  32  36
ATOM     36  CB  GLU A   1      -9.882   4.631  69.239  1.00  0.00    -0.260 C  
BRANCH  36  37
ATOM     37  CG  GLU A   1     -10.169   5.127  67.817  1.00  0.00    -0.190 C  
ATOM     38  CD  GLU A   1      -9.114   4.703  66.826  1.00  0.00    -0.120 C  
ATOM     39  OE2 GLU A   1      -8.122   4.045  67.090  1.00  0.00    -0.095 OA 
ATOM     40  OE1 GLU A   1      -9.389   5.130  65.572  1.00  0.00    -0.161 OA 
ENDBRANCH  36  37
ENDBRANCH  32  36
ENDBRANCH  30  32
ENDBRANCH  25  28
ENDBRANCH   9  17
TORSDOF 6
ENDMDL
MODEL      159
REMARK 921   NORMALIZED FREE ENERGY PREDICTED BY IDOCK:   -3.43 KCAL/MOL
REMARK 922        TOTAL FREE ENERGY PREDICTED BY IDOCK:   -6.05 KCAL/MOL
REMARK 923 INTER-LIGAND FREE ENERGY PREDICTED BY IDOCK:   -5.17 KCAL/MOL
REMARK 924 INTRA-LIGAND FREE ENERGY PREDICTED BY IDOCK:   -0.88 KCAL/MOL
REMARK 927      BINDING AFFINITY PREDICTED BY RF-SCORE:    0.00 PKD
ROOT
HETATM    1  N   UNK A   0      -9.296   4.849  70.688  1.00  0.00    -0.152 NA 
HETATM    2  C   UNK A   0      -9.344   6.213  70.523  1.00  0.00    -0.161 A  
HETATM    3  H2  UNK A   0      -9.950   4.237  70.202  1.00  0.00     0.000 HD 
HETATM    4  H1  UNK A   0      -8.584   4.471  71.312  1.00  0.00     0.000 HD 
HETATM    5  N   UNK A   0     -10.271   6.707  69.710  1.00  0.00    -0.182 NA 
HETATM    6  C   UNK A   0     -10.264   8.019  69.484  1.00  0.00    -0.209 A  
HETATM    7  N   UNK A   0     -11.142   8.506  68.601  1.00  0.00     0.211 NA 
HETATM    8  C   UNK A   0     -11.072   9.822  68.288  1.00  0.00    -0.102 A  
HETATM    9  C   UNK A   0     -10.146  10.683  68.857  1.00  0.00    -0.202 A  
HETATM   10  H2  UNK A   0      -8.013   9.729  72.192  1.00  0.00     0.000 HD 
HETATM   11  N   UNK A   0      -9.286  10.225  69.793  1.00  0.00    -0.140 NA 
HETATM   12  H1  UNK A   0      -6.858   8.549  72.294  1.00  0.00     0.000 HD 
HETATM   13  C   UNK A   0      -9.350   8.889  70.086  1.00  0.00    -0.180 A  
HETATM   14  C   UNK A   0      -8.456   8.258  70.943  1.00  0.00    -0.132 A  
HETATM   15  N   UNK A   0      -7.514   9.012  71.665  1.00  0.00    -0.326 NA 
HETATM   16  N   UNK A   0      -8.437   6.938  71.171  1.00  0.00    -0.123 NA 
ENDROOT
BRANCH   9  17
HETATM   17  C   UNK A   0      -9.967  12.103  68.377  1.00  0.00    -0.206 C  
HETATM   18  C   UNK A   0      -9.224  11.270  66.085  1.00  0.00    -0.222 A  
HETATM   19  C   UNK A   0      -7.835  11.252  66.301  1.00  0.00    -0.069 A  
HETATM   20  C   UNK A   0      -9.787  10.305  65.238  1.00  0.00    -0.372 A  
HETATM   21  C   UNK A   0     -10.134  12.247  66.837  1.00  0.00    -0.224 C  
HETATM   22  C   UNK A   0      -9.002   9.275  64.716  1.00  0.00    -0.217 A  
HETATM   23  C   UNK A   0      -7.046  10.223  65.778  1.00  0.00    -0.132 A  
HETATM   24  C   UNK A   0      -9.887  13.685  66.343  1.00  0.00    -0.302 C  
HETATM   25  C   UNK A   0      -7.644   9.201  65.036  1.00  0.00    -0.106 A  
BRANCH  24  26
HETATM   26  C   UNK A   0     -10.790  14.683  66.945  1.00  0.00    -0.305 C  
HETATM   27  C   UNK A   0     -11.511  15.466  67.502  1.00  0.00    -0.228 C  
ENDBRANCH  24  26
BRANCH  25  28
HETATM   28  C   UNK A   0      -6.829   8.031  64.624  1.00  0.00    -0.063 C  
HETATM   29  O   UNK A   0      -5.739   8.177  64.086  1.00  0.00    -0.054 OA 
ATOM     30  N   GLU A   1      -7.361   6.783  64.940  1.00  0.00    -0.081 N  
ATOM     31  H   GLU A   1      -8.308   6.706  65.313  1.00  0.00     0.000 HD 
BRANCH  30  32
ATOM     32  CA  GLU A   1      -6.541   5.572  64.728  1.00  0.00    -0.043 C  
ATOM     33  O   GLU A   1      -7.639   5.686  62.577  1.00  0.00    -0.054 OA 
ATOM     34  C   GLU A   1      -6.551   5.206  63.231  1.00  0.00    -0.026 C  
ATOM     35  OXT GLU A   1      -5.760   4.438  62.703  1.00  0.00    -0.012 OA 
BRANCH  32  36
ATOM     36  CB  GLU A   1      -7.097   4.400  65.557  1.00  0.00    -0.067 C  
BRANCH  36  37
ATOM     37  CG  GLU A   1      -8.410   3.834  65.002  1.00  0.00    -0.101 C  
ATOM     38  CD  GLU A   1      -9.620   4.612  65.457  1.00  0.00    -0.179 C  
ATOM     39  OE2 GLU A   1      -9.597   5.585  66.192  1.00  0.00    -0.157 OA 
ATOM     40  OE1 GLU A   1     -10.769   4.115  64.945  1.00  0.00    -0.250 OA 
ENDBRANCH  36  37
ENDBRANCH  32  36
ENDBRANCH  30  32
ENDBRANCH  25  28
ENDBRANCH   9  17
TORSDOF 6
ENDMDL
MODEL      160
REMARK 921   NORMALIZED FREE ENERGY PREDICTED BY IDOCK:   -3.42 KCAL/MOL
REMARK 922        TOTAL FREE ENERGY PREDICTED BY IDOCK:   -6.04 KCAL/MOL
REMARK 923 INTER-LIGAND FREE ENERGY PREDICTED BY IDOCK:   -5.29 KCAL/MOL
REMARK 924 INTRA-LIGAND FREE ENERGY PREDICTED BY IDOCK:   -0.75 KCAL/MOL
REMARK 927      BINDING AFFINITY PREDICTED BY RF-SCORE:    0.00 PKD
ROOT
HETATM    1  N   UNK A   0      -6.621   4.602  64.373  1.00  0.00    -0.042 NA 
HETATM    2  C   UNK A   0      -6.933   5.938  64.445  1.00  0.00    -0.051 A  
HETATM    3  H2  UNK A   0      -6.088   4.145  65.113  1.00  0.00     0.000 HD 
HETATM    4  H1  UNK A   0      -6.942   4.082  63.556  1.00  0.00     0.000 HD 
HETATM    5  N   UNK A   0      -6.516   6.615  65.510  1.00  0.00    -0.048 NA 
HETATM    6  C   UNK A   0      -6.890   7.888  65.621  1.00  0.00    -0.052 A  
HETATM    7  N   UNK A   0      -6.543   8.547  66.732  1.00  0.00    -0.057 NA 
HETATM    8  C   UNK A   0      -7.006   9.808  66.900  1.00  0.00    -0.088 A  
HETATM    9  C   UNK A   0      -7.805  10.447  65.963  1.00  0.00    -0.142 A  
HETATM   10  H2  UNK A   0      -8.241   9.090  62.149  1.00  0.00     0.000 HD 
HETATM   11  N   UNK A   0      -8.121   9.823  64.808  1.00  0.00    -0.137 NA 
HETATM   12  H1  UNK A   0      -8.987   7.683  61.705  1.00  0.00     0.000 HD 
HETATM   13  C   UNK A   0      -7.666   8.540  64.658  1.00  0.00    -0.116 A  
HETATM   14  C   UNK A   0      -8.006   7.738  63.576  1.00  0.00    -0.104 A  
HETATM   15  N   UNK A   0      -8.738   8.272  62.500  1.00  0.00    -0.021 NA 
HETATM   16  N   UNK A   0      -7.654   6.451  63.453  1.00  0.00    -0.081 NA 
ENDROOT
BRANCH   9  17
HETATM   17  C   UNK A   0      -8.453  11.784  66.237  1.00  0.00    -0.022 C  
HETATM   18  C   UNK A   0      -9.230  10.975  68.526  1.00  0.00    -0.177 A  
HETATM   19  C   UNK A   0     -10.510  10.516  68.171  1.00  0.00    -0.217 A  
HETATM   20  C   UNK A   0      -8.534  10.308  69.544  1.00  0.00    -0.156 A  
HETATM   21  C   UNK A   0      -8.548  12.110  67.755  1.00  0.00    -0.164 C  
HETATM   22  C   UNK A   0      -9.050   9.140  70.107  1.00  0.00    -0.229 A  
HETATM   23  C   UNK A   0     -11.031   9.348  68.735  1.00  0.00    -0.080 A  
HETATM   24  C   UNK A   0      -9.268  13.444  68.033  1.00  0.00    -0.209 C  
HETATM   25  C   UNK A   0     -10.270   8.627  69.660  1.00  0.00    -0.208 A  
BRANCH  24  26
HETATM   26  C   UNK A   0      -8.619  14.610  67.406  1.00  0.00    -0.212 C  
HETATM   27  C   UNK A   0      -8.031  15.546  66.936  1.00  0.00    -0.264 C  
ENDBRANCH  24  26
BRANCH  25  28
HETATM   28  C   UNK A   0     -10.759   7.307  70.130  1.00  0.00    -0.244 C  
HETATM   29  O   UNK A   0     -11.544   6.649  69.460  1.00  0.00    -0.297 OA 
ATOM     30  N   GLU A   1     -10.225   6.860  71.337  1.00  0.00    -0.197 N  
ATOM     31  H   GLU A   1      -9.639   7.476  71.900  1.00  0.00     0.000 HD 
BRANCH  30  32
ATOM     32  CA  GLU A   1     -10.518   5.485  71.792  1.00  0.00    -0.228 C  
ATOM     33  O   GLU A   1     -10.326   6.581  73.938  1.00  0.00    -0.286 OA 
ATOM     34  C   GLU A   1     -10.855   5.508  73.296  1.00  0.00    -0.293 C  
ATOM     35  OXT GLU A   1     -11.402   4.594  73.895  1.00  0.00    -0.242 OA 
BRANCH  32  36
ATOM     36  CB  GLU A   1      -9.306   4.571  71.542  1.00  0.00    -0.203 C  
BRANCH  36  37
ATOM     37  CG  GLU A   1      -8.338   5.121  70.487  1.00  0.00    -0.110 C  
ATOM     38  CD  GLU A   1      -8.527   4.485  69.132  1.00  0.00    -0.079 C  
ATOM     39  OE2 GLU A   1      -9.342   3.618  68.868  1.00  0.00    -0.148 OA 
ATOM     40  OE1 GLU A   1      -7.682   4.994  68.206  1.00  0.00    -0.081 OA 
ENDBRANCH  36  37
ENDBRANCH  32  36
ENDBRANCH  30  32
ENDBRANCH  25  28
ENDBRANCH   9  17
TORSDOF 6
ENDMDL
MODEL      161
REMARK 921   NORMALIZED FREE ENERGY PREDICTED BY IDOCK:   -3.42 KCAL/MOL
REMARK 922        TOTAL FREE ENERGY PREDICTED BY IDOCK:   -6.03 KCAL/MOL
REMARK 923 INTER-LIGAND FREE ENERGY PREDICTED BY IDOCK:   -4.26 KCAL/MOL
REMARK 924 INTRA-LIGAND FREE ENERGY PREDICTED BY IDOCK:   -1.77 KCAL/MOL
REMARK 927      BINDING AFFINITY PREDICTED BY RF-SCORE:    0.00 PKD
ROOT
HETATM    1  N   UNK A   0     -11.343   6.888  66.839  1.00  0.00    -0.713 NA 
HETATM    2  C   UNK A   0     -10.862   8.123  67.201  1.00  0.00    -0.050 A  
HETATM    3  H2  UNK A   0     -11.188   6.515  65.903  1.00  0.00     0.000 HD 
HETATM    4  H1  UNK A   0     -11.859   6.355  67.540  1.00  0.00     0.000 HD 
HETATM    5  N   UNK A   0     -10.189   8.817  66.288  1.00  0.00    -0.206 NA 
HETATM    6  C   UNK A   0      -9.650   9.975  66.663  1.00  0.00    -0.186 A  
HETATM    7  N   UNK A   0      -8.901  10.634  65.771  1.00  0.00    -0.178 NA 
HETATM    8  C   UNK A   0      -8.265  11.758  66.176  1.00  0.00     0.159 A  
HETATM    9  C   UNK A   0      -8.373  12.263  67.463  1.00  0.00    -0.170 A  
HETATM   10  H2  UNK A   0     -11.255  11.044  70.070  1.00  0.00     0.000 HD 
HETATM   11  N   UNK A   0      -9.169  11.646  68.364  1.00  0.00    -0.186 NA 
HETATM   12  H1  UNK A   0     -11.376   9.536  70.738  1.00  0.00     0.000 HD 
HETATM   13  C   UNK A   0      -9.790  10.498  67.952  1.00  0.00    -0.160 A  
HETATM   14  C   UNK A   0     -10.546   9.699  68.802  1.00  0.00    -0.216 A  
HETATM   15  N   UNK A   0     -10.821  10.122  70.114  1.00  0.00    -0.294 NA 
HETATM   16  N   UNK A   0     -11.083   8.523  68.449  1.00  0.00     0.235 NA 
ENDROOT
BRANCH   9  17
HETATM   17  C   UNK A   0      -7.529  13.417  67.949  1.00  0.00    -0.149 C  
HETATM   18  C   UNK A   0      -5.817  11.798  68.920  1.00  0.00    -0.052 A  
HETATM   19  C   UNK A   0      -6.316  11.715  70.232  1.00  0.00     0.020 A  
HETATM   20  C   UNK A   0      -5.208  10.667  68.358  1.00  0.00    -0.033 A  
HETATM   21  C   UNK A   0      -6.021  13.055  68.068  1.00  0.00    -0.112 C  
HETATM   22  C   UNK A   0      -5.207   9.449  69.042  1.00  0.00    -0.037 A  
HETATM   23  C   UNK A   0      -6.315  10.498  70.919  1.00  0.00     0.123 A  
HETATM   24  C   UNK A   0      -5.173  14.214  68.625  1.00  0.00    -0.091 C  
HETATM   25  C   UNK A   0      -5.814   9.351  70.296  1.00  0.00    -0.038 A  
BRANCH  24  26
HETATM   26  C   UNK A   0      -5.233  15.440  67.809  1.00  0.00    -0.095 C  
HETATM   27  C   UNK A   0      -5.262  16.398  67.085  1.00  0.00    -0.074 C  
ENDBRANCH  24  26
BRANCH  25  28
HETATM   28  C   UNK A   0      -5.965   8.036  70.968  1.00  0.00    -0.033 C  
HETATM   29  O   UNK A   0      -5.155   7.657  71.804  1.00  0.00    -0.034 OA 
ATOM     30  N   GLU A   1      -7.101   7.308  70.622  1.00  0.00    -0.064 N  
ATOM     31  H   GLU A   1      -7.704   7.624  69.861  1.00  0.00     0.000 HD 
BRANCH  30  32
ATOM     32  CA  GLU A   1      -7.424   6.074  71.367  1.00  0.00    -0.093 C  
ATOM     33  O   GLU A   1      -9.109   5.944  69.638  1.00  0.00    -0.134 OA 
ATOM     34  C   GLU A   1      -8.395   5.215  70.533  1.00  0.00    -0.110 C  
ATOM     35  OXT GLU A   1      -8.626   4.033  70.743  1.00  0.00    -0.070 OA 
BRANCH  32  36
ATOM     36  CB  GLU A   1      -8.066   6.421  72.722  1.00  0.00    -0.107 C  
BRANCH  36  37
ATOM     37  CG  GLU A   1      -9.084   7.565  72.635  1.00  0.00    -0.196 C  
ATOM     38  CD  GLU A   1     -10.455   7.166  73.121  1.00  0.00    -0.321 C  
ATOM     39  OE2 GLU A   1     -10.762   6.061  73.537  1.00  0.00    -0.257 OA 
ATOM     40  OE1 GLU A   1     -11.337   8.189  73.059  1.00  0.00    -0.336 OA 
ENDBRANCH  36  37
ENDBRANCH  32  36
ENDBRANCH  30  32
ENDBRANCH  25  28
ENDBRANCH   9  17
TORSDOF 6
ENDMDL
MODEL      162
REMARK 921   NORMALIZED FREE ENERGY PREDICTED BY IDOCK:   -3.41 KCAL/MOL
REMARK 922        TOTAL FREE ENERGY PREDICTED BY IDOCK:   -6.02 KCAL/MOL
REMARK 923 INTER-LIGAND FREE ENERGY PREDICTED BY IDOCK:   -4.25 KCAL/MOL
REMARK 924 INTRA-LIGAND FREE ENERGY PREDICTED BY IDOCK:   -1.77 KCAL/MOL
REMARK 927      BINDING AFFINITY PREDICTED BY RF-SCORE:    0.00 PKD
ROOT
HETATM    1  N   UNK A   0      -9.152  10.006  62.511  1.00  0.00    -0.272 NA 
HETATM    2  C   UNK A   0      -8.321   9.619  63.535  1.00  0.00    -0.172 A  
HETATM    3  H2  UNK A   0     -10.007   9.491  62.303  1.00  0.00     0.000 HD 
HETATM    4  H1  UNK A   0      -8.885  10.826  61.967  1.00  0.00     0.000 HD 
HETATM    5  N   UNK A   0      -8.669   8.550  64.245  1.00  0.00     0.023 NA 
HETATM    6  C   UNK A   0      -7.910   8.225  65.289  1.00  0.00    -0.120 A  
HETATM    7  N   UNK A   0      -8.305   7.202  66.055  1.00  0.00    -0.128 NA 
HETATM    8  C   UNK A   0      -7.596   6.931  67.176  1.00  0.00    -0.107 A  
HETATM    9  C   UNK A   0      -6.474   7.654  67.551  1.00  0.00    -0.058 A  
HETATM   10  H2  UNK A   0      -4.516  10.156  65.003  1.00  0.00     0.000 HD 
HETATM   11  N   UNK A   0      -6.023   8.655  66.764  1.00  0.00    -0.055 NA 
HETATM   12  H1  UNK A   0      -5.119  11.567  64.385  1.00  0.00     0.000 HD 
HETATM   13  C   UNK A   0      -6.759   8.936  65.644  1.00  0.00    -0.072 A  
HETATM   14  C   UNK A   0      -6.480  10.007  64.804  1.00  0.00    -0.127 A  
HETATM   15  N   UNK A   0      -5.323  10.781  65.001  1.00  0.00    -0.147 NA 
HETATM   16  N   UNK A   0      -7.240  10.360  63.758  1.00  0.00    -0.051 NA 
ENDROOT
BRANCH   9  17
HETATM   17  C   UNK A   0      -5.795   7.452  68.885  1.00  0.00    -0.023 C  
HETATM   18  C   UNK A   0      -7.141   9.367  69.895  1.00  0.00    -0.075 A  
HETATM   19  C   UNK A   0      -6.227  10.413  69.678  1.00  0.00    -0.058 A  
HETATM   20  C   UNK A   0      -8.513   9.648  69.838  1.00  0.00    -0.211 A  
HETATM   21  C   UNK A   0      -6.668   7.922  70.084  1.00  0.00    -0.038 C  
HETATM   22  C   UNK A   0      -8.962  10.913  69.453  1.00  0.00     0.104 A  
HETATM   23  C   UNK A   0      -6.673  11.681  69.294  1.00  0.00    -0.115 A  
HETATM   24  C   UNK A   0      -5.947   7.776  71.438  1.00  0.00    -0.035 C  
HETATM   25  C   UNK A   0      -8.042  11.911  69.123  1.00  0.00     0.290 A  
BRANCH  24  26
HETATM   26  C   UNK A   0      -5.540   6.393  71.747  1.00  0.00    -0.031 C  
HETATM   27  C   UNK A   0      -5.202   5.286  72.070  1.00  0.00    -0.009 C  
ENDBRANCH  24  26
BRANCH  25  28
HETATM   28  C   UNK A   0      -8.495  13.208  68.561  1.00  0.00    -0.058 C  
HETATM   29  O   UNK A   0      -7.716  13.950  67.977  1.00  0.00    -0.122 OA 
ATOM     30  N   GLU A   1      -9.853  13.483  68.696  1.00  0.00    -0.379 N  
ATOM     31  H   GLU A   1     -10.448  12.876  69.260  1.00  0.00     0.000 HD 
BRANCH  30  32
ATOM     32  CA  GLU A   1     -10.424  14.663  68.013  1.00  0.00    -0.236 C  
ATOM     33  O   GLU A   1     -11.990  14.470  69.845  1.00  0.00    -0.289 OA 
ATOM     34  C   GLU A   1     -11.466  15.328  68.934  1.00  0.00    -0.332 C  
ATOM     35  OXT GLU A   1     -11.903  16.460  68.778  1.00  0.00    -0.201 OA 
BRANCH  32  36
ATOM     36  CB  GLU A   1     -11.087  14.245  66.689  1.00  0.00    -0.321 C  
BRANCH  36  37
ATOM     37  CG  GLU A   1     -11.745  12.861  66.751  1.00  0.00    -0.445 C  
ATOM     38  CD  GLU A   1     -10.835  11.759  66.267  1.00  0.00    -0.281 C  
ATOM     39  OE2 GLU A   1      -9.698  11.914  65.856  1.00  0.00    -0.231 OA 
ATOM     40  OE1 GLU A   1     -11.420  10.542  66.346  1.00  0.00     0.131 OA 
ENDBRANCH  36  37
ENDBRANCH  32  36
ENDBRANCH  30  32
ENDBRANCH  25  28
ENDBRANCH   9  17
TORSDOF 6
ENDMDL
MODEL      163
REMARK 921   NORMALIZED FREE ENERGY PREDICTED BY IDOCK:   -3.39 KCAL/MOL
REMARK 922        TOTAL FREE ENERGY PREDICTED BY IDOCK:   -5.98 KCAL/MOL
REMARK 923 INTER-LIGAND FREE ENERGY PREDICTED BY IDOCK:   -6.48 KCAL/MOL
REMARK 924 INTRA-LIGAND FREE ENERGY PREDICTED BY IDOCK:    0.50 KCAL/MOL
REMARK 927      BINDING AFFINITY PREDICTED BY RF-SCORE:    0.00 PKD
ROOT
HETATM    1  N   UNK A   0     -12.773  12.638  70.870  1.00  0.00    -0.246 NA 
HETATM    2  C   UNK A   0     -12.562  11.313  71.167  1.00  0.00    -0.397 A  
HETATM    3  H2  UNK A   0     -12.083  13.178  70.349  1.00  0.00     0.000 HD 
HETATM    4  H1  UNK A   0     -13.645  13.063  71.187  1.00  0.00     0.000 HD 
HETATM    5  N   UNK A   0     -11.427  10.759  70.752  1.00  0.00    -0.240 NA 
HETATM    6  C   UNK A   0     -11.259   9.456  70.965  1.00  0.00    -0.342 A  
HETATM    7  N   UNK A   0     -10.156   8.879  70.475  1.00  0.00    -0.194 NA 
HETATM    8  C   UNK A   0     -10.028   7.536  70.596  1.00  0.00    -0.183 A  
HETATM    9  C   UNK A   0     -10.978   6.743  71.221  1.00  0.00    -0.249 A  
HETATM   10  H2  UNK A   0     -13.915   8.276  73.588  1.00  0.00     0.000 HD 
HETATM   11  N   UNK A   0     -12.072   7.310  71.773  1.00  0.00    -0.305 NA 
HETATM   12  H1  UNK A   0     -15.166   9.230  73.078  1.00  0.00     0.000 HD 
HETATM   13  C   UNK A   0     -12.204   8.665  71.626  1.00  0.00    -0.333 A  
HETATM   14  C   UNK A   0     -13.329   9.366  72.043  1.00  0.00    -0.450 A  
HETATM   15  N   UNK A   0     -14.340   8.716  72.772  1.00  0.00    -0.480 NA 
HETATM   16  N   UNK A   0     -13.523  10.674  71.824  1.00  0.00    -0.286 NA 
ENDROOT
BRANCH   9  17
HETATM   17  C   UNK A   0     -10.906   5.235  71.200  1.00  0.00    -0.131 C  
HETATM   18  C   UNK A   0      -8.491   5.329  70.390  1.00  0.00    -0.116 A  
HETATM   19  C   UNK A   0      -8.723   5.258  69.005  1.00  0.00    -0.104 A  
HETATM   20  C   UNK A   0      -7.401   6.081  70.852  1.00  0.00    -0.082 A  
HETATM   21  C   UNK A   0      -9.459   4.696  71.394  1.00  0.00    -0.217 C  
HETATM   22  C   UNK A   0      -6.637   6.841  69.964  1.00  0.00    -0.044 A  
HETATM   23  C   UNK A   0      -7.959   6.017  68.114  1.00  0.00    -0.110 A  
HETATM   24  C   UNK A   0      -9.379   3.160  71.307  1.00  0.00    -0.207 C  
HETATM   25  C   UNK A   0      -6.954   6.856  68.604  1.00  0.00    -0.076 A  
BRANCH  24  26
HETATM   26  C   UNK A   0     -10.210   2.465  72.308  1.00  0.00    -0.207 C  
HETATM   27  C   UNK A   0     -10.940   1.947  73.108  1.00  0.00    -0.261 C  
ENDBRANCH  24  26
BRANCH  25  28
HETATM   28  C   UNK A   0      -6.258   7.776  67.670  1.00  0.00    -0.050 C  
HETATM   29  O   UNK A   0      -5.214   7.449  67.120  1.00  0.00    -0.017 OA 
ATOM     30  N   GLU A   1      -6.898   8.990  67.430  1.00  0.00    -0.076 N  
ATOM     31  H   GLU A   1      -7.721   9.254  67.972  1.00  0.00     0.000 HD 
BRANCH  30  32
ATOM     32  CA  GLU A   1      -6.372   9.891  66.384  1.00  0.00    -0.071 C  
ATOM     33  O   GLU A   1      -6.905  11.526  68.083  1.00  0.00    -0.064 OA 
ATOM     34  C   GLU A   1      -6.139  11.290  66.988  1.00  0.00    -0.108 C  
ATOM     35  OXT GLU A   1      -5.462  12.164  66.465  1.00  0.00    -0.305 OA 
BRANCH  32  36
ATOM     36  CB  GLU A   1      -7.365   9.986  65.213  1.00  0.00    -0.137 C  
BRANCH  36  37
ATOM     37  CG  GLU A   1      -8.180   8.704  65.003  1.00  0.00    -0.159 C  
ATOM     38  CD  GLU A   1      -7.487   7.712  64.102  1.00  0.00    -0.102 C  
ATOM     39  OE2 GLU A   1      -6.402   7.879  63.572  1.00  0.00    -0.062 OA 
ATOM     40  OE1 GLU A   1      -8.207   6.578  63.942  1.00  0.00    -0.069 OA 
ENDBRANCH  36  37
ENDBRANCH  32  36
ENDBRANCH  30  32
ENDBRANCH  25  28
ENDBRANCH   9  17
TORSDOF 6
ENDMDL
MODEL      164
REMARK 921   NORMALIZED FREE ENERGY PREDICTED BY IDOCK:   -3.38 KCAL/MOL
REMARK 922        TOTAL FREE ENERGY PREDICTED BY IDOCK:   -5.97 KCAL/MOL
REMARK 923 INTER-LIGAND FREE ENERGY PREDICTED BY IDOCK:   -5.92 KCAL/MOL
REMARK 924 INTRA-LIGAND FREE ENERGY PREDICTED BY IDOCK:   -0.06 KCAL/MOL
REMARK 927      BINDING AFFINITY PREDICTED BY RF-SCORE:    0.00 PKD
ROOT
HETATM    1  N   UNK A   0      -5.584  18.285  65.288  1.00  0.00    -0.172 NA 
HETATM    2  C   UNK A   0      -6.581  17.847  66.126  1.00  0.00    -0.271 A  
HETATM    3  H2  UNK A   0      -5.193  17.675  64.571  1.00  0.00     0.000 HD 
HETATM    4  H1  UNK A   0      -5.249  19.241  65.407  1.00  0.00     0.000 HD 
HETATM    5  N   UNK A   0      -7.018  16.601  65.971  1.00  0.00     0.136 NA 
HETATM    6  C   UNK A   0      -8.042  16.204  66.724  1.00  0.00    -0.270 A  
HETATM    7  N   UNK A   0      -8.538  14.981  66.511  1.00  0.00    -0.217 NA 
HETATM    8  C   UNK A   0      -9.643  14.609  67.200  1.00  0.00    -0.233 A  
HETATM    9  C   UNK A   0     -10.265  15.432  68.126  1.00  0.00    -0.230 A  
HETATM   10  H2  UNK A   0      -8.491  18.765  69.652  1.00  0.00     0.000 HD 
HETATM   11  N   UNK A   0      -9.750  16.650  68.399  1.00  0.00    -0.235 NA 
HETATM   12  H1  UNK A   0      -8.121  20.135  68.803  1.00  0.00     0.000 HD 
HETATM   13  C   UNK A   0      -8.645  17.026  67.682  1.00  0.00    -0.210 A  
HETATM   14  C   UNK A   0      -8.075  18.290  67.775  1.00  0.00    -0.250 A  
HETATM   15  N   UNK A   0      -8.539  19.207  68.734  1.00  0.00    -0.358 NA 
HETATM   16  N   UNK A   0      -7.056  18.713  67.015  1.00  0.00    -0.199 NA 
ENDROOT
BRANCH   9  17
HETATM   17  C   UNK A   0     -11.588  15.074  68.760  1.00  0.00    -0.357 C  
HETATM   18  C   UNK A   0     -10.893  12.626  68.902  1.00  0.00    -0.238 A  
HETATM   19  C   UNK A   0     -11.442  12.173  67.690  1.00  0.00    -0.399 A  
HETATM   20  C   UNK A   0      -9.707  12.038  69.366  1.00  0.00     0.761 A  
HETATM   21  C   UNK A   0     -11.504  13.808  69.661  1.00  0.00    -0.300 C  
HETATM   22  C   UNK A   0      -9.022  11.110  68.580  1.00  0.00    -0.168 A  
HETATM   23  C   UNK A   0     -10.759  11.243  66.902  1.00  0.00    -0.319 A  
HETATM   24  C   UNK A   0     -12.868  13.408  70.254  1.00  0.00     0.044 C  
HETATM   25  C   UNK A   0      -9.516  10.758  67.322  1.00  0.00    -0.177 A  
BRANCH  24  26
HETATM   26  C   UNK A   0     -13.486  14.458  71.084  1.00  0.00    -0.368 C  
HETATM   27  C   UNK A   0     -13.996  15.264  71.815  1.00  0.00    -0.638 C  
ENDBRANCH  24  26
BRANCH  25  28
HETATM   28  C   UNK A   0      -8.725   9.899  66.406  1.00  0.00    -0.132 C  
HETATM   29  O   UNK A   0      -7.920  10.384  65.622  1.00  0.00    -0.145 OA 
ATOM     30  N   GLU A   1      -8.923   8.527  66.544  1.00  0.00    -0.151 N  
ATOM     31  H   GLU A   1      -9.662   8.172  67.151  1.00  0.00     0.000 HD 
BRANCH  30  32
ATOM     32  CA  GLU A   1      -8.053   7.592  65.801  1.00  0.00    -0.127 C  
ATOM     33  O   GLU A   1      -9.867   6.091  66.352  1.00  0.00    -0.161 OA 
ATOM     34  C   GLU A   1      -8.839   6.303  65.491  1.00  0.00    -0.029 C  
ATOM     35  OXT GLU A   1      -8.498   5.468  64.665  1.00  0.00    -0.140 OA 
BRANCH  32  36
ATOM     36  CB  GLU A   1      -6.802   7.254  66.631  1.00  0.00    -0.065 C  
BRANCH  36  37
ATOM     37  CG  GLU A   1      -6.970   7.545  68.127  1.00  0.00    -0.072 C  
ATOM     38  CD  GLU A   1      -7.182   6.295  68.945  1.00  0.00    -0.084 C  
ATOM     39  OE2 GLU A   1      -7.230   5.161  68.500  1.00  0.00    -0.060 OA 
ATOM     40  OE1 GLU A   1      -7.308   6.563  70.265  1.00  0.00    -0.083 OA 
ENDBRANCH  36  37
ENDBRANCH  32  36
ENDBRANCH  30  32
ENDBRANCH  25  28
ENDBRANCH   9  17
TORSDOF 6
ENDMDL
MODEL      165
REMARK 921   NORMALIZED FREE ENERGY PREDICTED BY IDOCK:   -3.32 KCAL/MOL
REMARK 922        TOTAL FREE ENERGY PREDICTED BY IDOCK:   -5.90 KCAL/MOL
REMARK 923 INTER-LIGAND FREE ENERGY PREDICTED BY IDOCK:   -5.74 KCAL/MOL
REMARK 924 INTRA-LIGAND FREE ENERGY PREDICTED BY IDOCK:   -0.16 KCAL/MOL
REMARK 927      BINDING AFFINITY PREDICTED BY RF-SCORE:    0.00 PKD
ROOT
HETATM    1  N   UNK A   0      -6.916   3.550  63.737  1.00  0.00    -0.047 NA 
HETATM    2  C   UNK A   0      -6.983   3.617  65.108  1.00  0.00    -0.057 A  
HETATM    3  H2  UNK A   0      -7.604   3.022  63.201  1.00  0.00     0.000 HD 
HETATM    4  H1  UNK A   0      -6.155   4.047  63.274  1.00  0.00     0.000 HD 
HETATM    5  N   UNK A   0      -7.975   2.970  65.712  1.00  0.00    -0.085 NA 
HETATM    6  C   UNK A   0      -8.090   3.104  67.032  1.00  0.00    -0.079 A  
HETATM    7  N   UNK A   0      -9.136   2.524  67.630  1.00  0.00    -0.168 NA 
HETATM    8  C   UNK A   0      -9.318   2.741  68.954  1.00  0.00    -0.153 A  
HETATM    9  C   UNK A   0      -8.459   3.520  69.714  1.00  0.00    -0.053 A  
HETATM   10  H2  UNK A   0      -4.757   4.619  68.419  1.00  0.00     0.000 HD 
HETATM   11  N   UNK A   0      -7.365   4.070  69.143  1.00  0.00    -0.054 NA 
HETATM   12  H1  UNK A   0      -4.441   5.642  67.159  1.00  0.00     0.000 HD 
HETATM   13  C   UNK A   0      -7.201   3.863  67.800  1.00  0.00    -0.063 A  
HETATM   14  C   UNK A   0      -6.187   4.458  67.059  1.00  0.00    -0.036 A  
HETATM   15  N   UNK A   0      -5.185   5.205  67.703  1.00  0.00    -0.007 NA 
HETATM   16  N   UNK A   0      -6.063   4.348  65.730  1.00  0.00    -0.026 NA 
ENDROOT
BRANCH   9  17
HETATM   17  C   UNK A   0      -8.764   3.893  71.145  1.00  0.00    -0.121 C  
HETATM   18  C   UNK A   0     -10.151   5.884  70.365  1.00  0.00    -0.259 A  
HETATM   19  C   UNK A   0      -9.152   6.873  70.404  1.00  0.00    -0.156 A  
HETATM   20  C   UNK A   0     -11.150   5.974  69.385  1.00  0.00    -0.445 A  
HETATM   21  C   UNK A   0     -10.104   4.668  71.295  1.00  0.00    -0.245 C  
HETATM   22  C   UNK A   0     -11.084   6.955  68.394  1.00  0.00    -0.142 A  
HETATM   23  C   UNK A   0      -9.085   7.858  69.414  1.00  0.00    -0.145 A  
HETATM   24  C   UNK A   0     -10.381   5.103  72.747  1.00  0.00    -0.242 C  
HETATM   25  C   UNK A   0     -10.019   7.859  68.374  1.00  0.00    -0.198 A  
BRANCH  24  26
HETATM   26  C   UNK A   0     -10.451   3.981  73.700  1.00  0.00    -0.261 C  
HETATM   27  C   UNK A   0     -10.507   3.116  74.532  1.00  0.00    -0.215 C  
ENDBRANCH  24  26
BRANCH  25  28
HETATM   28  C   UNK A   0      -9.845   8.804  67.243  1.00  0.00    -0.201 C  
HETATM   29  O   UNK A   0     -10.140   8.483  66.099  1.00  0.00    -0.221 OA 
ATOM     30  N   GLU A   1      -9.384  10.074  67.583  1.00  0.00    -0.143 N  
ATOM     31  H   GLU A   1      -9.074  10.272  68.535  1.00  0.00     0.000 HD 
BRANCH  30  32
ATOM     32  CA  GLU A   1      -9.350  11.132  66.551  1.00  0.00    -0.180 C  
ATOM     33  O   GLU A   1     -11.688  11.243  67.154  1.00  0.00    -0.533 OA 
ATOM     34  C   GLU A   1     -10.660  11.941  66.609  1.00  0.00    -0.238 C  
ATOM     35  OXT GLU A   1     -10.819  13.035  66.086  1.00  0.00    -0.276 OA 
BRANCH  32  36
ATOM     36  CB  GLU A   1      -9.181  10.509  65.154  1.00  0.00    -0.243 C  
BRANCH  36  37
ATOM     37  CG  GLU A   1      -7.718  10.420  64.703  1.00  0.00    -0.063 C  
ATOM     38  CD  GLU A   1      -7.502   9.392  63.620  1.00  0.00    -0.111 C  
ATOM     39  OE2 GLU A   1      -8.368   8.684  63.138  1.00  0.00    -0.185 OA 
ATOM     40  OE1 GLU A   1      -6.211   9.339  63.217  1.00  0.00    -0.089 OA 
ENDBRANCH  36  37
ENDBRANCH  32  36
ENDBRANCH  30  32
ENDBRANCH  25  28
ENDBRANCH   9  17
TORSDOF 6
ENDMDL
MODEL      166
REMARK 921   NORMALIZED FREE ENERGY PREDICTED BY IDOCK:   -3.30 KCAL/MOL
REMARK 922        TOTAL FREE ENERGY PREDICTED BY IDOCK:   -5.87 KCAL/MOL
REMARK 923 INTER-LIGAND FREE ENERGY PREDICTED BY IDOCK:   -4.49 KCAL/MOL
REMARK 924 INTRA-LIGAND FREE ENERGY PREDICTED BY IDOCK:   -1.38 KCAL/MOL
REMARK 927      BINDING AFFINITY PREDICTED BY RF-SCORE:    0.00 PKD
ROOT
HETATM    1  N   UNK A   0     -10.448  11.636  64.142  1.00  0.00    -0.318 NA 
HETATM    2  C   UNK A   0      -9.981  10.436  64.622  1.00  0.00    -0.338 A  
HETATM    3  H2  UNK A   0     -11.267  12.084  64.551  1.00  0.00     0.000 HD 
HETATM    4  H1  UNK A   0      -9.946  12.063  63.363  1.00  0.00     0.000 HD 
HETATM    5  N   UNK A   0     -10.633   9.879  65.637  1.00  0.00     0.090 NA 
HETATM    6  C   UNK A   0     -10.132   8.760  66.158  1.00  0.00    -0.084 A  
HETATM    7  N   UNK A   0     -10.738   8.244  67.232  1.00  0.00    -0.249 NA 
HETATM    8  C   UNK A   0     -10.175   7.167  67.830  1.00  0.00    -0.184 A  
HETATM    9  C   UNK A   0      -9.014   6.570  67.364  1.00  0.00    -0.110 A  
HETATM   10  H2  UNK A   0      -7.492   7.305  63.659  1.00  0.00     0.000 HD 
HETATM   11  N   UNK A   0      -8.415   7.039  66.248  1.00  0.00    -0.128 NA 
HETATM   12  H1  UNK A   0      -6.862   8.745  63.144  1.00  0.00     0.000 HD 
HETATM   13  C   UNK A   0      -8.979   8.141  65.664  1.00  0.00    -0.080 A  
HETATM   14  C   UNK A   0      -8.411   8.798  64.580  1.00  0.00    -0.162 A  
HETATM   15  N   UNK A   0      -7.279   8.262  63.940  1.00  0.00    -0.090 NA 
HETATM   16  N   UNK A   0      -8.890   9.933  64.052  1.00  0.00    -0.210 NA 
ENDROOT
BRANCH   9  17
HETATM   17  C   UNK A   0      -8.306   5.480  68.133  1.00  0.00    -0.099 C  
HETATM   18  C   UNK A   0      -7.730   7.124  69.994  1.00  0.00    -0.103 A  
HETATM   19  C   UNK A   0      -6.459   7.523  69.546  1.00  0.00    -0.036 A  
HETATM   20  C   UNK A   0      -8.530   8.057  70.669  1.00  0.00    -0.125 A  
HETATM   21  C   UNK A   0      -8.290   5.736  69.668  1.00  0.00    -0.112 C  
HETATM   22  C   UNK A   0      -8.123   9.387  70.785  1.00  0.00    -0.157 A  
HETATM   23  C   UNK A   0      -6.048   8.854  69.662  1.00  0.00    -0.039 A  
HETATM   24  C   UNK A   0      -7.511   4.656  70.443  1.00  0.00    -0.050 C  
HETATM   25  C   UNK A   0      -6.910   9.798  70.228  1.00  0.00    -0.123 A  
BRANCH  24  26
HETATM   26  C   UNK A   0      -8.045   3.294  70.263  1.00  0.00    -0.058 C  
HETATM   27  C   UNK A   0      -8.455   2.186  70.047  1.00  0.00    -0.086 C  
ENDBRANCH  24  26
BRANCH  25  28
HETATM   28  C   UNK A   0      -6.533  11.234  70.200  1.00  0.00    -0.069 C  
HETATM   29  O   UNK A   0      -5.724  11.691  70.997  1.00  0.00    -0.339 OA 
ATOM     30  N   GLU A   1      -7.114  11.991  69.185  1.00  0.00    -0.250 N  
ATOM     31  H   GLU A   1      -7.843  11.589  68.596  1.00  0.00     0.000 HD 
BRANCH  30  32
ATOM     32  CA  GLU A   1      -6.663  13.382  68.971  1.00  0.00    -0.108 C  
ATOM     33  O   GLU A   1      -8.980  13.612  68.321  1.00  0.00    -0.185 OA 
ATOM     34  C   GLU A   1      -7.893  14.289  68.769  1.00  0.00    -0.128 C  
ATOM     35  OXT GLU A   1      -7.871  15.509  68.846  1.00  0.00    -0.152 OA 
BRANCH  32  36
ATOM     36  CB  GLU A   1      -5.746  13.462  67.739  1.00  0.00    -0.112 C  
BRANCH  36  37
ATOM     37  CG  GLU A   1      -5.130  12.112  67.352  1.00  0.00    -0.101 C  
ATOM     38  CD  GLU A   1      -6.075  11.246  66.555  1.00  0.00    -0.139 C  
ATOM     39  OE2 GLU A   1      -7.213  11.549  66.241  1.00  0.00    -0.013 OA 
ATOM     40  OE1 GLU A   1      -5.512  10.067  66.203  1.00  0.00    -0.046 OA 
ENDBRANCH  36  37
ENDBRANCH  32  36
ENDBRANCH  30  32
ENDBRANCH  25  28
ENDBRANCH   9  17
TORSDOF 6
ENDMDL
MODEL      167
REMARK 921   NORMALIZED FREE ENERGY PREDICTED BY IDOCK:   -3.29 KCAL/MOL
REMARK 922        TOTAL FREE ENERGY PREDICTED BY IDOCK:   -5.86 KCAL/MOL
REMARK 923 INTER-LIGAND FREE ENERGY PREDICTED BY IDOCK:   -6.58 KCAL/MOL
REMARK 924 INTRA-LIGAND FREE ENERGY PREDICTED BY IDOCK:    0.72 KCAL/MOL
REMARK 927      BINDING AFFINITY PREDICTED BY RF-SCORE:    0.00 PKD
ROOT
HETATM    1  N   UNK A   0      -5.416   9.428  73.937  1.00  0.00    -0.245 NA 
HETATM    2  C   UNK A   0      -5.920   8.941  72.755  1.00  0.00    -0.043 A  
HETATM    3  H2  UNK A   0      -5.693   9.028  74.832  1.00  0.00     0.000 HD 
HETATM    4  H1  UNK A   0      -4.754  10.203  73.888  1.00  0.00     0.000 HD 
HETATM    5  N   UNK A   0      -6.782   7.931  72.818  1.00  0.00    -0.070 NA 
HETATM    6  C   UNK A   0      -7.205   7.404  71.671  1.00  0.00    -0.071 A  
HETATM    7  N   UNK A   0      -8.005   6.334  71.733  1.00  0.00    -0.102 NA 
HETATM    8  C   UNK A   0      -8.356   5.729  70.573  1.00  0.00    -0.119 A  
HETATM    9  C   UNK A   0      -7.937   6.182  69.331  1.00  0.00    -0.104 A  
HETATM   10  H2  UNK A   0      -6.314   9.874  68.768  1.00  0.00     0.000 HD 
HETATM   11  N   UNK A   0      -7.175   7.294  69.241  1.00  0.00    -0.079 NA 
HETATM   12  H1  UNK A   0      -4.855  10.386  69.356  1.00  0.00     0.000 HD 
HETATM   13  C   UNK A   0      -6.807   7.886  70.420  1.00  0.00    -0.041 A  
HETATM   14  C   UNK A   0      -5.936   8.966  70.486  1.00  0.00    -0.033 A  
HETATM   15  N   UNK A   0      -5.495   9.594  69.308  1.00  0.00    -0.035 NA 
HETATM   16  N   UNK A   0      -5.486   9.500  71.630  1.00  0.00    -0.071 NA 
ENDROOT
BRANCH   9  17
HETATM   17  C   UNK A   0      -8.193   5.404  68.063  1.00  0.00    -0.099 C  
HETATM   18  C   UNK A   0      -8.792   7.553  66.828  1.00  0.00    -0.153 A  
HETATM   19  C   UNK A   0     -10.184   7.536  67.026  1.00  0.00    -0.368 A  
HETATM   20  C   UNK A   0      -8.134   8.790  66.776  1.00  0.00    -0.104 A  
HETATM   21  C   UNK A   0      -7.979   6.255  66.778  1.00  0.00    -0.108 C  
HETATM   22  C   UNK A   0      -8.828   9.973  67.036  1.00  0.00    -0.147 A  
HETATM   23  C   UNK A   0     -10.882   8.719  67.285  1.00  0.00    -0.077 A  
HETATM   24  C   UNK A   0      -8.304   5.478  65.488  1.00  0.00    -0.136 C  
HETATM   25  C   UNK A   0     -10.189   9.931  67.350  1.00  0.00    -0.275 A  
BRANCH  24  26
HETATM   26  C   UNK A   0      -7.494   4.260  65.309  1.00  0.00    -0.073 C  
HETATM   27  C   UNK A   0      -6.827   3.263  65.236  1.00  0.00    -0.048 C  
ENDBRANCH  24  26
BRANCH  25  28
HETATM   28  C   UNK A   0     -10.907  11.156  67.784  1.00  0.00    -0.239 C  
HETATM   29  O   UNK A   0     -11.869  11.581  67.156  1.00  0.00    -0.595 OA 
ATOM     30  N   GLU A   1     -10.449  11.738  68.963  1.00  0.00    -0.380 N  
ATOM     31  H   GLU A   1      -9.595  11.399  69.407  1.00  0.00     0.000 HD 
BRANCH  30  32
ATOM     32  CA  GLU A   1     -11.212  12.852  69.564  1.00  0.00    -0.074 C  
ATOM     33  O   GLU A   1     -12.600  11.000  70.262  1.00  0.00    -0.297 OA 
ATOM     34  C   GLU A   1     -12.257  12.282  70.543  1.00  0.00    -0.300 C  
ATOM     35  OXT GLU A   1     -12.842  12.943  71.389  1.00  0.00    -0.367 OA 
BRANCH  32  36
ATOM     36  CB  GLU A   1     -11.915  13.670  68.467  1.00  0.00    -0.396 C  
BRANCH  36  37
ATOM     37  CG  GLU A   1     -11.170  14.960  68.100  1.00  0.00    -0.310 C  
ATOM     38  CD  GLU A   1     -11.256  16.011  69.179  1.00  0.00    -0.342 C  
ATOM     39  OE2 GLU A   1     -11.851  15.890  70.236  1.00  0.00    -0.344 OA 
ATOM     40  OE1 GLU A   1     -10.577  17.135  68.851  1.00  0.00    -0.337 OA 
ENDBRANCH  36  37
ENDBRANCH  32  36
ENDBRANCH  30  32
ENDBRANCH  25  28
ENDBRANCH   9  17
TORSDOF 6
ENDMDL
MODEL      168
REMARK 921   NORMALIZED FREE ENERGY PREDICTED BY IDOCK:   -3.28 KCAL/MOL
REMARK 922        TOTAL FREE ENERGY PREDICTED BY IDOCK:   -5.85 KCAL/MOL
REMARK 923 INTER-LIGAND FREE ENERGY PREDICTED BY IDOCK:   -5.33 KCAL/MOL
REMARK 924 INTRA-LIGAND FREE ENERGY PREDICTED BY IDOCK:   -0.52 KCAL/MOL
REMARK 927      BINDING AFFINITY PREDICTED BY RF-SCORE:    0.00 PKD
ROOT
HETATM    1  N   UNK A   0     -10.838  10.291  62.703  1.00  0.00     0.429 NA 
HETATM    2  C   UNK A   0     -10.041  10.570  63.787  1.00  0.00    -0.184 A  
HETATM    3  H2  UNK A   0     -10.459   9.831  61.875  1.00  0.00     0.000 HD 
HETATM    4  H1  UNK A   0     -11.820  10.558  62.754  1.00  0.00     0.000 HD 
HETATM    5  N   UNK A   0      -8.760  10.221  63.721  1.00  0.00    -0.189 NA 
HETATM    6  C   UNK A   0      -8.008  10.414  64.803  1.00  0.00    -0.103 A  
HETATM    7  N   UNK A   0      -6.741   9.986  64.768  1.00  0.00    -0.123 NA 
HETATM    8  C   UNK A   0      -6.001  10.084  65.898  1.00  0.00    -0.077 A  
HETATM    9  C   UNK A   0      -6.494  10.624  67.076  1.00  0.00    -0.079 A  
HETATM   10  H2  UNK A   0      -9.918  12.823  67.227  1.00  0.00     0.000 HD 
HETATM   11  N   UNK A   0      -7.752  11.114  67.119  1.00  0.00    -0.128 NA 
HETATM   12  H1  UNK A   0     -11.445  12.251  66.946  1.00  0.00     0.000 HD 
HETATM   13  C   UNK A   0      -8.500  10.990  65.978  1.00  0.00    -0.158 A  
HETATM   14  C   UNK A   0      -9.841  11.346  65.910  1.00  0.00    -0.226 A  
HETATM   15  N   UNK A   0     -10.460  11.990  66.996  1.00  0.00    -0.218 NA 
HETATM   16  N   UNK A   0     -10.618  11.146  64.837  1.00  0.00    -0.307 NA 
ENDROOT
BRANCH   9  17
HETATM   17  C   UNK A   0      -5.718  10.573  68.370  1.00  0.00    -0.036 C  
HETATM   18  C   UNK A   0      -6.745  12.785  69.110  1.00  0.00    -0.080 A  
HETATM   19  C   UNK A   0      -5.747  13.656  68.639  1.00  0.00    -0.087 A  
HETATM   20  C   UNK A   0      -8.077  13.222  69.104  1.00  0.00     0.449 A  
HETATM   21  C   UNK A   0      -6.417  11.347  69.525  1.00  0.00    -0.122 C  
HETATM   22  C   UNK A   0      -8.419  14.447  68.529  1.00  0.00    -0.170 A  
HETATM   23  C   UNK A   0      -6.086  14.884  68.064  1.00  0.00    -0.163 A  
HETATM   24  C   UNK A   0      -5.592  11.348  70.826  1.00  0.00    -0.111 C  
HETATM   25  C   UNK A   0      -7.431  15.250  67.955  1.00  0.00    -0.129 A  
BRANCH  24  26
HETATM   26  C   UNK A   0      -5.311  10.000  71.352  1.00  0.00    -0.075 C  
HETATM   27  C   UNK A   0      -5.130   8.915  71.835  1.00  0.00    -0.042 C  
ENDBRANCH  24  26
BRANCH  25  28
HETATM   28  C   UNK A   0      -7.790  16.476  67.200  1.00  0.00    -0.182 C  
HETATM   29  O   UNK A   0      -6.928  17.185  66.697  1.00  0.00    -0.199 OA 
ATOM     30  N   GLU A   1      -9.155  16.723  67.063  1.00  0.00    -0.218 N  
ATOM     31  H   GLU A   1      -9.834  16.153  67.567  1.00  0.00     0.000 HD 
BRANCH  30  32
ATOM     32  CA  GLU A   1      -9.607  17.819  66.181  1.00  0.00    -0.187 C  
ATOM     33  O   GLU A   1     -10.479  18.622  68.288  1.00  0.00    -0.353 OA 
ATOM     34  C   GLU A   1     -10.088  19.001  67.044  1.00  0.00    -0.364 C  
ATOM     35  OXT GLU A   1     -10.257  20.137  66.626  1.00  0.00    -0.442 OA 
BRANCH  32  36
ATOM     36  CB  GLU A   1     -10.750  17.335  65.272  1.00  0.00    -0.019 C  
BRANCH  36  37
ATOM     37  CG  GLU A   1     -10.717  15.825  65.007  1.00  0.00    -0.443 C  
ATOM     38  CD  GLU A   1     -11.954  15.327  64.302  1.00  0.00    -0.223 C  
ATOM     39  OE2 GLU A   1     -12.903  16.018  63.971  1.00  0.00    -0.376 OA 
ATOM     40  OE1 GLU A   1     -11.903  13.998  64.056  1.00  0.00    -0.390 OA 
ENDBRANCH  36  37
ENDBRANCH  32  36
ENDBRANCH  30  32
ENDBRANCH  25  28
ENDBRANCH   9  17
TORSDOF 6
ENDMDL
MODEL      169
REMARK 921   NORMALIZED FREE ENERGY PREDICTED BY IDOCK:   -3.24 KCAL/MOL
REMARK 922        TOTAL FREE ENERGY PREDICTED BY IDOCK:   -5.79 KCAL/MOL
REMARK 923 INTER-LIGAND FREE ENERGY PREDICTED BY IDOCK:   -6.11 KCAL/MOL
REMARK 924 INTRA-LIGAND FREE ENERGY PREDICTED BY IDOCK:    0.31 KCAL/MOL
REMARK 927      BINDING AFFINITY PREDICTED BY RF-SCORE:    0.00 PKD
ROOT
HETATM    1  N   UNK A   0     -12.698  14.258  63.511  1.00  0.00    -0.813 NA 
HETATM    2  C   UNK A   0     -11.786  13.653  64.341  1.00  0.00    -0.411 A  
HETATM    3  H2  UNK A   0     -12.685  15.266  63.360  1.00  0.00     0.000 HD 
HETATM    4  H1  UNK A   0     -13.388  13.665  63.051  1.00  0.00     0.000 HD 
HETATM    5  N   UNK A   0     -10.886  14.426  64.941  1.00  0.00    -0.399 NA 
HETATM    6  C   UNK A   0      -9.949  13.831  65.678  1.00  0.00    -0.255 A  
HETATM    7  N   UNK A   0      -8.993  14.598  66.213  1.00  0.00    -0.163 NA 
HETATM    8  C   UNK A   0      -7.981  13.991  66.875  1.00  0.00     0.209 A  
HETATM    9  C   UNK A   0      -7.905  12.616  67.037  1.00  0.00    -0.038 A  
HETATM   10  H2  UNK A   0     -11.069  10.142  66.362  1.00  0.00     0.000 HD 
HETATM   11  N   UNK A   0      -8.888  11.825  66.554  1.00  0.00    -0.189 NA 
HETATM   12  H1  UNK A   0     -11.767   9.849  64.891  1.00  0.00     0.000 HD 
HETATM   13  C   UNK A   0      -9.896  12.446  65.867  1.00  0.00    -0.252 A  
HETATM   14  C   UNK A   0     -10.911  11.753  65.221  1.00  0.00    -0.295 A  
HETATM   15  N   UNK A   0     -11.022  10.358  65.366  1.00  0.00     0.280 NA 
HETATM   16  N   UNK A   0     -11.853  12.331  64.462  1.00  0.00    -0.368 NA 
ENDROOT
BRANCH   9  17
HETATM   17  C   UNK A   0      -6.690  11.941  67.628  1.00  0.00    -0.105 C  
HETATM   18  C   UNK A   0      -6.359  13.882  69.246  1.00  0.00    -0.112 A  
HETATM   19  C   UNK A   0      -5.463  14.651  68.483  1.00  0.00    -0.102 A  
HETATM   20  C   UNK A   0      -7.273  14.543  70.080  1.00  0.00     0.124 A  
HETATM   21  C   UNK A   0      -6.424  12.358  69.103  1.00  0.00    -0.100 C  
HETATM   22  C   UNK A   0      -7.372  15.935  70.059  1.00  0.00     0.370 A  
HETATM   23  C   UNK A   0      -5.559  16.045  68.462  1.00  0.00    -0.103 A  
HETATM   24  C   UNK A   0      -5.147  11.719  69.681  1.00  0.00    -0.062 C  
HETATM   25  C   UNK A   0      -6.557  16.682  69.205  1.00  0.00    -0.214 A  
BRANCH  24  26
HETATM   26  C   UNK A   0      -5.165  10.244  69.672  1.00  0.00    -0.038 C  
HETATM   27  C   UNK A   0      -5.224   9.046  69.606  1.00  0.00    -0.034 C  
ENDBRANCH  24  26
BRANCH  25  28
HETATM   28  C   UNK A   0      -6.755  18.145  69.051  1.00  0.00    -0.254 C  
HETATM   29  O   UNK A   0      -5.984  18.945  69.566  1.00  0.00    -0.245 OA 
ATOM     30  N   GLU A   1      -7.827  18.528  68.248  1.00  0.00    -0.293 N  
ATOM     31  H   GLU A   1      -8.490  17.831  67.907  1.00  0.00     0.000 HD 
BRANCH  30  32
ATOM     32  CA  GLU A   1      -7.994  19.953  67.894  1.00  0.00    -0.288 C  
ATOM     33  O   GLU A   1      -9.424  18.959  66.218  1.00  0.00    -0.334 OA 
ATOM     34  C   GLU A   1      -9.172  20.098  66.911  1.00  0.00    -0.377 C  
ATOM     35  OXT GLU A   1      -9.729  21.155  66.654  1.00  0.00     0.180 OA 
BRANCH  32  36
ATOM     36  CB  GLU A   1      -6.706  20.498  67.252  1.00  0.00    -0.324 C  
BRANCH  36  37
ATOM     37  CG  GLU A   1      -6.707  20.408  65.721  1.00  0.00    -0.271 C  
ATOM     38  CD  GLU A   1      -6.066  19.142  65.209  1.00  0.00    -0.262 C  
ATOM     39  OE2 GLU A   1      -5.581  18.266  65.905  1.00  0.00    -0.151 OA 
ATOM     40  OE1 GLU A   1      -6.092  19.066  63.859  1.00  0.00    -0.416 OA 
ENDBRANCH  36  37
ENDBRANCH  32  36
ENDBRANCH  30  32
ENDBRANCH  25  28
ENDBRANCH   9  17
TORSDOF 6
ENDMDL
MODEL      170
REMARK 921   NORMALIZED FREE ENERGY PREDICTED BY IDOCK:   -3.23 KCAL/MOL
REMARK 922        TOTAL FREE ENERGY PREDICTED BY IDOCK:   -5.77 KCAL/MOL
REMARK 923 INTER-LIGAND FREE ENERGY PREDICTED BY IDOCK:   -7.36 KCAL/MOL
REMARK 924 INTRA-LIGAND FREE ENERGY PREDICTED BY IDOCK:    1.59 KCAL/MOL
REMARK 927      BINDING AFFINITY PREDICTED BY RF-SCORE:    0.00 PKD
ROOT
HETATM    1  N   UNK A   0      -5.292   7.345  66.116  1.00  0.00    -0.024 NA 
HETATM    2  C   UNK A   0      -6.393   7.801  66.800  1.00  0.00    -0.054 A  
HETATM    3  H2  UNK A   0      -4.402   7.196  66.590  1.00  0.00     0.000 HD 
HETATM    4  H1  UNK A   0      -5.396   7.160  65.118  1.00  0.00     0.000 HD 
HETATM    5  N   UNK A   0      -6.258   8.041  68.100  1.00  0.00    -0.045 NA 
HETATM    6  C   UNK A   0      -7.345   8.400  68.781  1.00  0.00    -0.087 A  
HETATM    7  N   UNK A   0      -7.230   8.560  70.104  1.00  0.00    -0.049 NA 
HETATM    8  C   UNK A   0      -8.351   8.824  70.816  1.00  0.00    -0.160 A  
HETATM    9  C   UNK A   0      -9.602   8.953  70.232  1.00  0.00    -0.186 A  
HETATM   10  H2  UNK A   0     -10.118   9.448  66.223  1.00  0.00     0.000 HD 
HETATM   11  N   UNK A   0      -9.733   8.851  68.891  1.00  0.00    -0.168 NA 
HETATM   12  H1  UNK A   0      -9.781   8.320  65.061  1.00  0.00     0.000 HD 
HETATM   13  C   UNK A   0      -8.598   8.563  68.182  1.00  0.00    -0.138 A  
HETATM   14  C   UNK A   0      -8.602   8.320  66.814  1.00  0.00    -0.127 A  
HETATM   15  N   UNK A   0      -9.778   8.499  66.065  1.00  0.00    -0.188 NA 
HETATM   16  N   UNK A   0      -7.523   7.942  66.114  1.00  0.00    -0.077 NA 
ENDROOT
BRANCH   9  17
HETATM   17  C   UNK A   0     -10.864   9.077  71.051  1.00  0.00    -0.345 C  
HETATM   18  C   UNK A   0     -11.814  10.762  69.391  1.00  0.00    -0.370 A  
HETATM   19  C   UNK A   0     -11.386  11.947  70.015  1.00  0.00    -0.096 A  
HETATM   20  C   UNK A   0     -11.884  10.725  67.991  1.00  0.00     0.047 A  
HETATM   21  C   UNK A   0     -12.099   9.493  70.201  1.00  0.00     0.121 C  
HETATM   22  C   UNK A   0     -11.422  11.801  67.230  1.00  0.00    -0.373 A  
HETATM   23  C   UNK A   0     -10.925  13.026  69.256  1.00  0.00    -0.122 A  
HETATM   24  C   UNK A   0     -13.370   9.683  71.050  1.00  0.00    -0.268 C  
HETATM   25  C   UNK A   0     -10.887  12.926  67.862  1.00  0.00    -0.246 A  
BRANCH  24  26
HETATM   26  C   UNK A   0     -13.774   8.474  71.791  1.00  0.00    -0.444 C  
HETATM   27  C   UNK A   0     -14.127   7.461  72.331  1.00  0.00     0.088 C  
ENDBRANCH  24  26
BRANCH  25  28
HETATM   28  C   UNK A   0     -10.247  14.009  67.074  1.00  0.00    -0.261 C  
HETATM   29  O   UNK A   0      -9.204  13.814  66.462  1.00  0.00    -0.257 OA 
ATOM     30  N   GLU A   1     -10.936  15.219  67.039  1.00  0.00    -0.326 N  
ATOM     31  H   GLU A   1     -11.756  15.362  67.629  1.00  0.00     0.000 HD 
BRANCH  30  32
ATOM     32  CA  GLU A   1     -10.466  16.293  66.140  1.00  0.00    -0.322 C  
ATOM     33  O   GLU A   1     -11.772  15.002  64.567  1.00  0.00    -0.416 OA 
ATOM     34  C   GLU A   1     -11.259  16.233  64.819  1.00  0.00    -0.259 C  
ATOM     35  OXT GLU A   1     -11.302  17.138  63.998  1.00  0.00    -0.797 OA 
BRANCH  32  36
ATOM     36  CB  GLU A   1      -8.963  16.132  65.855  1.00  0.00    -0.241 C  
BRANCH  36  37
ATOM     37  CG  GLU A   1      -8.082  17.061  66.700  1.00  0.00    -0.297 C  
ATOM     38  CD  GLU A   1      -8.648  18.454  66.819  1.00  0.00    -0.276 C  
ATOM     39  OE2 GLU A   1      -9.685  18.840  66.306  1.00  0.00    -0.343 OA 
ATOM     40  OE1 GLU A   1      -7.873  19.257  67.584  1.00  0.00    -0.254 OA 
ENDBRANCH  36  37
ENDBRANCH  32  36
ENDBRANCH  30  32
ENDBRANCH  25  28
ENDBRANCH   9  17
TORSDOF 6
ENDMDL
MODEL      171
REMARK 921   NORMALIZED FREE ENERGY PREDICTED BY IDOCK:   -3.22 KCAL/MOL
REMARK 922        TOTAL FREE ENERGY PREDICTED BY IDOCK:   -5.76 KCAL/MOL
REMARK 923 INTER-LIGAND FREE ENERGY PREDICTED BY IDOCK:   -4.59 KCAL/MOL
REMARK 924 INTRA-LIGAND FREE ENERGY PREDICTED BY IDOCK:   -1.17 KCAL/MOL
REMARK 927      BINDING AFFINITY PREDICTED BY RF-SCORE:    0.00 PKD
ROOT
HETATM    1  N   UNK A   0      -8.706  12.415  68.368  1.00  0.00    -0.292 NA 
HETATM    2  C   UNK A   0      -8.169  11.271  67.828  1.00  0.00    -0.120 A  
HETATM    3  H2  UNK A   0      -9.498  12.883  67.929  1.00  0.00     0.000 HD 
HETATM    4  H1  UNK A   0      -8.285  12.780  69.222  1.00  0.00     0.000 HD 
HETATM    5  N   UNK A   0      -8.717  10.794  66.715  1.00  0.00    -0.141 NA 
HETATM    6  C   UNK A   0      -8.253   9.640  66.240  1.00  0.00    -0.116 A  
HETATM    7  N   UNK A   0      -8.859   9.117  65.168  1.00  0.00    -0.198 NA 
HETATM    8  C   UNK A   0      -8.461   7.895  64.742  1.00  0.00     0.007 A  
HETATM    9  C   UNK A   0      -7.445   7.177  65.354  1.00  0.00    -0.087 A  
HETATM   10  H2  UNK A   0      -4.835   8.866  67.985  1.00  0.00     0.000 HD 
HETATM   11  N   UNK A   0      -6.781   7.711  66.402  1.00  0.00    -0.057 NA 
HETATM   12  H1  UNK A   0      -5.219   9.448  69.485  1.00  0.00     0.000 HD 
HETATM   13  C   UNK A   0      -7.205   8.937  66.840  1.00  0.00    -0.082 A  
HETATM   14  C   UNK A   0      -6.691   9.555  67.974  1.00  0.00    -0.063 A  
HETATM   15  N   UNK A   0      -5.595   8.994  68.653  1.00  0.00    -0.041 NA 
HETATM   16  N   UNK A   0      -7.155  10.707  68.477  1.00  0.00    -0.066 NA 
ENDROOT
BRANCH   9  17
HETATM   17  C   UNK A   0      -7.127   5.751  64.976  1.00  0.00    -0.064 C  
HETATM   18  C   UNK A   0      -8.932   4.895  66.559  1.00  0.00    -0.112 A  
HETATM   19  C   UNK A   0      -8.139   4.686  67.701  1.00  0.00    -0.100 A  
HETATM   20  C   UNK A   0     -10.264   5.299  66.729  1.00  0.00    -0.287 A  
HETATM   21  C   UNK A   0      -8.342   4.794  65.149  1.00  0.00    -0.129 C  
HETATM   22  C   UNK A   0     -10.755   5.605  68.000  1.00  0.00    -0.235 A  
HETATM   23  C   UNK A   0      -8.628   4.989  68.974  1.00  0.00    -0.091 A  
HETATM   24  C   UNK A   0      -7.996   3.328  64.825  1.00  0.00    -0.086 C  
HETATM   25  C   UNK A   0      -9.919   5.508  69.115  1.00  0.00    -0.256 A  
BRANCH  24  26
HETATM   26  C   UNK A   0      -7.509   3.123  63.448  1.00  0.00    -0.058 C  
HETATM   27  C   UNK A   0      -7.052   2.926  62.355  1.00  0.00    -0.035 C  
ENDBRANCH  24  26
BRANCH  25  28
HETATM   28  C   UNK A   0     -10.371   5.978  70.448  1.00  0.00    -0.223 C  
HETATM   29  O   UNK A   0     -11.561   6.030  70.730  1.00  0.00    -0.259 OA 
ATOM     30  N   GLU A   1      -9.359   6.295  71.351  1.00  0.00    -0.152 N  
ATOM     31  H   GLU A   1      -8.385   6.316  71.048  1.00  0.00     0.000 HD 
BRANCH  30  32
ATOM     32  CA  GLU A   1      -9.711   6.601  72.754  1.00  0.00    -0.153 C  
ATOM     33  O   GLU A   1      -7.416   7.360  72.747  1.00  0.00    -0.074 OA 
ATOM     34  C   GLU A   1      -8.614   7.491  73.370  1.00  0.00    -0.166 C  
ATOM     35  OXT GLU A   1      -8.744   8.132  74.403  1.00  0.00    -0.129 OA 
BRANCH  32  36
ATOM     36  CB  GLU A   1      -9.848   5.301  73.565  1.00  0.00    -0.173 C  
BRANCH  36  37
ATOM     37  CG  GLU A   1      -9.547   4.040  72.746  1.00  0.00    -0.177 C  
ATOM     38  CD  GLU A   1     -10.248   2.815  73.280  1.00  0.00    -0.128 C  
ATOM     39  OE2 GLU A   1     -10.975   2.789  74.258  1.00  0.00    -0.152 OA 
ATOM     40  OE1 GLU A   1      -9.991   1.715  72.536  1.00  0.00    -0.098 OA 
ENDBRANCH  36  37
ENDBRANCH  32  36
ENDBRANCH  30  32
ENDBRANCH  25  28
ENDBRANCH   9  17
TORSDOF 6
ENDMDL
MODEL      172
REMARK 921   NORMALIZED FREE ENERGY PREDICTED BY IDOCK:   -3.22 KCAL/MOL
REMARK 922        TOTAL FREE ENERGY PREDICTED BY IDOCK:   -5.76 KCAL/MOL
REMARK 923 INTER-LIGAND FREE ENERGY PREDICTED BY IDOCK:   -5.40 KCAL/MOL
REMARK 924 INTRA-LIGAND FREE ENERGY PREDICTED BY IDOCK:   -0.36 KCAL/MOL
REMARK 927      BINDING AFFINITY PREDICTED BY RF-SCORE:    0.00 PKD
ROOT
HETATM    1  N   UNK A   0     -14.274  10.094  73.032  1.00  0.00     0.305 NA 
HETATM    2  C   UNK A   0     -13.400   9.249  72.392  1.00  0.00    -0.449 A  
HETATM    3  H2  UNK A   0     -13.948  10.956  73.469  1.00  0.00     0.000 HD 
HETATM    4  H1  UNK A   0     -15.259   9.831  73.056  1.00  0.00     0.000 HD 
HETATM    5  N   UNK A   0     -12.117   9.592  72.360  1.00  0.00    -0.008 NA 
HETATM    6  C   UNK A   0     -11.284   8.817  71.667  1.00  0.00    -0.324 A  
HETATM    7  N   UNK A   0     -10.008   9.206  71.563  1.00  0.00    -0.313 NA 
HETATM    8  C   UNK A   0      -9.181   8.480  70.775  1.00  0.00    -0.172 A  
HETATM    9  C   UNK A   0      -9.593   7.347  70.091  1.00  0.00    -0.165 A  
HETATM   10  H2  UNK A   0     -13.079   5.417  70.931  1.00  0.00     0.000 HD 
HETATM   11  N   UNK A   0     -10.862   6.904  70.225  1.00  0.00    -0.244 NA 
HETATM   12  H1  UNK A   0     -14.600   6.020  70.685  1.00  0.00     0.000 HD 
HETATM   13  C   UNK A   0     -11.698   7.656  71.007  1.00  0.00    -0.286 A  
HETATM   14  C   UNK A   0     -13.053   7.385  71.145  1.00  0.00    -0.219 A  
HETATM   15  N   UNK A   0     -13.604   6.219  70.584  1.00  0.00     2.114 NA 
HETATM   16  N   UNK A   0     -13.910   8.160  71.824  1.00  0.00    -0.381 NA 
ENDROOT
BRANCH   9  17
HETATM   17  C   UNK A   0      -8.710   6.647  69.086  1.00  0.00    -0.130 C  
HETATM   18  C   UNK A   0      -8.207   8.866  67.936  1.00  0.00    -0.110 A  
HETATM   19  C   UNK A   0      -9.213   8.834  66.954  1.00  0.00    -0.195 A  
HETATM   20  C   UNK A   0      -7.824  10.105  68.469  1.00  0.00    -0.095 A  
HETATM   21  C   UNK A   0      -7.606   7.575  68.502  1.00  0.00    -0.114 C  
HETATM   22  C   UNK A   0      -8.512  11.269  68.121  1.00  0.00    -0.145 A  
HETATM   23  C   UNK A   0      -9.902   9.998  66.603  1.00  0.00    -0.259 A  
HETATM   24  C   UNK A   0      -6.747   6.877  67.430  1.00  0.00    -0.067 C  
HETATM   25  C   UNK A   0      -9.589  11.206  67.234  1.00  0.00    -0.182 A  
BRANCH  24  26
HETATM   26  C   UNK A   0      -6.051   5.673  67.918  1.00  0.00    -0.025 C  
HETATM   27  C   UNK A   0      -5.531   4.652  68.278  1.00  0.00    -0.015 C  
ENDBRANCH  24  26
BRANCH  25  28
HETATM   28  C   UNK A   0     -10.432  12.400  66.974  1.00  0.00    -0.220 C  
HETATM   29  O   UNK A   0     -11.002  12.982  67.888  1.00  0.00    -0.229 OA 
ATOM     30  N   GLU A   1     -10.477  12.830  65.650  1.00  0.00    -0.273 N  
ATOM     31  H   GLU A   1     -10.055  12.268  64.911  1.00  0.00     0.000 HD 
BRANCH  30  32
ATOM     32  CA  GLU A   1     -11.145  14.109  65.328  1.00  0.00    -0.331 C  
ATOM     33  O   GLU A   1     -11.449  12.961  63.222  1.00  0.00    -0.448 OA 
ATOM     34  C   GLU A   1     -11.932  13.954  64.012  1.00  0.00    -0.387 C  
ATOM     35  OXT GLU A   1     -12.797  14.728  63.630  1.00  0.00    -0.619 OA 
BRANCH  32  36
ATOM     36  CB  GLU A   1     -10.103  15.233  65.185  1.00  0.00    -0.323 C  
BRANCH  36  37
ATOM     37  CG  GLU A   1     -10.662  16.622  65.516  1.00  0.00    -0.234 C  
ATOM     38  CD  GLU A   1      -9.793  17.386  66.484  1.00  0.00    -0.304 C  
ATOM     39  OE2 GLU A   1      -8.758  16.974  66.979  1.00  0.00    -0.207 OA 
ATOM     40  OE1 GLU A   1     -10.286  18.618  66.751  1.00  0.00    -0.348 OA 
ENDBRANCH  36  37
ENDBRANCH  32  36
ENDBRANCH  30  32
ENDBRANCH  25  28
ENDBRANCH   9  17
TORSDOF 6
ENDMDL
MODEL      173
REMARK 921   NORMALIZED FREE ENERGY PREDICTED BY IDOCK:   -3.13 KCAL/MOL
REMARK 922        TOTAL FREE ENERGY PREDICTED BY IDOCK:   -5.63 KCAL/MOL
REMARK 923 INTER-LIGAND FREE ENERGY PREDICTED BY IDOCK:   -6.31 KCAL/MOL
REMARK 924 INTRA-LIGAND FREE ENERGY PREDICTED BY IDOCK:    0.68 KCAL/MOL
REMARK 927      BINDING AFFINITY PREDICTED BY RF-SCORE:    0.00 PKD
ROOT
HETATM    1  N   UNK A   0     -14.262  14.021  72.864  1.00  0.00    -0.295 NA 
HETATM    2  C   UNK A   0     -13.381  14.835  72.193  1.00  0.00    -0.374 A  
HETATM    3  H2  UNK A   0     -14.709  13.232  72.398  1.00  0.00     0.000 HD 
HETATM    4  H1  UNK A   0     -14.452  14.232  73.843  1.00  0.00     0.000 HD 
HETATM    5  N   UNK A   0     -13.133  14.559  70.916  1.00  0.00    -0.361 NA 
HETATM    6  C   UNK A   0     -12.216  15.295  70.290  1.00  0.00    -0.363 A  
HETATM    7  N   UNK A   0     -11.903  14.966  69.032  1.00  0.00    -0.308 NA 
HETATM    8  C   UNK A   0     -10.900  15.642  68.424  1.00  0.00    -0.290 A  
HETATM    9  C   UNK A   0     -10.201  16.668  69.042  1.00  0.00    -0.301 A  
HETATM   10  H2  UNK A   0     -11.514  18.491  72.439  1.00  0.00     0.000 HD 
HETATM   11  N   UNK A   0     -10.537  17.056  70.292  1.00  0.00     0.210 NA 
HETATM   12  H1  UNK A   0     -11.632  17.784  73.929  1.00  0.00     0.000 HD 
HETATM   13  C   UNK A   0     -11.538  16.352  70.906  1.00  0.00    -0.152 A  
HETATM   14  C   UNK A   0     -11.912  16.564  72.227  1.00  0.00    -0.289 A  
HETATM   15  N   UNK A   0     -11.358  17.628  72.959  1.00  0.00     1.190 NA 
HETATM   16  N   UNK A   0     -12.820  15.825  72.880  1.00  0.00    -0.437 NA 
ENDROOT
BRANCH   9  17
HETATM   17  C   UNK A   0      -8.978  17.298  68.419  1.00  0.00    -0.269 C  
HETATM   18  C   UNK A   0      -8.854  15.425  66.694  1.00  0.00    -0.330 A  
HETATM   19  C   UNK A   0      -7.970  14.566  67.370  1.00  0.00    -0.221 A  
HETATM   20  C   UNK A   0      -9.849  14.864  65.881  1.00  0.00    -0.362 A  
HETATM   21  C   UNK A   0      -8.815  16.941  66.913  1.00  0.00    -0.248 C  
HETATM   22  C   UNK A   0     -10.035  13.481  65.841  1.00  0.00    -0.295 A  
HETATM   23  C   UNK A   0      -8.152  13.180  67.330  1.00  0.00    -0.151 A  
HETATM   24  C   UNK A   0      -7.532  17.531  66.298  1.00  0.00    -0.355 C  
HETATM   25  C   UNK A   0      -9.225  12.644  66.612  1.00  0.00    -0.218 A  
BRANCH  24  26
HETATM   26  C   UNK A   0      -7.456  19.001  66.378  1.00  0.00    -0.274 C  
HETATM   27  C   UNK A   0      -7.343  20.191  66.496  1.00  0.00    -0.308 C  
ENDBRANCH  24  26
BRANCH  25  28
HETATM   28  C   UNK A   0      -9.507  11.190  66.707  1.00  0.00    -0.184 C  
HETATM   29  O   UNK A   0     -10.236  10.633  65.896  1.00  0.00    -0.248 OA 
ATOM     30  N   GLU A   1      -8.849  10.513  67.732  1.00  0.00    -0.125 N  
ATOM     31  H   GLU A   1      -8.317  11.030  68.432  1.00  0.00     0.000 HD 
BRANCH  30  32
ATOM     32  CA  GLU A   1      -8.930   9.038  67.793  1.00  0.00    -0.127 C  
ATOM     33  O   GLU A   1      -9.448   9.560  70.096  1.00  0.00    -0.214 OA 
ATOM     34  C   GLU A   1      -9.582   8.621  69.127  1.00  0.00    -0.163 C  
ATOM     35  OXT GLU A   1     -10.035   7.508  69.354  1.00  0.00    -0.172 OA 
BRANCH  32  36
ATOM     36  CB  GLU A   1      -7.525   8.422  67.682  1.00  0.00    -0.094 C  
BRANCH  36  37
ATOM     37  CG  GLU A   1      -7.391   7.423  66.526  1.00  0.00    -0.084 C  
ATOM     38  CD  GLU A   1      -6.099   7.583  65.762  1.00  0.00    -0.038 C  
ATOM     39  OE2 GLU A   1      -5.236   8.410  66.003  1.00  0.00    -0.027 OA 
ATOM     40  OE1 GLU A   1      -5.984   6.683  64.759  1.00  0.00    -0.033 OA 
ENDBRANCH  36  37
ENDBRANCH  32  36
ENDBRANCH  30  32
ENDBRANCH  25  28
ENDBRANCH   9  17
TORSDOF 6
ENDMDL
MODEL      174
REMARK 921   NORMALIZED FREE ENERGY PREDICTED BY IDOCK:   -3.04 KCAL/MOL
REMARK 922        TOTAL FREE ENERGY PREDICTED BY IDOCK:   -5.51 KCAL/MOL
REMARK 923 INTER-LIGAND FREE ENERGY PREDICTED BY IDOCK:   -5.03 KCAL/MOL
REMARK 924 INTRA-LIGAND FREE ENERGY PREDICTED BY IDOCK:   -0.49 KCAL/MOL
REMARK 927      BINDING AFFINITY PREDICTED BY RF-SCORE:    0.00 PKD
ROOT
HETATM    1  N   UNK A   0     -13.763  11.604  63.079  1.00  0.00     0.368 NA 
HETATM    2  C   UNK A   0     -12.667  12.038  63.784  1.00  0.00    -0.400 A  
HETATM    3  H2  UNK A   0     -14.708  11.742  63.436  1.00  0.00     0.000 HD 
HETATM    4  H1  UNK A   0     -13.599  11.140  62.185  1.00  0.00     0.000 HD 
HETATM    5  N   UNK A   0     -12.880  12.644  64.948  1.00  0.00    -0.842 NA 
HETATM    6  C   UNK A   0     -11.825  13.140  65.591  1.00  0.00    -0.387 A  
HETATM    7  N   UNK A   0     -12.045  13.824  66.720  1.00  0.00    -0.422 NA 
HETATM    8  C   UNK A   0     -10.989  14.419  67.324  1.00  0.00    -0.297 A  
HETATM    9  C   UNK A   0      -9.695  14.334  66.834  1.00  0.00    -0.264 A  
HETATM   10  H2  UNK A   0      -8.582  11.610  64.018  1.00  0.00     0.000 HD 
HETATM   11  N   UNK A   0      -9.440  13.602  65.728  1.00  0.00    -0.050 NA 
HETATM   12  H1  UNK A   0      -9.093  11.586  62.445  1.00  0.00     0.000 HD 
HETATM   13  C   UNK A   0     -10.516  13.022  65.112  1.00  0.00    -0.320 A  
HETATM   14  C   UNK A   0     -10.421  12.336  63.907  1.00  0.00    -0.429 A  
HETATM   15  N   UNK A   0      -9.163  12.089  63.330  1.00  0.00    -0.049 NA 
HETATM   16  N   UNK A   0     -11.471  11.844  63.236  1.00  0.00    -0.341 NA 
ENDROOT
BRANCH   9  17
HETATM   17  C   UNK A   0      -8.559  15.138  67.418  1.00  0.00    -0.201 C  
HETATM   18  C   UNK A   0      -7.136  13.034  67.634  1.00  0.00    -0.156 A  
HETATM   19  C   UNK A   0      -7.464  12.685  68.956  1.00  0.00     0.098 A  
HETATM   20  C   UNK A   0      -6.874  12.011  66.712  1.00  0.00     0.046 A  
HETATM   21  C   UNK A   0      -7.166  14.492  67.164  1.00  0.00     0.125 C  
HETATM   22  C   UNK A   0      -7.054  10.673  67.069  1.00  0.00    -0.100 A  
HETATM   23  C   UNK A   0      -7.643  11.346  69.316  1.00  0.00     0.024 A  
HETATM   24  C   UNK A   0      -6.016  15.281  67.817  1.00  0.00    -0.157 C  
HETATM   25  C   UNK A   0      -7.496  10.344  68.352  1.00  0.00    -0.091 A  
BRANCH  24  26
HETATM   26  C   UNK A   0      -5.909  16.674  67.347  1.00  0.00    -0.187 C  
HETATM   27  C   UNK A   0      -5.824  17.831  67.035  1.00  0.00    -0.170 C  
ENDBRANCH  24  26
BRANCH  25  28
HETATM   28  C   UNK A   0      -7.845   8.945  68.702  1.00  0.00    -0.102 C  
HETATM   29  O   UNK A   0      -8.972   8.507  68.507  1.00  0.00    -0.139 OA 
ATOM     30  N   GLU A   1      -6.803   8.170  69.204  1.00  0.00    -0.054 N  
ATOM     31  H   GLU A   1      -5.904   8.598  69.427  1.00  0.00     0.000 HD 
BRANCH  30  32
ATOM     32  CA  GLU A   1      -7.013   6.722  69.412  1.00  0.00    -0.067 C  
ATOM     33  O   GLU A   1      -5.454   7.158  71.208  1.00  0.00    -0.027 OA 
ATOM     34  C   GLU A   1      -6.426   6.314  70.778  1.00  0.00    -0.041 C  
ATOM     35  OXT GLU A   1      -6.682   5.266  71.354  1.00  0.00    -0.044 OA 
BRANCH  32  36
ATOM     36  CB  GLU A   1      -6.333   5.917  68.290  1.00  0.00    -0.044 C  
BRANCH  36  37
ATOM     37  CG  GLU A   1      -6.630   4.414  68.356  1.00  0.00    -0.046 C  
ATOM     38  CD  GLU A   1      -7.872   4.030  67.591  1.00  0.00    -0.090 C  
ATOM     39  OE2 GLU A   1      -8.593   4.802  66.983  1.00  0.00    -0.106 OA 
ATOM     40  OE1 GLU A   1      -8.111   2.699  67.640  1.00  0.00    -0.067 OA 
ENDBRANCH  36  37
ENDBRANCH  32  36
ENDBRANCH  30  32
ENDBRANCH  25  28
ENDBRANCH   9  17
TORSDOF 6
ENDMDL
MODEL      175
REMARK 921   NORMALIZED FREE ENERGY PREDICTED BY IDOCK:   -3.04 KCAL/MOL
REMARK 922        TOTAL FREE ENERGY PREDICTED BY IDOCK:   -5.51 KCAL/MOL
REMARK 923 INTER-LIGAND FREE ENERGY PREDICTED BY IDOCK:   -4.95 KCAL/MOL
REMARK 924 INTRA-LIGAND FREE ENERGY PREDICTED BY IDOCK:   -0.56 KCAL/MOL
REMARK 927      BINDING AFFINITY PREDICTED BY RF-SCORE:    0.00 PKD
ROOT
HETATM    1  N   UNK A   0      -5.653  11.298  64.567  1.00  0.00    -0.263 NA 
HETATM    2  C   UNK A   0      -6.624  11.139  65.526  1.00  0.00     0.334 A  
HETATM    3  H2  UNK A   0      -5.891  11.327  63.576  1.00  0.00     0.000 HD 
HETATM    4  H1  UNK A   0      -4.686  11.387  64.881  1.00  0.00     0.000 HD 
HETATM    5  N   UNK A   0      -7.884  11.024  65.118  1.00  0.00     0.185 NA 
HETATM    6  C   UNK A   0      -8.834  10.955  66.049  1.00  0.00    -0.188 A  
HETATM    7  N   UNK A   0     -10.108  10.925  65.641  1.00  0.00    -0.250 NA 
HETATM    8  C   UNK A   0     -11.081  10.960  66.582  1.00  0.00    -0.085 A  
HETATM    9  C   UNK A   0     -10.814  11.007  67.942  1.00  0.00    -0.237 A  
HETATM   10  H2  UNK A   0      -7.141  10.176  69.492  1.00  0.00     0.000 HD 
HETATM   11  N   UNK A   0      -9.536  10.981  68.378  1.00  0.00    -0.175 NA 
HETATM   12  H1  UNK A   0      -5.775  11.082  69.274  1.00  0.00     0.000 HD 
HETATM   13  C   UNK A   0      -8.558  10.968  67.420  1.00  0.00    -0.132 A  
HETATM   14  C   UNK A   0      -7.204  11.054  67.718  1.00  0.00    -0.091 A  
HETATM   15  N   UNK A   0      -6.769  11.019  69.055  1.00  0.00    -0.066 NA 
HETATM   16  N   UNK A   0      -6.234  11.140  66.797  1.00  0.00    -0.108 NA 
ENDROOT
BRANCH   9  17
HETATM   17  C   UNK A   0     -11.900  11.216  68.969  1.00  0.00    -0.418 C  
HETATM   18  C   UNK A   0     -10.795   9.531  70.529  1.00  0.00    -0.352 A  
HETATM   19  C   UNK A   0     -11.498   8.378  70.137  1.00  0.00     0.012 A  
HETATM   20  C   UNK A   0      -9.459   9.400  70.934  1.00  0.00    -0.279 A  
HETATM   21  C   UNK A   0     -11.424  10.923  70.421  1.00  0.00    -0.367 C  
HETATM   22  C   UNK A   0      -8.805   8.171  70.832  1.00  0.00    -0.156 A  
HETATM   23  C   UNK A   0     -10.846   7.146  70.036  1.00  0.00    -0.276 A  
HETATM   24  C   UNK A   0     -12.553  11.075  71.459  1.00  0.00    -0.461 C  
HETATM   25  C   UNK A   0      -9.481   7.058  70.326  1.00  0.00    -0.165 A  
BRANCH  24  26
HETATM   26  C   UNK A   0     -13.153  12.421  71.491  1.00  0.00    -0.362 C  
HETATM   27  C   UNK A   0     -13.656  13.507  71.589  1.00  0.00    -0.342 C  
ENDBRANCH  24  26
BRANCH  25  28
HETATM   28  C   UNK A   0      -8.763   5.786  70.061  1.00  0.00    -0.132 C  
HETATM   29  O   UNK A   0      -8.371   5.504  68.936  1.00  0.00    -0.101 OA 
ATOM     30  N   GLU A   1      -8.526   4.983  71.175  1.00  0.00    -0.118 N  
ATOM     31  H   GLU A   1      -8.942   5.217  72.076  1.00  0.00     0.000 HD 
BRANCH  30  32
ATOM     32  CA  GLU A   1      -7.667   3.789  71.036  1.00  0.00    -0.048 C  
ATOM     33  O   GLU A   1      -8.796   3.227  73.098  1.00  0.00    -0.080 OA 
ATOM     34  C   GLU A   1      -8.131   2.710  72.034  1.00  0.00    -0.054 C  
ATOM     35  OXT GLU A   1      -7.811   1.532  71.975  1.00  0.00    -0.040 OA 
BRANCH  32  36
ATOM     36  CB  GLU A   1      -6.197   4.155  71.307  1.00  0.00    -0.015 C  
BRANCH  36  37
ATOM     37  CG  GLU A   1      -6.016   5.580  71.843  1.00  0.00    -0.026 C  
ATOM     38  CD  GLU A   1      -5.780   5.619  73.333  1.00  0.00    -0.032 C  
ATOM     39  OE2 GLU A   1      -5.740   4.645  74.065  1.00  0.00    -0.016 OA 
ATOM     40  OE1 GLU A   1      -5.601   6.879  73.789  1.00  0.00    -0.049 OA 
ENDBRANCH  36  37
ENDBRANCH  32  36
ENDBRANCH  30  32
ENDBRANCH  25  28
ENDBRANCH   9  17
TORSDOF 6
ENDMDL
MODEL      176
REMARK 921   NORMALIZED FREE ENERGY PREDICTED BY IDOCK:   -3.04 KCAL/MOL
REMARK 922        TOTAL FREE ENERGY PREDICTED BY IDOCK:   -5.51 KCAL/MOL
REMARK 923 INTER-LIGAND FREE ENERGY PREDICTED BY IDOCK:   -6.95 KCAL/MOL
REMARK 924 INTRA-LIGAND FREE ENERGY PREDICTED BY IDOCK:    1.44 KCAL/MOL
REMARK 927      BINDING AFFINITY PREDICTED BY RF-SCORE:    0.00 PKD
ROOT
HETATM    1  N   UNK A   0     -13.160  12.551  62.840  1.00  0.00    -0.166 NA 
HETATM    2  C   UNK A   0     -12.181  13.061  63.658  1.00  0.00    -0.491 A  
HETATM    3  H2  UNK A   0     -13.301  11.545  62.752  1.00  0.00     0.000 HD 
HETATM    4  H1  UNK A   0     -13.741  13.212  62.324  1.00  0.00     0.000 HD 
HETATM    5  N   UNK A   0     -11.425  12.200  64.330  1.00  0.00    -0.336 NA 
HETATM    6  C   UNK A   0     -10.534  12.695  65.187  1.00  0.00    -0.296 A  
HETATM    7  N   UNK A   0      -9.830  11.830  65.927  1.00  0.00    -0.232 NA 
HETATM    8  C   UNK A   0      -8.998  12.326  66.873  1.00  0.00    -0.207 A  
HETATM    9  C   UNK A   0      -8.832  13.685  67.092  1.00  0.00    -0.230 A  
HETATM   10  H2  UNK A   0     -10.082  16.511  64.440  1.00  0.00     0.000 HD 
HETATM   11  N   UNK A   0      -9.489  14.577  66.320  1.00  0.00    -0.295 NA 
HETATM   12  H1  UNK A   0     -11.656  16.847  64.059  1.00  0.00     0.000 HD 
HETATM   13  C   UNK A   0     -10.344  14.067  65.380  1.00  0.00    -0.359 A  
HETATM   14  C   UNK A   0     -11.167  14.862  64.594  1.00  0.00    -0.341 A  
HETATM   15  N   UNK A   0     -11.051  16.263  64.637  1.00  0.00    -0.645 NA 
HETATM   16  N   UNK A   0     -12.081  14.384  63.738  1.00  0.00    -0.487 NA 
ENDROOT
BRANCH   9  17
HETATM   17  C   UNK A   0      -8.034  14.220  68.257  1.00  0.00    -0.140 C  
HETATM   18  C   UNK A   0      -6.523  12.168  68.207  1.00  0.00    -0.055 A  
HETATM   19  C   UNK A   0      -7.207  11.372  69.143  1.00  0.00    -0.102 A  
HETATM   20  C   UNK A   0      -5.871  11.539  67.136  1.00  0.00    -0.110 A  
HETATM   21  C   UNK A   0      -6.569  13.698  68.278  1.00  0.00    -0.108 C  
HETATM   22  C   UNK A   0      -6.002  10.164  66.937  1.00  0.00    -0.055 A  
HETATM   23  C   UNK A   0      -7.337   9.994  68.947  1.00  0.00    -0.080 A  
HETATM   24  C   UNK A   0      -5.777  14.194  69.503  1.00  0.00    -0.097 C  
HETATM   25  C   UNK A   0      -6.784   9.402  67.808  1.00  0.00    -0.067 A  
BRANCH  24  26
HETATM   26  C   UNK A   0      -5.687  15.662  69.596  1.00  0.00    -0.122 C  
HETATM   27  C   UNK A   0      -5.541  16.852  69.679  1.00  0.00    -0.191 C  
ENDBRANCH  24  26
BRANCH  25  28
HETATM   28  C   UNK A   0      -7.065   7.972  67.525  1.00  0.00    -0.080 C  
HETATM   29  O   UNK A   0      -6.263   7.098  67.830  1.00  0.00    -0.039 OA 
ATOM     30  N   GLU A   1      -8.305   7.702  66.950  1.00  0.00    -0.122 N  
ATOM     31  H   GLU A   1      -8.905   8.466  66.638  1.00  0.00     0.000 HD 
BRANCH  30  32
ATOM     32  CA  GLU A   1      -8.741   6.299  66.797  1.00  0.00    -0.117 C  
ATOM     33  O   GLU A   1     -10.900   7.363  67.018  1.00  0.00    -0.354 OA 
ATOM     34  C   GLU A   1     -10.261   6.264  66.544  1.00  0.00    -0.100 C  
ATOM     35  OXT GLU A   1     -10.866   5.295  66.108  1.00  0.00    -0.257 OA 
BRANCH  32  36
ATOM     36  CB  GLU A   1      -8.403   5.493  68.064  1.00  0.00    -0.099 C  
BRANCH  36  37
ATOM     37  CG  GLU A   1      -9.364   4.325  68.314  1.00  0.00    -0.207 C  
ATOM     38  CD  GLU A   1      -8.712   2.979  68.115  1.00  0.00    -0.108 C  
ATOM     39  OE2 GLU A   1      -7.553   2.799  67.783  1.00  0.00    -0.056 OA 
ATOM     40  OE1 GLU A   1      -9.565   1.957  68.359  1.00  0.00    -0.198 OA 
ENDBRANCH  36  37
ENDBRANCH  32  36
ENDBRANCH  30  32
ENDBRANCH  25  28
ENDBRANCH   9  17
TORSDOF 6
ENDMDL
MODEL      177
REMARK 921   NORMALIZED FREE ENERGY PREDICTED BY IDOCK:   -3.03 KCAL/MOL
REMARK 922        TOTAL FREE ENERGY PREDICTED BY IDOCK:   -5.51 KCAL/MOL
REMARK 923 INTER-LIGAND FREE ENERGY PREDICTED BY IDOCK:   -6.88 KCAL/MOL
REMARK 924 INTRA-LIGAND FREE ENERGY PREDICTED BY IDOCK:    1.37 KCAL/MOL
REMARK 927      BINDING AFFINITY PREDICTED BY RF-SCORE:    0.00 PKD
ROOT
HETATM    1  N   UNK A   0      -5.177  11.994  72.026  1.00  0.00    -0.358 NA 
HETATM    2  C   UNK A   0      -5.525  10.757  71.539  1.00  0.00     0.105 A  
HETATM    3  H2  UNK A   0      -4.881  12.742  71.400  1.00  0.00     0.000 HD 
HETATM    4  H1  UNK A   0      -5.225  12.138  73.034  1.00  0.00     0.000 HD 
HETATM    5  N   UNK A   0      -5.463  10.568  70.225  1.00  0.00    -0.056 NA 
HETATM    6  C   UNK A   0      -5.881   9.399  69.745  1.00  0.00    -0.036 A  
HETATM    7  N   UNK A   0      -5.899   9.238  68.417  1.00  0.00    -0.041 NA 
HETATM    8  C   UNK A   0      -6.419   8.091  67.919  1.00  0.00    -0.053 A  
HETATM    9  C   UNK A   0      -6.913   7.076  68.723  1.00  0.00    -0.079 A  
HETATM   10  H2  UNK A   0      -6.151   6.866  72.718  1.00  0.00     0.000 HD 
HETATM   11  N   UNK A   0      -6.853   7.192  70.068  1.00  0.00    -0.055 NA 
HETATM   12  H1  UNK A   0      -6.698   7.928  73.862  1.00  0.00     0.000 HD 
HETATM   13  C   UNK A   0      -6.346   8.364  70.563  1.00  0.00    -0.035 A  
HETATM   14  C   UNK A   0      -6.327   8.668  71.918  1.00  0.00    -0.073 A  
HETATM   15  N   UNK A   0      -6.712   7.705  72.867  1.00  0.00    -0.066 NA 
HETATM   16  N   UNK A   0      -5.926   9.845  72.419  1.00  0.00    -0.182 NA 
ENDROOT
BRANCH   9  17
HETATM   17  C   UNK A   0      -7.642   5.882  68.155  1.00  0.00    -0.089 C  
HETATM   18  C   UNK A   0      -8.616   7.323  66.292  1.00  0.00    -0.147 A  
HETATM   19  C   UNK A   0      -9.832   7.675  66.902  1.00  0.00    -0.304 A  
HETATM   20  C   UNK A   0      -8.000   8.246  65.434  1.00  0.00    -0.127 A  
HETATM   21  C   UNK A   0      -7.908   6.006  66.627  1.00  0.00    -0.101 C  
HETATM   22  C   UNK A   0      -8.521   9.532  65.287  1.00  0.00    -0.159 A  
HETATM   23  C   UNK A   0     -10.357   8.962  66.755  1.00  0.00    -0.317 A  
HETATM   24  C   UNK A   0      -8.709   4.817  66.064  1.00  0.00    -0.118 C  
HETATM   25  C   UNK A   0      -9.665   9.909  65.994  1.00  0.00    -0.310 A  
BRANCH  24  26
HETATM   26  C   UNK A   0      -8.050   3.512  66.258  1.00  0.00    -0.092 C  
HETATM   27  C   UNK A   0      -7.573   2.427  66.453  1.00  0.00    -0.071 C  
ENDBRANCH  24  26
BRANCH  25  28
HETATM   28  C   UNK A   0     -10.143  11.314  65.976  1.00  0.00    -0.239 C  
HETATM   29  O   UNK A   0      -9.355  12.251  66.012  1.00  0.00    -0.221 OA 
ATOM     30  N   GLU A   1     -11.521  11.482  65.861  1.00  0.00    -0.127 N  
ATOM     31  H   GLU A   1     -12.145  10.677  65.917  1.00  0.00     0.000 HD 
BRANCH  30  32
ATOM     32  CA  GLU A   1     -12.070  12.839  65.657  1.00  0.00    -0.459 C  
ATOM     33  O   GLU A   1     -11.178  12.437  63.446  1.00  0.00    -0.456 OA 
ATOM     34  C   GLU A   1     -12.086  13.160  64.149  1.00  0.00    -0.430 C  
ATOM     35  OXT GLU A   1     -12.726  14.071  63.644  1.00  0.00    -0.778 OA 
BRANCH  32  36
ATOM     36  CB  GLU A   1     -11.216  13.878  66.404  1.00  0.00    -0.319 C  
BRANCH  36  37
ATOM     37  CG  GLU A   1     -12.033  14.773  67.343  1.00  0.00    -0.236 C  
ATOM     38  CD  GLU A   1     -11.524  14.748  68.764  1.00  0.00    -0.301 C  
ATOM     39  OE2 GLU A   1     -10.576  14.094  69.161  1.00  0.00    -0.227 OA 
ATOM     40  OE1 GLU A   1     -12.241  15.557  69.577  1.00  0.00    -0.327 OA 
ENDBRANCH  36  37
ENDBRANCH  32  36
ENDBRANCH  30  32
ENDBRANCH  25  28
ENDBRANCH   9  17
TORSDOF 6
ENDMDL
MODEL      178
REMARK 921   NORMALIZED FREE ENERGY PREDICTED BY IDOCK:   -2.91 KCAL/MOL
REMARK 922        TOTAL FREE ENERGY PREDICTED BY IDOCK:   -5.34 KCAL/MOL
REMARK 923 INTER-LIGAND FREE ENERGY PREDICTED BY IDOCK:   -4.49 KCAL/MOL
REMARK 924 INTRA-LIGAND FREE ENERGY PREDICTED BY IDOCK:   -0.86 KCAL/MOL
REMARK 927      BINDING AFFINITY PREDICTED BY RF-SCORE:    0.00 PKD
ROOT
HETATM    1  N   UNK A   0     -14.030  10.199  73.235  1.00  0.00     0.863 NA 
HETATM    2  C   UNK A   0     -13.414   9.109  72.670  1.00  0.00    -0.331 A  
HETATM    3  H2  UNK A   0     -13.503  10.873  73.790  1.00  0.00     0.000 HD 
HETATM    4  H1  UNK A   0     -15.032  10.313  73.080  1.00  0.00     0.000 HD 
HETATM    5  N   UNK A   0     -12.109   8.961  72.872  1.00  0.00     0.051 NA 
HETATM    6  C   UNK A   0     -11.496   7.952  72.254  1.00  0.00    -0.348 A  
HETATM    7  N   UNK A   0     -10.169   7.852  72.388  1.00  0.00    -0.241 NA 
HETATM    8  C   UNK A   0      -9.526   6.892  71.681  1.00  0.00    -0.157 A  
HETATM    9  C   UNK A   0     -10.185   6.004  70.845  1.00  0.00    -0.206 A  
HETATM   10  H2  UNK A   0     -14.219   5.458  70.954  1.00  0.00     0.000 HD 
HETATM   11  N   UNK A   0     -11.530   6.050  70.738  1.00  0.00    -0.241 NA 
HETATM   12  H1  UNK A   0     -15.356   6.579  70.524  1.00  0.00     0.000 HD 
HETATM   13  C   UNK A   0     -12.170   7.037  71.440  1.00  0.00    -0.366 A  
HETATM   14  C   UNK A   0     -13.535   7.276  71.338  1.00  0.00    -0.321 A  
HETATM   15  N   UNK A   0     -14.354   6.404  70.599  1.00  0.00     2.276 NA 
HETATM   16  N   UNK A   0     -14.167   8.294  71.938  1.00  0.00    -0.435 NA 
ENDROOT
BRANCH   9  17
HETATM   17  C   UNK A   0      -9.443   5.053  69.936  1.00  0.00    -0.225 C  
HETATM   18  C   UNK A   0      -8.186   7.000  68.873  1.00  0.00    -0.122 A  
HETATM   19  C   UNK A   0      -9.044   7.244  67.787  1.00  0.00    -0.124 A  
HETATM   20  C   UNK A   0      -7.516   8.083  69.459  1.00  0.00    -0.092 A  
HETATM   21  C   UNK A   0      -8.057   5.603  69.488  1.00  0.00    -0.103 C  
HETATM   22  C   UNK A   0      -7.788   9.390  69.051  1.00  0.00    -0.079 A  
HETATM   23  C   UNK A   0      -9.317   8.552  67.374  1.00  0.00    -0.178 A  
HETATM   24  C   UNK A   0      -7.332   4.660  68.509  1.00  0.00    -0.065 C  
HETATM   25  C   UNK A   0      -8.733   9.627  68.050  1.00  0.00    -0.119 A  
BRANCH  24  26
HETATM   26  C   UNK A   0      -7.078   3.315  69.058  1.00  0.00    -0.049 C  
HETATM   27  C   UNK A   0      -6.870   2.250  69.572  1.00  0.00    -0.033 C  
ENDBRANCH  24  26
BRANCH  25  28
HETATM   28  C   UNK A   0      -9.153  11.010  67.712  1.00  0.00    -0.147 C  
HETATM   29  O   UNK A   0      -8.422  11.754  67.071  1.00  0.00    -0.162 OA 
ATOM     30  N   GLU A   1     -10.435  11.370  68.123  1.00  0.00    -0.181 N  
ATOM     31  H   GLU A   1     -10.976  10.748  68.724  1.00  0.00     0.000 HD 
BRANCH  30  32
ATOM     32  CA  GLU A   1     -11.002  12.660  67.678  1.00  0.00    -0.241 C  
ATOM     33  O   GLU A   1     -11.869  12.602  69.934  1.00  0.00    -0.318 OA 
ATOM     34  C   GLU A   1     -11.551  13.422  68.900  1.00  0.00    -0.314 C  
ATOM     35  OXT GLU A   1     -11.825  14.613  68.905  1.00  0.00    -0.305 OA 
BRANCH  32  36
ATOM     36  CB  GLU A   1     -12.130  12.424  66.659  1.00  0.00    -0.148 C  
BRANCH  36  37
ATOM     37  CG  GLU A   1     -12.246  13.539  65.613  1.00  0.00    -0.500 C  
ATOM     38  CD  GLU A   1     -12.317  13.012  64.201  1.00  0.00    -0.358 C  
ATOM     39  OE2 GLU A   1     -12.280  11.835  63.886  1.00  0.00    -0.373 OA 
ATOM     40  OE1 GLU A   1     -12.440  14.005  63.291  1.00  0.00    -0.795 OA 
ENDBRANCH  36  37
ENDBRANCH  32  36
ENDBRANCH  30  32
ENDBRANCH  25  28
ENDBRANCH   9  17
TORSDOF 6
ENDMDL
MODEL      179
REMARK 921   NORMALIZED FREE ENERGY PREDICTED BY IDOCK:   -2.90 KCAL/MOL
REMARK 922        TOTAL FREE ENERGY PREDICTED BY IDOCK:   -5.33 KCAL/MOL
REMARK 923 INTER-LIGAND FREE ENERGY PREDICTED BY IDOCK:   -5.03 KCAL/MOL
REMARK 924 INTRA-LIGAND FREE ENERGY PREDICTED BY IDOCK:   -0.30 KCAL/MOL
REMARK 927      BINDING AFFINITY PREDICTED BY RF-SCORE:    0.00 PKD
ROOT
HETATM    1  N   UNK A   0      -5.272  11.324  64.369  1.00  0.00    -0.421 NA 
HETATM    2  C   UNK A   0      -6.116  10.949  65.386  1.00  0.00     0.040 A  
HETATM    3  H2  UNK A   0      -5.524  11.171  63.393  1.00  0.00     0.000 HD 
HETATM    4  H1  UNK A   0      -4.386  11.760  64.623  1.00  0.00     0.000 HD 
HETATM    5  N   UNK A   0      -7.271  10.381  65.056  1.00  0.00    -0.104 NA 
HETATM    6  C   UNK A   0      -8.126  10.097  66.036  1.00  0.00    -0.129 A  
HETATM    7  N   UNK A   0      -9.323   9.603  65.699  1.00  0.00    -0.217 NA 
HETATM    8  C   UNK A   0     -10.234   9.409  66.681  1.00  0.00    -0.249 A  
HETATM    9  C   UNK A   0      -9.973   9.680  68.016  1.00  0.00    -0.160 A  
HETATM   10  H2  UNK A   0      -6.206  10.278  69.443  1.00  0.00     0.000 HD 
HETATM   11  N   UNK A   0      -8.753  10.125  68.387  1.00  0.00    -0.120 NA 
HETATM   12  H1  UNK A   0      -5.228  11.560  69.075  1.00  0.00     0.000 HD 
HETATM   13  C   UNK A   0      -7.845  10.339  67.384  1.00  0.00    -0.102 A  
HETATM   14  C   UNK A   0      -6.593  10.900  67.604  1.00  0.00    -0.065 A  
HETATM   15  N   UNK A   0      -6.147  11.148  68.914  1.00  0.00    -0.044 NA 
HETATM   16  N   UNK A   0      -5.726  11.209  66.630  1.00  0.00    -0.103 NA 
ENDROOT
BRANCH   9  17
HETATM   17  C   UNK A   0     -11.048   9.620  69.075  1.00  0.00    -0.104 C  
HETATM   18  C   UNK A   0      -9.584   8.115  70.521  1.00  0.00    -0.177 A  
HETATM   19  C   UNK A   0     -10.057   6.866  70.083  1.00  0.00    -0.196 A  
HETATM   20  C   UNK A   0      -8.237   8.234  70.891  1.00  0.00    -0.123 A  
HETATM   21  C   UNK A   0     -10.479   9.358  70.499  1.00  0.00    -0.335 C  
HETATM   22  C   UNK A   0      -7.356   7.166  70.711  1.00  0.00    -0.072 A  
HETATM   23  C   UNK A   0      -9.178   5.794  69.904  1.00  0.00    -0.166 A  
HETATM   24  C   UNK A   0     -11.583   9.233  71.567  1.00  0.00    -0.452 C  
HETATM   25  C   UNK A   0      -7.814   5.966  70.162  1.00  0.00    -0.100 A  
BRANCH  24  26
HETATM   26  C   UNK A   0     -12.436  10.430  71.682  1.00  0.00    -0.471 C  
HETATM   27  C   UNK A   0     -13.160  11.388  71.710  1.00  0.00    -0.523 C  
ENDBRANCH  24  26
BRANCH  25  28
HETATM   28  C   UNK A   0      -6.868   4.877  69.816  1.00  0.00    -0.052 C  
HETATM   29  O   UNK A   0      -5.975   4.547  70.586  1.00  0.00    -0.016 OA 
ATOM     30  N   GLU A   1      -7.101   4.237  68.601  1.00  0.00    -0.051 N  
ATOM     31  H   GLU A   1      -7.804   4.598  67.955  1.00  0.00     0.000 HD 
BRANCH  30  32
ATOM     32  CA  GLU A   1      -6.321   3.029  68.257  1.00  0.00    -0.032 C  
ATOM     33  O   GLU A   1      -6.871   3.793  66.030  1.00  0.00    -0.057 OA 
ATOM     34  C   GLU A   1      -5.996   3.046  66.750  1.00  0.00    -0.024 C  
ATOM     35  OXT GLU A   1      -5.146   2.346  66.220  1.00  0.00    -0.004 OA 
BRANCH  32  36
ATOM     36  CB  GLU A   1      -7.120   1.761  68.606  1.00  0.00    -0.039 C  
BRANCH  36  37
ATOM     37  CG  GLU A   1      -7.772   1.817  69.993  1.00  0.00    -0.044 C  
ATOM     38  CD  GLU A   1      -9.154   2.421  69.965  1.00  0.00    -0.111 C  
ATOM     39  OE2 GLU A   1      -9.721   2.838  68.970  1.00  0.00    -0.055 OA 
ATOM     40  OE1 GLU A   1      -9.726   2.445  71.191  1.00  0.00    -0.151 OA 
ENDBRANCH  36  37
ENDBRANCH  32  36
ENDBRANCH  30  32
ENDBRANCH  25  28
ENDBRANCH   9  17
TORSDOF 6
ENDMDL
MODEL      180
REMARK 921   NORMALIZED FREE ENERGY PREDICTED BY IDOCK:   -2.88 KCAL/MOL
REMARK 922        TOTAL FREE ENERGY PREDICTED BY IDOCK:   -5.31 KCAL/MOL
REMARK 923 INTER-LIGAND FREE ENERGY PREDICTED BY IDOCK:   -4.61 KCAL/MOL
REMARK 924 INTRA-LIGAND FREE ENERGY PREDICTED BY IDOCK:   -0.70 KCAL/MOL
REMARK 927      BINDING AFFINITY PREDICTED BY RF-SCORE:    0.00 PKD
ROOT
HETATM    1  N   UNK A   0      -5.148   9.089  63.648  1.00  0.00    -0.060 NA 
HETATM    2  C   UNK A   0      -6.228   9.757  64.172  1.00  0.00    -0.116 A  
HETATM    3  H2  UNK A   0      -4.240   9.110  64.111  1.00  0.00     0.000 HD 
HETATM    4  H1  UNK A   0      -5.285   8.571  62.780  1.00  0.00     0.000 HD 
HETATM    5  N   UNK A   0      -6.050  10.432  65.303  1.00  0.00    -0.128 NA 
HETATM    6  C   UNK A   0      -7.116  11.008  65.857  1.00  0.00     0.041 A  
HETATM    7  N   UNK A   0      -6.955  11.615  67.038  1.00  0.00    -0.143 NA 
HETATM    8  C   UNK A   0      -8.053  12.112  67.656  1.00  0.00    -0.158 A  
HETATM    9  C   UNK A   0      -9.325  12.035  67.109  1.00  0.00    -0.187 A  
HETATM   10  H2  UNK A   0      -9.987  11.115  63.197  1.00  0.00     0.000 HD 
HETATM   11  N   UNK A   0      -9.502  11.477  65.892  1.00  0.00    -0.227 NA 
HETATM   12  H1  UNK A   0      -9.680   9.654  62.485  1.00  0.00     0.000 HD 
HETATM   13  C   UNK A   0      -8.390  10.958  65.284  1.00  0.00    -0.025 A  
HETATM   14  C   UNK A   0      -8.440  10.256  64.086  1.00  0.00    -0.179 A  
HETATM   15  N   UNK A   0      -9.644  10.169  63.365  1.00  0.00    -0.264 NA 
HETATM   16  N   UNK A   0      -7.383   9.656  63.522  1.00  0.00    -0.109 NA 
ENDROOT
BRANCH   9  17
HETATM   17  C   UNK A   0     -10.558  12.440  67.880  1.00  0.00    -0.231 C  
HETATM   18  C   UNK A   0     -10.381  10.346  69.323  1.00  0.00    -0.250 A  
HETATM   19  C   UNK A   0     -11.220   9.498  68.580  1.00  0.00     0.060 A  
HETATM   20  C   UNK A   0      -9.282   9.788  69.993  1.00  0.00    -0.266 A  
HETATM   21  C   UNK A   0     -10.582  11.865  69.326  1.00  0.00    -0.021 C  
HETATM   22  C   UNK A   0      -8.960   8.440  69.824  1.00  0.00    -0.146 A  
HETATM   23  C   UNK A   0     -10.901   8.148  68.411  1.00  0.00     0.036 A  
HETATM   24  C   UNK A   0     -11.872  12.225  70.088  1.00  0.00    -0.352 C  
HETATM   25  C   UNK A   0      -9.734   7.635  68.986  1.00  0.00    -0.160 A  
BRANCH  24  26
HETATM   26  C   UNK A   0     -12.096  13.676  70.224  1.00  0.00    -0.427 C  
HETATM   27  C   UNK A   0     -12.349  14.844  70.348  1.00  0.00    -0.401 C  
ENDBRANCH  24  26
BRANCH  25  28
HETATM   28  C   UNK A   0      -9.319   6.246  68.668  1.00  0.00    -0.122 C  
HETATM   29  O   UNK A   0      -9.308   5.838  67.514  1.00  0.00    -0.112 OA 
ATOM     30  N   GLU A   1      -8.900   5.478  69.752  1.00  0.00    -0.118 N  
ATOM     31  H   GLU A   1      -9.004   5.831  70.704  1.00  0.00     0.000 HD 
BRANCH  30  32
ATOM     32  CA  GLU A   1      -8.304   4.148  69.509  1.00  0.00    -0.057 C  
ATOM     33  O   GLU A   1      -9.959   3.544  71.165  1.00  0.00    -0.158 OA 
ATOM     34  C   GLU A   1      -9.197   3.066  70.148  1.00  0.00    -0.144 C  
ATOM     35  OXT GLU A   1      -9.128   1.873  69.890  1.00  0.00    -0.079 OA 
BRANCH  32  36
ATOM     36  CB  GLU A   1      -6.889   4.080  70.110  1.00  0.00    -0.034 C  
BRANCH  36  37
ATOM     37  CG  GLU A   1      -6.762   3.060  71.249  1.00  0.00    -0.031 C  
ATOM     38  CD  GLU A   1      -6.268   3.678  72.534  1.00  0.00    -0.009 C  
ATOM     39  OE2 GLU A   1      -5.982   4.853  72.687  1.00  0.00    -0.022 OA 
ATOM     40  OE1 GLU A   1      -6.181   2.772  73.535  1.00  0.00    -0.011 OA 
ENDBRANCH  36  37
ENDBRANCH  32  36
ENDBRANCH  30  32
ENDBRANCH  25  28
ENDBRANCH   9  17
TORSDOF 6
ENDMDL
MODEL      181
REMARK 921   NORMALIZED FREE ENERGY PREDICTED BY IDOCK:   -2.77 KCAL/MOL
REMARK 922        TOTAL FREE ENERGY PREDICTED BY IDOCK:   -5.15 KCAL/MOL
REMARK 923 INTER-LIGAND FREE ENERGY PREDICTED BY IDOCK:   -4.55 KCAL/MOL
REMARK 924 INTRA-LIGAND FREE ENERGY PREDICTED BY IDOCK:   -0.60 KCAL/MOL
REMARK 927      BINDING AFFINITY PREDICTED BY RF-SCORE:    0.00 PKD
ROOT
HETATM    1  N   UNK A   0      -5.125  13.957  72.728  1.00  0.00    -0.206 NA 
HETATM    2  C   UNK A   0      -5.728  13.441  71.606  1.00  0.00     0.063 A  
HETATM    3  H2  UNK A   0      -4.513  13.384  73.308  1.00  0.00     0.000 HD 
HETATM    4  H1  UNK A   0      -5.310  14.933  72.960  1.00  0.00     0.000 HD 
HETATM    5  N   UNK A   0      -5.487  12.169  71.303  1.00  0.00    -0.372 NA 
HETATM    6  C   UNK A   0      -6.001  11.693  70.171  1.00  0.00    -0.161 A  
HETATM    7  N   UNK A   0      -5.691  10.440  69.821  1.00  0.00    -0.043 NA 
HETATM    8  C   UNK A   0      -6.125   9.984  68.622  1.00  0.00    -0.044 A  
HETATM    9  C   UNK A   0      -6.889  10.751  67.757  1.00  0.00    -0.073 A  
HETATM   10  H2  UNK A   0      -8.750  14.183  68.915  1.00  0.00     0.000 HD 
HETATM   11  N   UNK A   0      -7.263  11.999  68.113  1.00  0.00    -0.083 NA 
HETATM   12  H1  UNK A   0      -7.995  15.585  69.362  1.00  0.00     0.000 HD 
HETATM   13  C   UNK A   0      -6.801  12.460  69.317  1.00  0.00    -0.028 A  
HETATM   14  C   UNK A   0      -7.011  13.759  69.761  1.00  0.00     0.183 A  
HETATM   15  N   UNK A   0      -7.841  14.631  69.036  1.00  0.00    -0.144 NA 
HETATM   16  N   UNK A   0      -6.489  14.262  70.889  1.00  0.00     0.010 NA 
ENDROOT
BRANCH   9  17
HETATM   17  C   UNK A   0      -7.222  10.293  66.357  1.00  0.00    -0.113 C  
HETATM   18  C   UNK A   0      -9.335   9.144  67.200  1.00  0.00    -0.178 A  
HETATM   19  C   UNK A   0      -8.813   7.856  67.411  1.00  0.00    -0.129 A  
HETATM   20  C   UNK A   0     -10.350   9.608  68.050  1.00  0.00    -0.262 A  
HETATM   21  C   UNK A   0      -8.747  10.078  66.137  1.00  0.00    -0.153 C  
HETATM   22  C   UNK A   0     -10.746   8.854  69.156  1.00  0.00    -0.162 A  
HETATM   23  C   UNK A   0      -9.209   7.099  68.517  1.00  0.00    -0.134 A  
HETATM   24  C   UNK A   0      -9.077   9.549  64.728  1.00  0.00    -0.271 C  
HETATM   25  C   UNK A   0     -10.133   7.628  69.424  1.00  0.00    -0.196 A  
BRANCH  24  26
HETATM   26  C   UNK A   0      -8.631  10.439  63.641  1.00  0.00    -0.186 C  
HETATM   27  C   UNK A   0      -8.324  11.139  62.714  1.00  0.00    -0.048 C  
ENDBRANCH  24  26
BRANCH  25  28
HETATM   28  C   UNK A   0     -10.425   6.888  70.677  1.00  0.00    -0.210 C  
HETATM   29  O   UNK A   0     -11.545   6.900  71.172  1.00  0.00    -0.283 OA 
ATOM     30  N   GLU A   1      -9.367   6.152  71.204  1.00  0.00    -0.163 N  
ATOM     31  H   GLU A   1      -8.431   6.236  70.805  1.00  0.00     0.000 HD 
BRANCH  30  32
ATOM     32  CA  GLU A   1      -9.613   5.247  72.346  1.00  0.00    -0.151 C  
ATOM     33  O   GLU A   1      -9.627   7.366  73.510  1.00  0.00    -0.218 OA 
ATOM     34  C   GLU A   1     -10.051   6.078  73.568  1.00  0.00    -0.201 C  
ATOM     35  OXT GLU A   1     -10.586   5.612  74.564  1.00  0.00    -0.245 OA 
BRANCH  32  36
ATOM     36  CB  GLU A   1      -8.338   4.453  72.683  1.00  0.00    -0.106 C  
BRANCH  36  37
ATOM     37  CG  GLU A   1      -7.455   5.141  73.731  1.00  0.00    -0.087 C  
ATOM     38  CD  GLU A   1      -6.336   5.946  73.116  1.00  0.00    -0.063 C  
ATOM     39  OE2 GLU A   1      -6.120   6.053  71.921  1.00  0.00    -0.038 OA 
ATOM     40  OE1 GLU A   1      -5.578   6.564  74.050  1.00  0.00    -0.052 OA 
ENDBRANCH  36  37
ENDBRANCH  32  36
ENDBRANCH  30  32
ENDBRANCH  25  28
ENDBRANCH   9  17
TORSDOF 6
ENDMDL
MODEL      182
REMARK 921   NORMALIZED FREE ENERGY PREDICTED BY IDOCK:   -2.68 KCAL/MOL
REMARK 922        TOTAL FREE ENERGY PREDICTED BY IDOCK:   -5.04 KCAL/MOL
REMARK 923 INTER-LIGAND FREE ENERGY PREDICTED BY IDOCK:   -4.20 KCAL/MOL
REMARK 924 INTRA-LIGAND FREE ENERGY PREDICTED BY IDOCK:   -0.83 KCAL/MOL
REMARK 927      BINDING AFFINITY PREDICTED BY RF-SCORE:    0.00 PKD
ROOT
HETATM    1  N   UNK A   0      -8.793   8.497  63.421  1.00  0.00    -0.372 NA 
HETATM    2  C   UNK A   0      -9.304   9.593  64.073  1.00  0.00    -0.057 A  
HETATM    3  H2  UNK A   0      -8.597   8.523  62.421  1.00  0.00     0.000 HD 
HETATM    4  H1  UNK A   0      -8.615   7.656  63.971  1.00  0.00     0.000 HD 
HETATM    5  N   UNK A   0      -9.535  10.688  63.356  1.00  0.00    -0.288 NA 
HETATM    6  C   UNK A   0      -9.949  11.776  64.001  1.00  0.00    -0.293 A  
HETATM    7  N   UNK A   0     -10.101  12.902  63.296  1.00  0.00     0.266 NA 
HETATM    8  C   UNK A   0     -10.422  14.037  63.962  1.00  0.00     0.788 A  
HETATM    9  C   UNK A   0     -10.617  14.075  65.334  1.00  0.00    -0.341 A  
HETATM   10  H2  UNK A   0     -11.144  10.716  67.576  1.00  0.00     0.000 HD 
HETATM   11  N   UNK A   0     -10.524  12.939  66.060  1.00  0.00    -0.272 NA 
HETATM   12  H1  UNK A   0     -10.002   9.552  67.852  1.00  0.00     0.000 HD 
HETATM   13  C   UNK A   0     -10.178  11.801  65.381  1.00  0.00    -0.261 A  
HETATM   14  C   UNK A   0      -9.938  10.587  66.011  1.00  0.00    -0.237 A  
HETATM   15  N   UNK A   0     -10.179  10.443  67.389  1.00  0.00    -0.202 NA 
HETATM   16  N   UNK A   0      -9.505   9.486  65.382  1.00  0.00    -0.266 NA 
ENDROOT
BRANCH   9  17
HETATM   17  C   UNK A   0     -10.805  15.372  66.084  1.00  0.00    -0.313 C  
HETATM   18  C   UNK A   0      -8.737  14.893  67.495  1.00  0.00    -0.197 A  
HETATM   19  C   UNK A   0      -9.360  14.263  68.587  1.00  0.00    -0.172 A  
HETATM   20  C   UNK A   0      -7.452  14.477  67.121  1.00  0.00    -0.002 A  
HETATM   21  C   UNK A   0      -9.474  15.940  66.653  1.00  0.00    -0.263 C  
HETATM   22  C   UNK A   0      -6.854  13.378  67.740  1.00  0.00    -0.163 A  
HETATM   23  C   UNK A   0      -8.763  13.164  69.211  1.00  0.00     0.880 A  
HETATM   24  C   UNK A   0      -9.679  17.228  67.473  1.00  0.00    -0.264 C  
HETATM   25  C   UNK A   0      -7.536  12.685  68.744  1.00  0.00    -0.044 A  
BRANCH  24  26
HETATM   26  C   UNK A   0     -10.296  18.327  66.708  1.00  0.00    -0.403 C  
HETATM   27  C   UNK A   0     -10.864  19.204  66.115  1.00  0.00    -0.315 C  
ENDBRANCH  24  26
BRANCH  25  28
HETATM   28  C   UNK A   0      -6.989  11.424  69.304  1.00  0.00    -0.115 C  
HETATM   29  O   UNK A   0      -6.098  11.438  70.144  1.00  0.00    -0.133 OA 
ATOM     30  N   GLU A   1      -7.591  10.251  68.852  1.00  0.00    -0.087 N  
ATOM     31  H   GLU A   1      -8.271  10.282  68.093  1.00  0.00     0.000 HD 
BRANCH  30  32
ATOM     32  CA  GLU A   1      -7.233   8.964  69.484  1.00  0.00    -0.063 C  
ATOM     33  O   GLU A   1      -5.649   8.962  67.658  1.00  0.00    -0.038 OA 
ATOM     34  C   GLU A   1      -5.902   8.460  68.893  1.00  0.00    -0.040 C  
ATOM     35  OXT GLU A   1      -5.212   7.585  69.396  1.00  0.00    -0.015 OA 
BRANCH  32  36
ATOM     36  CB  GLU A   1      -8.341   7.924  69.240  1.00  0.00    -0.136 C  
BRANCH  36  37
ATOM     37  CG  GLU A   1      -9.198   7.648  70.481  1.00  0.00    -0.159 C  
ATOM     38  CD  GLU A   1     -10.598   8.196  70.358  1.00  0.00    -0.224 C  
ATOM     39  OE2 GLU A   1     -11.035   8.805  69.397  1.00  0.00    -0.163 OA 
ATOM     40  OE1 GLU A   1     -11.350   7.927  71.451  1.00  0.00    -0.244 OA 
ENDBRANCH  36  37
ENDBRANCH  32  36
ENDBRANCH  30  32
ENDBRANCH  25  28
ENDBRANCH   9  17
TORSDOF 6
ENDMDL
MODEL      183
REMARK 921   NORMALIZED FREE ENERGY PREDICTED BY IDOCK:   -2.66 KCAL/MOL
REMARK 922        TOTAL FREE ENERGY PREDICTED BY IDOCK:   -5.00 KCAL/MOL
REMARK 923 INTER-LIGAND FREE ENERGY PREDICTED BY IDOCK:   -7.33 KCAL/MOL
REMARK 924 INTRA-LIGAND FREE ENERGY PREDICTED BY IDOCK:    2.33 KCAL/MOL
REMARK 927      BINDING AFFINITY PREDICTED BY RF-SCORE:    0.00 PKD
ROOT
HETATM    1  N   UNK A   0      -5.129  13.550  67.330  1.00  0.00    -0.328 NA 
HETATM    2  C   UNK A   0      -6.020  12.631  67.829  1.00  0.00    -0.126 A  
HETATM    3  H2  UNK A   0      -4.253  13.750  67.812  1.00  0.00     0.000 HD 
HETATM    4  H1  UNK A   0      -5.373  14.026  66.461  1.00  0.00     0.000 HD 
HETATM    5  N   UNK A   0      -5.702  12.012  68.961  1.00  0.00    -0.055 NA 
HETATM    6  C   UNK A   0      -6.524  11.060  69.400  1.00  0.00    -0.095 A  
HETATM    7  N   UNK A   0      -6.164  10.377  70.492  1.00  0.00    -0.164 NA 
HETATM    8  C   UNK A   0      -6.942   9.341  70.884  1.00  0.00    -0.104 A  
HETATM    9  C   UNK A   0      -8.100   8.973  70.215  1.00  0.00    -0.136 A  
HETATM   10  H2  UNK A   0      -9.924  11.382  67.485  1.00  0.00     0.000 HD 
HETATM   11  N   UNK A   0      -8.513   9.683  69.143  1.00  0.00    -0.134 NA 
HETATM   12  H1  UNK A   0      -9.306  11.811  66.012  1.00  0.00     0.000 HD 
HETATM   13  C   UNK A   0      -7.709  10.716  68.741  1.00  0.00    -0.117 A  
HETATM   14  C   UNK A   0      -7.949  11.460  67.593  1.00  0.00    -0.123 A  
HETATM   15  N   UNK A   0      -9.130  11.265  66.856  1.00  0.00    -0.163 NA 
HETATM   16  N   UNK A   0      -7.126  12.409  67.126  1.00  0.00    -0.120 NA 
ENDROOT
BRANCH   9  17
HETATM   17  C   UNK A   0      -8.864   7.717  70.560  1.00  0.00    -0.149 C  
HETATM   18  C   UNK A   0     -11.075   8.894  70.088  1.00  0.00    -0.217 A  
HETATM   19  C   UNK A   0     -11.369   9.334  71.390  1.00  0.00    -0.434 A  
HETATM   20  C   UNK A   0     -11.475   9.686  69.002  1.00  0.00     0.158 A  
HETATM   21  C   UNK A   0     -10.242   7.631  69.843  1.00  0.00    -0.215 C  
HETATM   22  C   UNK A   0     -12.043  10.943  69.214  1.00  0.00    -0.332 A  
HETATM   23  C   UNK A   0     -11.940  10.592  71.605  1.00  0.00     0.029 A  
HETATM   24  C   UNK A   0     -11.046   6.381  70.247  1.00  0.00    -0.416 C  
HETATM   25  C   UNK A   0     -12.219  11.421  70.514  1.00  0.00    -0.478 A  
BRANCH  24  26
HETATM   26  C   UNK A   0     -10.356   5.111  69.955  1.00  0.00    -0.347 C  
HETATM   27  C   UNK A   0      -9.730   4.110  69.734  1.00  0.00    -0.278 C  
ENDBRANCH  24  26
BRANCH  25  28
HETATM   28  C   UNK A   0     -12.672  12.813  70.759  1.00  0.00    -0.136 C  
HETATM   29  O   UNK A   0     -13.861  13.106  70.729  1.00  0.00     0.741 OA 
ATOM     30  N   GLU A   1     -11.670  13.728  71.073  1.00  0.00    -0.433 N  
ATOM     31  H   GLU A   1     -10.688  13.459  71.006  1.00  0.00     0.000 HD 
BRANCH  30  32
ATOM     32  CA  GLU A   1     -12.043  15.092  71.503  1.00  0.00    -0.343 C  
ATOM     33  O   GLU A   1     -13.569  13.812  72.874  1.00  0.00    -0.681 OA 
ATOM     34  C   GLU A   1     -12.928  15.002  72.763  1.00  0.00    -0.433 C  
ATOM     35  OXT GLU A   1     -13.164  15.942  73.508  1.00  0.00    -0.555 OA 
BRANCH  32  36
ATOM     36  CB  GLU A   1     -12.804  15.816  70.379  1.00  0.00    -0.108 C  
BRANCH  36  37
ATOM     37  CG  GLU A   1     -12.138  15.674  69.006  1.00  0.00    -0.227 C  
ATOM     38  CD  GLU A   1     -10.920  16.552  68.853  1.00  0.00    -0.325 C  
ATOM     39  OE2 GLU A   1     -10.488  17.312  69.703  1.00  0.00    -0.219 OA 
ATOM     40  OE1 GLU A   1     -10.330  16.401  67.645  1.00  0.00    -0.270 OA 
ENDBRANCH  36  37
ENDBRANCH  32  36
ENDBRANCH  30  32
ENDBRANCH  25  28
ENDBRANCH   9  17
TORSDOF 6
ENDMDL
MODEL      184
REMARK 921   NORMALIZED FREE ENERGY PREDICTED BY IDOCK:   -2.56 KCAL/MOL
REMARK 922        TOTAL FREE ENERGY PREDICTED BY IDOCK:   -4.87 KCAL/MOL
REMARK 923 INTER-LIGAND FREE ENERGY PREDICTED BY IDOCK:   -5.35 KCAL/MOL
REMARK 924 INTRA-LIGAND FREE ENERGY PREDICTED BY IDOCK:    0.48 KCAL/MOL
REMARK 927      BINDING AFFINITY PREDICTED BY RF-SCORE:    0.00 PKD
ROOT
HETATM    1  N   UNK A   0      -5.741   8.244  64.513  1.00  0.00    -0.051 NA 
HETATM    2  C   UNK A   0      -6.451   7.752  65.582  1.00  0.00    -0.042 A  
HETATM    3  H2  UNK A   0      -4.981   8.910  64.648  1.00  0.00     0.000 HD 
HETATM    4  H1  UNK A   0      -5.999   7.920  63.581  1.00  0.00     0.000 HD 
HETATM    5  N   UNK A   0      -6.114   8.173  66.797  1.00  0.00    -0.052 NA 
HETATM    6  C   UNK A   0      -6.744   7.633  67.838  1.00  0.00    -0.067 A  
HETATM    7  N   UNK A   0      -6.349   7.993  69.064  1.00  0.00    -0.039 NA 
HETATM    8  C   UNK A   0      -6.913   7.371  70.126  1.00  0.00    -0.060 A  
HETATM    9  C   UNK A   0      -7.891   6.397  69.997  1.00  0.00    -0.111 A  
HETATM   10  H2  UNK A   0      -9.931   5.774  66.528  1.00  0.00     0.000 HD 
HETATM   11  N   UNK A   0      -8.346   6.057  68.771  1.00  0.00    -0.106 NA 
HETATM   12  H1  UNK A   0      -9.285   5.197  65.119  1.00  0.00     0.000 HD 
HETATM   13  C   UNK A   0      -7.755   6.675  67.702  1.00  0.00    -0.107 A  
HETATM   14  C   UNK A   0      -8.041   6.346  66.383  1.00  0.00    -0.112 A  
HETATM   15  N   UNK A   0      -9.074   5.439  66.087  1.00  0.00    -0.147 NA 
HETATM   16  N   UNK A   0      -7.408   6.866  65.323  1.00  0.00    -0.080 NA 
ENDROOT
BRANCH   9  17
HETATM   17  C   UNK A   0      -8.388   5.594  71.175  1.00  0.00    -0.122 C  
HETATM   18  C   UNK A   0     -10.652   6.759  71.055  1.00  0.00    -0.252 A  
HETATM   19  C   UNK A   0     -10.409   7.801  71.968  1.00  0.00    -0.267 A  
HETATM   20  C   UNK A   0     -11.496   7.005  69.963  1.00  0.00    -0.262 A  
HETATM   21  C   UNK A   0      -9.933   5.412  71.174  1.00  0.00    -0.257 C  
HETATM   22  C   UNK A   0     -11.987   8.289  69.721  1.00  0.00     0.902 A  
HETATM   23  C   UNK A   0     -10.900   9.087  71.729  1.00  0.00    -0.437 A  
HETATM   24  C   UNK A   0     -10.443   4.648  72.411  1.00  0.00    -0.250 C  
HETATM   25  C   UNK A   0     -11.639   9.342  70.570  1.00  0.00    -0.291 A  
BRANCH  24  26
HETATM   26  C   UNK A   0      -9.874   3.296  72.551  1.00  0.00    -0.217 C  
HETATM   27  C   UNK A   0      -9.451   2.185  72.725  1.00  0.00    -0.130 C  
ENDBRANCH  24  26
BRANCH  25  28
HETATM   28  C   UNK A   0     -12.017  10.740  70.244  1.00  0.00    -0.351 C  
HETATM   29  O   UNK A   0     -12.541  11.019  69.173  1.00  0.00    -0.378 OA 
ATOM     30  N   GLU A   1     -11.787  11.678  71.247  1.00  0.00     0.051 N  
ATOM     31  H   GLU A   1     -11.274  11.416  72.090  1.00  0.00     0.000 HD 
BRANCH  30  32
ATOM     32  CA  GLU A   1     -12.293  13.056  71.079  1.00  0.00    -0.244 C  
ATOM     33  O   GLU A   1     -14.173  12.084  72.247  1.00  0.00     0.266 OA 
ATOM     34  C   GLU A   1     -13.541  13.251  71.962  1.00  0.00    -0.484 C  
ATOM     35  OXT GLU A   1     -14.016  14.339  72.255  1.00  0.00    -0.461 OA 
BRANCH  32  36
ATOM     36  CB  GLU A   1     -12.649  13.318  69.605  1.00  0.00     0.145 C  
BRANCH  36  37
ATOM     37  CG  GLU A   1     -11.670  14.268  68.904  1.00  0.00    -0.363 C  
ATOM     38  CD  GLU A   1     -11.803  15.696  69.374  1.00  0.00    -0.375 C  
ATOM     39  OE2 GLU A   1     -12.596  16.091  70.210  1.00  0.00    -0.286 OA 
ATOM     40  OE1 GLU A   1     -10.920  16.518  68.763  1.00  0.00    -0.319 OA 
ENDBRANCH  36  37
ENDBRANCH  32  36
ENDBRANCH  30  32
ENDBRANCH  25  28
ENDBRANCH   9  17
TORSDOF 6
ENDMDL
MODEL      185
REMARK 921   NORMALIZED FREE ENERGY PREDICTED BY IDOCK:   -2.51 KCAL/MOL
REMARK 922        TOTAL FREE ENERGY PREDICTED BY IDOCK:   -4.81 KCAL/MOL
REMARK 923 INTER-LIGAND FREE ENERGY PREDICTED BY IDOCK:   -3.85 KCAL/MOL
REMARK 924 INTRA-LIGAND FREE ENERGY PREDICTED BY IDOCK:   -0.95 KCAL/MOL
REMARK 927      BINDING AFFINITY PREDICTED BY RF-SCORE:    0.00 PKD
ROOT
HETATM    1  N   UNK A   0     -10.366   8.318  72.935  1.00  0.00    -0.261 NA 
HETATM    2  C   UNK A   0     -10.887   9.027  71.879  1.00  0.00    -0.343 A  
HETATM    3  H2  UNK A   0      -9.663   7.594  72.788  1.00  0.00     0.000 HD 
HETATM    4  H1  UNK A   0     -10.705   8.541  73.871  1.00  0.00     0.000 HD 
HETATM    5  N   UNK A   0     -10.444   8.737  70.660  1.00  0.00    -0.200 NA 
HETATM    6  C   UNK A   0     -10.885   9.480  69.647  1.00  0.00    -0.235 A  
HETATM    7  N   UNK A   0     -10.377   9.246  68.432  1.00  0.00    -0.203 NA 
HETATM    8  C   UNK A   0     -10.742  10.064  67.417  1.00  0.00    -0.274 A  
HETATM    9  C   UNK A   0     -11.630  11.117  67.580  1.00  0.00    -0.183 A  
HETATM   10  H2  UNK A   0     -14.014  11.496  70.860  1.00  0.00     0.000 HD 
HETATM   11  N   UNK A   0     -12.198  11.338  68.786  1.00  0.00    -0.525 NA 
HETATM   12  H1  UNK A   0     -13.494  11.802  72.400  1.00  0.00     0.000 HD 
HETATM   13  C   UNK A   0     -11.807  10.519  69.811  1.00  0.00    -0.257 A  
HETATM   14  C   UNK A   0     -12.221  10.699  71.124  1.00  0.00    -0.374 A  
HETATM   15  N   UNK A   0     -13.190  11.670  71.436  1.00  0.00    -0.224 NA 
HETATM   16  N   UNK A   0     -11.778   9.973  72.159  1.00  0.00     0.441 NA 
ENDROOT
BRANCH   9  17
HETATM   17  C   UNK A   0     -11.897  12.122  66.485  1.00  0.00    -0.322 C  
HETATM   18  C   UNK A   0      -9.446  12.825  66.489  1.00  0.00    -0.253 A  
HETATM   19  C   UNK A   0      -9.531  13.901  67.389  1.00  0.00    -0.226 A  
HETATM   20  C   UNK A   0      -8.275  12.054  66.469  1.00  0.00     0.013 A  
HETATM   21  C   UNK A   0     -10.639  12.419  65.618  1.00  0.00    -0.297 C  
HETATM   22  C   UNK A   0      -7.264  12.276  67.406  1.00  0.00    -0.147 A  
HETATM   23  C   UNK A   0      -8.520  14.127  68.327  1.00  0.00    -0.169 A  
HETATM   24  C   UNK A   0     -10.898  13.492  64.543  1.00  0.00    -0.422 C  
HETATM   25  C   UNK A   0      -7.414  13.273  68.373  1.00  0.00    -0.124 A  
BRANCH  24  26
HETATM   26  C   UNK A   0     -11.971  13.138  63.597  1.00  0.00    -0.580 C  
HETATM   27  C   UNK A   0     -12.860  12.791  62.867  1.00  0.00     0.688 C  
ENDBRANCH  24  26
BRANCH  25  28
HETATM   28  C   UNK A   0      -6.428  13.421  69.472  1.00  0.00    -0.083 C  
HETATM   29  O   UNK A   0      -5.603  12.546  69.704  1.00  0.00    -0.078 OA 
ATOM     30  N   GLU A   1      -6.475  14.627  70.168  1.00  0.00    -0.172 N  
ATOM     31  H   GLU A   1      -7.229  15.292  69.996  1.00  0.00     0.000 HD 
BRANCH  30  32
ATOM     32  CA  GLU A   1      -5.421  14.933  71.158  1.00  0.00    -0.095 C  
ATOM     33  O   GLU A   1      -7.223  14.358  72.663  1.00  0.00     2.135 OA 
ATOM     34  C   GLU A   1      -5.874  14.448  72.549  1.00  0.00     0.202 C  
ATOM     35  OXT GLU A   1      -5.128  14.305  73.507  1.00  0.00    -0.307 OA 
BRANCH  32  36
ATOM     36  CB  GLU A   1      -5.148  16.447  71.195  1.00  0.00    -0.130 C  
BRANCH  36  37
ATOM     37  CG  GLU A   1      -5.385  17.139  69.848  1.00  0.00    -0.200 C  
ATOM     38  CD  GLU A   1      -5.649  18.618  69.989  1.00  0.00    -0.234 C  
ATOM     39  OE2 GLU A   1      -5.685  19.230  71.043  1.00  0.00    -0.207 OA 
ATOM     40  OE1 GLU A   1      -5.836  19.220  68.793  1.00  0.00    -0.209 OA 
ENDBRANCH  36  37
ENDBRANCH  32  36
ENDBRANCH  30  32
ENDBRANCH  25  28
ENDBRANCH   9  17
TORSDOF 6
ENDMDL
MODEL      186
REMARK 921   NORMALIZED FREE ENERGY PREDICTED BY IDOCK:   -2.46 KCAL/MOL
REMARK 922        TOTAL FREE ENERGY PREDICTED BY IDOCK:   -4.73 KCAL/MOL
REMARK 923 INTER-LIGAND FREE ENERGY PREDICTED BY IDOCK:   -4.46 KCAL/MOL
REMARK 924 INTRA-LIGAND FREE ENERGY PREDICTED BY IDOCK:   -0.27 KCAL/MOL
REMARK 927      BINDING AFFINITY PREDICTED BY RF-SCORE:    0.00 PKD
ROOT
HETATM    1  N   UNK A   0      -9.185   8.996  62.644  1.00  0.00    -0.513 NA 
HETATM    2  C   UNK A   0      -8.631   8.844  63.893  1.00  0.00    -0.091 A  
HETATM    3  H2  UNK A   0      -8.677   8.718  61.805  1.00  0.00     0.000 HD 
HETATM    4  H1  UNK A   0     -10.121   9.396  62.585  1.00  0.00     0.000 HD 
HETATM    5  N   UNK A   0      -7.411   8.323  63.970  1.00  0.00    -0.097 NA 
HETATM    6  C   UNK A   0      -6.908   8.097  65.182  1.00  0.00    -0.058 A  
HETATM    7  N   UNK A   0      -5.716   7.495  65.262  1.00  0.00    -0.037 NA 
HETATM    8  C   UNK A   0      -5.246   7.167  66.489  1.00  0.00    -0.022 A  
HETATM    9  C   UNK A   0      -5.936   7.447  67.659  1.00  0.00    -0.038 A  
HETATM   10  H2  UNK A   0      -9.065  10.049  67.801  1.00  0.00     0.000 HD 
HETATM   11  N   UNK A   0      -7.115   8.104  67.606  1.00  0.00    -0.085 NA 
HETATM   12  H1  UNK A   0     -10.538   9.827  67.082  1.00  0.00     0.000 HD 
HETATM   13  C   UNK A   0      -7.593   8.411  66.360  1.00  0.00    -0.084 A  
HETATM   14  C   UNK A   0      -8.840   8.984  66.148  1.00  0.00    -0.164 A  
HETATM   15  N   UNK A   0      -9.622   9.407  67.238  1.00  0.00    -0.146 NA 
HETATM   16  N   UNK A   0      -9.370   9.205  64.937  1.00  0.00    -0.087 NA 
ENDROOT
BRANCH   9  17
HETATM   17  C   UNK A   0      -5.484   6.928  69.003  1.00  0.00    -0.017 C  
HETATM   18  C   UNK A   0      -6.359   9.032  70.145  1.00  0.00    -0.043 A  
HETATM   19  C   UNK A   0      -5.178   9.794  70.131  1.00  0.00    -0.036 A  
HETATM   20  C   UNK A   0      -7.589   9.693  70.023  1.00  0.00    -0.151 A  
HETATM   21  C   UNK A   0      -6.319   7.501  70.184  1.00  0.00    -0.034 C  
HETATM   22  C   UNK A   0      -7.634  11.066  69.769  1.00  0.00     0.194 A  
HETATM   23  C   UNK A   0      -5.219  11.169  69.879  1.00  0.00    -0.050 A  
HETATM   24  C   UNK A   0      -5.813   7.021  71.558  1.00  0.00    -0.037 C  
HETATM   25  C   UNK A   0      -6.447  11.791  69.637  1.00  0.00    -0.113 A  
BRANCH  24  26
HETATM   26  C   UNK A   0      -5.833   5.556  71.719  1.00  0.00    -0.025 C  
HETATM   27  C   UNK A   0      -5.823   4.356  71.782  1.00  0.00    -0.012 C  
ENDBRANCH  24  26
BRANCH  25  28
HETATM   28  C   UNK A   0      -6.469  13.213  69.212  1.00  0.00    -0.107 C  
HETATM   29  O   UNK A   0      -5.455  13.899  69.248  1.00  0.00    -0.081 OA 
ATOM     30  N   GLU A   1      -7.688  13.681  68.727  1.00  0.00    -0.258 N  
ATOM     31  H   GLU A   1      -8.525  13.100  68.792  1.00  0.00     0.000 HD 
BRANCH  30  32
ATOM     32  CA  GLU A   1      -7.758  15.025  68.119  1.00  0.00    -0.113 C  
ATOM     33  O   GLU A   1      -9.209  15.376  70.020  1.00  0.00    -0.118 OA 
ATOM     34  C   GLU A   1      -8.414  16.001  69.115  1.00  0.00    -0.247 C  
ATOM     35  OXT GLU A   1      -8.363  17.219  69.023  1.00  0.00    -0.212 OA 
BRANCH  32  36
ATOM     36  CB  GLU A   1      -8.575  14.980  66.816  1.00  0.00    -0.279 C  
BRANCH  36  37
ATOM     37  CG  GLU A   1      -9.809  14.074  66.906  1.00  0.00    -0.267 C  
ATOM     38  CD  GLU A   1     -11.061  14.826  67.285  1.00  0.00    -0.332 C  
ATOM     39  OE2 GLU A   1     -11.122  16.022  67.512  1.00  0.00    -0.300 OA 
ATOM     40  OE1 GLU A   1     -12.145  14.019  67.341  1.00  0.00    -0.402 OA 
ENDBRANCH  36  37
ENDBRANCH  32  36
ENDBRANCH  30  32
ENDBRANCH  25  28
ENDBRANCH   9  17
TORSDOF 6
ENDMDL
MODEL      187
REMARK 921   NORMALIZED FREE ENERGY PREDICTED BY IDOCK:   -2.39 KCAL/MOL
REMARK 922        TOTAL FREE ENERGY PREDICTED BY IDOCK:   -4.64 KCAL/MOL
REMARK 923 INTER-LIGAND FREE ENERGY PREDICTED BY IDOCK:   -3.91 KCAL/MOL
REMARK 924 INTRA-LIGAND FREE ENERGY PREDICTED BY IDOCK:   -0.73 KCAL/MOL
REMARK 927      BINDING AFFINITY PREDICTED BY RF-SCORE:    0.00 PKD
ROOT
HETATM    1  N   UNK A   0      -8.014  10.590  62.529  1.00  0.00    -0.162 NA 
HETATM    2  C   UNK A   0      -8.566  10.938  63.738  1.00  0.00     0.041 A  
HETATM    3  H2  UNK A   0      -8.590  10.507  61.691  1.00  0.00     0.000 HD 
HETATM    4  H1  UNK A   0      -7.009  10.418  62.497  1.00  0.00     0.000 HD 
HETATM    5  N   UNK A   0      -9.876  11.163  63.779  1.00  0.00    -0.297 NA 
HETATM    6  C   UNK A   0     -10.397  11.583  64.930  1.00  0.00    -0.289 A  
HETATM    7  N   UNK A   0     -11.699  11.890  64.952  1.00  0.00    -0.249 NA 
HETATM    8  C   UNK A   0     -12.213  12.416  66.089  1.00  0.00    -0.040 A  
HETATM    9  C   UNK A   0     -11.456  12.628  67.230  1.00  0.00    -0.342 A  
HETATM   10  H2  UNK A   0      -7.781  10.959  67.776  1.00  0.00     0.000 HD 
HETATM   11  N   UNK A   0     -10.153  12.273  67.250  1.00  0.00    -0.203 NA 
HETATM   12  H1  UNK A   0      -6.421  11.316  66.905  1.00  0.00     0.000 HD 
HETATM   13  C   UNK A   0      -9.636  11.763  66.089  1.00  0.00    -0.232 A  
HETATM   14  C   UNK A   0      -8.290  11.460  65.929  1.00  0.00     0.040 A  
HETATM   15  N   UNK A   0      -7.410  11.538  67.023  1.00  0.00    -0.138 NA 
HETATM   16  N   UNK A   0      -7.743  11.051  64.775  1.00  0.00     0.368 NA 
ENDROOT
BRANCH   9  17
HETATM   17  C   UNK A   0     -11.998  13.368  68.430  1.00  0.00    -0.359 C  
HETATM   18  C   UNK A   0     -11.223  11.496  69.976  1.00  0.00    -0.108 A  
HETATM   19  C   UNK A   0     -12.406  10.737  70.008  1.00  0.00    -0.371 A  
HETATM   20  C   UNK A   0      -9.993  10.828  70.057  1.00  0.00     0.413 A  
HETATM   21  C   UNK A   0     -11.254  13.011  69.748  1.00  0.00    -0.010 C  
HETATM   22  C   UNK A   0      -9.941   9.433  70.046  1.00  0.00    -0.253 A  
HETATM   23  C   UNK A   0     -12.358   9.341  70.000  1.00  0.00     0.615 A  
HETATM   24  C   UNK A   0     -11.851  13.718  70.980  1.00  0.00    -0.063 C  
HETATM   25  C   UNK A   0     -11.121   8.691  69.957  1.00  0.00    -0.161 A  
BRANCH  24  26
HETATM   26  C   UNK A   0     -11.831  15.189  70.888  1.00  0.00    -0.373 C  
HETATM   27  C   UNK A   0     -11.800  16.390  70.885  1.00  0.00    -0.015 C  
ENDBRANCH  24  26
BRANCH  25  28
HETATM   28  C   UNK A   0     -11.081   7.217  69.785  1.00  0.00    -0.182 C  
HETATM   29  O   UNK A   0     -11.964   6.503  70.242  1.00  0.00    -0.394 OA 
ATOM     30  N   GLU A   1     -10.016   6.725  69.033  1.00  0.00    -0.152 N  
ATOM     31  H   GLU A   1      -9.261   7.347  68.742  1.00  0.00     0.000 HD 
BRANCH  30  32
ATOM     32  CA  GLU A   1      -9.992   5.295  68.661  1.00  0.00    -0.168 C  
ATOM     33  O   GLU A   1      -7.719   5.539  69.446  1.00  0.00    -0.083 OA 
ATOM     34  C   GLU A   1      -8.715   4.644  69.229  1.00  0.00    -0.086 C  
ATOM     35  OXT GLU A   1      -8.543   3.438  69.331  1.00  0.00    -0.063 OA 
BRANCH  32  36
ATOM     36  CB  GLU A   1     -10.022   5.141  67.130  1.00  0.00    -0.221 C  
BRANCH  36  37
ATOM     37  CG  GLU A   1      -8.699   4.630  66.546  1.00  0.00    -0.111 C  
ATOM     38  CD  GLU A   1      -7.870   5.729  65.930  1.00  0.00    -0.101 C  
ATOM     39  OE2 GLU A   1      -8.186   6.905  65.875  1.00  0.00    -0.116 OA 
ATOM     40  OE1 GLU A   1      -6.697   5.269  65.437  1.00  0.00    -0.043 OA 
ENDBRANCH  36  37
ENDBRANCH  32  36
ENDBRANCH  30  32
ENDBRANCH  25  28
ENDBRANCH   9  17
TORSDOF 6
ENDMDL
MODEL      188
REMARK 921   NORMALIZED FREE ENERGY PREDICTED BY IDOCK:   -2.37 KCAL/MOL
REMARK 922        TOTAL FREE ENERGY PREDICTED BY IDOCK:   -4.61 KCAL/MOL
REMARK 923 INTER-LIGAND FREE ENERGY PREDICTED BY IDOCK:   -4.12 KCAL/MOL
REMARK 924 INTRA-LIGAND FREE ENERGY PREDICTED BY IDOCK:   -0.49 KCAL/MOL
REMARK 927      BINDING AFFINITY PREDICTED BY RF-SCORE:    0.00 PKD
ROOT
HETATM    1  N   UNK A   0     -12.188  12.560  63.138  1.00  0.00    -0.697 NA 
HETATM    2  C   UNK A   0     -11.340  11.804  63.912  1.00  0.00    -0.411 A  
HETATM    3  H2  UNK A   0     -11.904  12.897  62.219  1.00  0.00     0.000 HD 
HETATM    4  H1  UNK A   0     -13.112  12.771  63.515  1.00  0.00     0.000 HD 
HETATM    5  N   UNK A   0     -10.136  11.528  63.421  1.00  0.00    -0.387 NA 
HETATM    6  C   UNK A   0      -9.345  10.725  64.131  1.00  0.00    -0.252 A  
HETATM    7  N   UNK A   0      -8.168  10.378  63.601  1.00  0.00    -0.155 NA 
HETATM    8  C   UNK A   0      -7.404   9.481  64.269  1.00  0.00    -0.118 A  
HETATM    9  C   UNK A   0      -7.782   8.927  65.483  1.00  0.00    -0.088 A  
HETATM   10  H2  UNK A   0     -10.792  10.458  67.760  1.00  0.00     0.000 HD 
HETATM   11  N   UNK A   0      -8.941   9.306  66.065  1.00  0.00    -0.164 NA 
HETATM   12  H1  UNK A   0     -12.396  10.469  67.357  1.00  0.00     0.000 HD 
HETATM   13  C   UNK A   0      -9.716  10.196  65.372  1.00  0.00    -0.291 A  
HETATM   14  C   UNK A   0     -10.981  10.588  65.793  1.00  0.00     0.239 A  
HETATM   15  N   UNK A   0     -11.468  10.181  67.048  1.00  0.00     0.148 NA 
HETATM   16  N   UNK A   0     -11.797  11.381  65.086  1.00  0.00     0.090 NA 
ENDROOT
BRANCH   9  17
HETATM   17  C   UNK A   0      -7.006   7.807  66.132  1.00  0.00    -0.062 C  
HETATM   18  C   UNK A   0      -7.225   8.931  68.409  1.00  0.00    -0.078 A  
HETATM   19  C   UNK A   0      -6.022   9.658  68.409  1.00  0.00    -0.043 A  
HETATM   20  C   UNK A   0      -8.344   9.479  69.054  1.00  0.00    -0.126 A  
HETATM   21  C   UNK A   0      -7.362   7.616  67.635  1.00  0.00    -0.095 C  
HETATM   22  C   UNK A   0      -8.297  10.773  69.577  1.00  0.00     0.064 A  
HETATM   23  C   UNK A   0      -5.972  10.953  68.935  1.00  0.00    -0.040 A  
HETATM   24  C   UNK A   0      -6.521   6.516  68.311  1.00  0.00    -0.049 C  
HETATM   25  C   UNK A   0      -7.129  11.531  69.464  1.00  0.00     0.016 A  
BRANCH  24  26
HETATM   26  C   UNK A   0      -6.669   5.189  67.686  1.00  0.00    -0.055 C  
HETATM   27  C   UNK A   0      -6.828   4.086  67.236  1.00  0.00    -0.051 C  
ENDBRANCH  24  26
BRANCH  25  28
HETATM   28  C   UNK A   0      -7.107  12.959  69.869  1.00  0.00     0.694 C  
HETATM   29  O   UNK A   0      -6.256  13.384  70.640  1.00  0.00    -0.084 OA 
ATOM     30  N   GLU A   1      -8.071  13.770  69.276  1.00  0.00    -0.288 N  
ATOM     31  H   GLU A   1      -8.809  13.359  68.705  1.00  0.00     0.000 HD 
BRANCH  30  32
ATOM     32  CA  GLU A   1      -8.013  15.232  69.483  1.00  0.00    -0.199 C  
ATOM     33  O   GLU A   1      -9.725  15.141  67.778  1.00  0.00    -0.210 OA 
ATOM     34  C   GLU A   1      -9.222  15.892  68.791  1.00  0.00    -0.218 C  
ATOM     35  OXT GLU A   1      -9.605  17.032  69.009  1.00  0.00    -0.255 OA 
BRANCH  32  36
ATOM     36  CB  GLU A   1      -6.705  15.802  68.906  1.00  0.00    -0.126 C  
BRANCH  36  37
ATOM     37  CG  GLU A   1      -5.941  16.688  69.897  1.00  0.00    -0.214 C  
ATOM     38  CD  GLU A   1      -5.810  18.115  69.424  1.00  0.00    -0.235 C  
ATOM     39  OE2 GLU A   1      -6.244  18.551  68.371  1.00  0.00    -0.199 OA 
ATOM     40  OE1 GLU A   1      -5.152  18.891  70.316  1.00  0.00    -0.184 OA 
ENDBRANCH  36  37
ENDBRANCH  32  36
ENDBRANCH  30  32
ENDBRANCH  25  28
ENDBRANCH   9  17
TORSDOF 6
ENDMDL
MODEL      189
REMARK 921   NORMALIZED FREE ENERGY PREDICTED BY IDOCK:   -2.24 KCAL/MOL
REMARK 922        TOTAL FREE ENERGY PREDICTED BY IDOCK:   -4.43 KCAL/MOL
REMARK 923 INTER-LIGAND FREE ENERGY PREDICTED BY IDOCK:   -4.68 KCAL/MOL
REMARK 924 INTRA-LIGAND FREE ENERGY PREDICTED BY IDOCK:    0.25 KCAL/MOL
REMARK 927      BINDING AFFINITY PREDICTED BY RF-SCORE:    0.00 PKD
ROOT
HETATM    1  N   UNK A   0      -5.191  14.503  71.351  1.00  0.00    -0.139 NA 
HETATM    2  C   UNK A   0      -5.502  13.313  70.738  1.00  0.00    -0.174 A  
HETATM    3  H2  UNK A   0      -5.204  15.381  70.833  1.00  0.00     0.000 HD 
HETATM    4  H1  UNK A   0      -4.946  14.478  72.341  1.00  0.00     0.000 HD 
HETATM    5  N   UNK A   0      -5.822  13.345  69.448  1.00  0.00    -0.087 NA 
HETATM    6  C   UNK A   0      -6.206  12.206  68.876  1.00  0.00    -0.077 A  
HETATM    7  N   UNK A   0      -6.609  12.252  67.601  1.00  0.00    -0.106 NA 
HETATM    8  C   UNK A   0      -7.099  11.120  67.044  1.00  0.00    -0.124 A  
HETATM    9  C   UNK A   0      -7.181   9.917  67.730  1.00  0.00    -0.088 A  
HETATM   10  H2  UNK A   0      -5.209   9.240  71.228  1.00  0.00     0.000 HD 
HETATM   11  N   UNK A   0      -6.728   9.834  68.999  1.00  0.00    -0.049 NA 
HETATM   12  H1  UNK A   0      -5.517   9.990  72.669  1.00  0.00     0.000 HD 
HETATM   13  C   UNK A   0      -6.255  10.989  69.562  1.00  0.00    -0.085 A  
HETATM   14  C   UNK A   0      -5.862  11.078  70.891  1.00  0.00    -0.003 A  
HETATM   15  N   UNK A   0      -5.805   9.924  71.693  1.00  0.00    -0.277 NA 
HETATM   16  N   UNK A   0      -5.488  12.217  71.490  1.00  0.00    -0.386 NA 
ENDROOT
BRANCH   9  17
HETATM   17  C   UNK A   0      -7.883   8.710  67.155  1.00  0.00    -0.097 C  
HETATM   18  C   UNK A   0      -9.099  10.181  65.465  1.00  0.00    -0.216 A  
HETATM   19  C   UNK A   0     -10.277  10.420  66.193  1.00  0.00    -0.288 A  
HETATM   20  C   UNK A   0      -8.616  11.186  64.615  1.00  0.00     0.213 A  
HETATM   21  C   UNK A   0      -8.286   8.897  65.664  1.00  0.00    -0.126 C  
HETATM   22  C   UNK A   0      -9.225  12.442  64.586  1.00  0.00     0.623 A  
HETATM   23  C   UNK A   0     -10.890  11.676  66.165  1.00  0.00    -0.343 A  
HETATM   24  C   UNK A   0      -9.059   7.690  65.100  1.00  0.00     0.428 C  
HETATM   25  C   UNK A   0     -10.325  12.705  65.406  1.00  0.00    -0.311 A  
BRANCH  24  26
HETATM   26  C   UNK A   0      -8.308   6.423  65.163  1.00  0.00    -0.109 C  
HETATM   27  C   UNK A   0      -7.761   5.355  65.221  1.00  0.00    -0.089 C  
ENDBRANCH  24  26
BRANCH  25  28
HETATM   28  C   UNK A   0     -10.887  14.075  65.509  1.00  0.00    -0.309 C  
HETATM   29  O   UNK A   0     -11.805  14.438  64.784  1.00  0.00    -0.389 OA 
ATOM     30  N   GLU A   1     -10.340  14.879  66.507  1.00  0.00    -0.285 N  
ATOM     31  H   GLU A   1      -9.523  14.565  67.031  1.00  0.00     0.000 HD 
BRANCH  30  32
ATOM     32  CA  GLU A   1     -10.956  16.190  66.798  1.00  0.00    -0.080 C  
ATOM     33  O   GLU A   1      -8.641  16.733  67.236  1.00  0.00    -0.186 OA 
ATOM     34  C   GLU A   1      -9.850  17.258  66.909  1.00  0.00    -0.287 C  
ATOM     35  OXT GLU A   1     -10.048  18.463  66.866  1.00  0.00    -0.328 OA 
BRANCH  32  36
ATOM     36  CB  GLU A   1     -11.754  16.125  68.112  1.00  0.00    -0.013 C  
BRANCH  36  37
ATOM     37  CG  GLU A   1     -12.216  14.707  68.472  1.00  0.00    -0.135 C  
ATOM     38  CD  GLU A   1     -11.595  14.196  69.748  1.00  0.00    -0.290 C  
ATOM     39  OE2 GLU A   1     -10.802  14.810  70.442  1.00  0.00    -0.133 OA 
ATOM     40  OE1 GLU A   1     -12.027  12.954  70.065  1.00  0.00    -0.334 OA 
ENDBRANCH  36  37
ENDBRANCH  32  36
ENDBRANCH  30  32
ENDBRANCH  25  28
ENDBRANCH   9  17
TORSDOF 6
ENDMDL
MODEL      190
REMARK 921   NORMALIZED FREE ENERGY PREDICTED BY IDOCK:   -2.23 KCAL/MOL
REMARK 922        TOTAL FREE ENERGY PREDICTED BY IDOCK:   -4.42 KCAL/MOL
REMARK 923 INTER-LIGAND FREE ENERGY PREDICTED BY IDOCK:   -3.19 KCAL/MOL
REMARK 924 INTRA-LIGAND FREE ENERGY PREDICTED BY IDOCK:   -1.23 KCAL/MOL
REMARK 927      BINDING AFFINITY PREDICTED BY RF-SCORE:    0.00 PKD
ROOT
HETATM    1  N   UNK A   0     -11.625  15.513  63.441  1.00  0.00     0.071 NA 
HETATM    2  C   UNK A   0     -11.574  14.763  64.592  1.00  0.00    -0.399 A  
HETATM    3  H2  UNK A   0     -11.643  15.069  62.524  1.00  0.00     0.000 HD 
HETATM    4  H1  UNK A   0     -11.646  16.528  63.537  1.00  0.00     0.000 HD 
HETATM    5  N   UNK A   0     -11.547  13.440  64.468  1.00  0.00    -0.355 NA 
HETATM    6  C   UNK A   0     -11.584  12.712  65.582  1.00  0.00    -0.377 A  
HETATM    7  N   UNK A   0     -11.643  11.381  65.458  1.00  0.00    -0.047 NA 
HETATM    8  C   UNK A   0     -11.785  10.639  66.582  1.00  0.00     1.250 A  
HETATM    9  C   UNK A   0     -11.851  11.197  67.849  1.00  0.00    -0.082 A  
HETATM   10  H2  UNK A   0     -10.777  15.050  68.617  1.00  0.00     0.000 HD 
HETATM   11  N   UNK A   0     -11.737  12.534  68.004  1.00  0.00    -0.346 NA 
HETATM   12  H1  UNK A   0     -11.564  16.397  68.070  1.00  0.00     0.000 HD 
HETATM   13  C   UNK A   0     -11.616  13.278  66.860  1.00  0.00    -0.364 A  
HETATM   14  C   UNK A   0     -11.602  14.667  66.859  1.00  0.00    -0.362 A  
HETATM   15  N   UNK A   0     -11.574  15.378  68.072  1.00  0.00    -0.331 NA 
HETATM   16  N   UNK A   0     -11.582  15.418  65.749  1.00  0.00    -0.032 NA 
ENDROOT
BRANCH   9  17
HETATM   17  C   UNK A   0     -12.178  10.376  69.074  1.00  0.00     0.276 C  
HETATM   18  C   UNK A   0      -9.736   9.682  69.300  1.00  0.00    -0.191 A  
HETATM   19  C   UNK A   0      -9.786   8.477  68.576  1.00  0.00    -0.174 A  
HETATM   20  C   UNK A   0      -8.561  10.446  69.257  1.00  0.00    -0.159 A  
HETATM   21  C   UNK A   0     -10.967  10.219  70.037  1.00  0.00    -0.371 C  
HETATM   22  C   UNK A   0      -7.508  10.079  68.417  1.00  0.00    -0.082 A  
HETATM   23  C   UNK A   0      -8.732   8.107  67.736  1.00  0.00    -0.130 A  
HETATM   24  C   UNK A   0     -11.285   9.327  71.253  1.00  0.00    -0.425 C  
HETATM   25  C   UNK A   0      -7.619   8.943  67.611  1.00  0.00    -0.093 A  
BRANCH  24  26
HETATM   26  C   UNK A   0     -12.400   9.825  72.079  1.00  0.00    -0.336 C  
HETATM   27  C   UNK A   0     -13.321  10.283  72.701  1.00  0.00     0.363 C  
ENDBRANCH  24  26
BRANCH  25  28
HETATM   28  C   UNK A   0      -6.582   8.625  66.598  1.00  0.00    -0.060 C  
HETATM   29  O   UNK A   0      -5.735   9.450  66.279  1.00  0.00    -0.051 OA 
ATOM     30  N   GLU A   1      -6.611   7.328  66.090  1.00  0.00    -0.051 N  
ATOM     31  H   GLU A   1      -7.382   6.702  66.322  1.00  0.00     0.000 HD 
BRANCH  30  32
ATOM     32  CA  GLU A   1      -5.514   6.870  65.213  1.00  0.00    -0.027 C  
ATOM     33  O   GLU A   1      -7.274   7.082  63.569  1.00  0.00    -0.060 OA 
ATOM     34  C   GLU A   1      -5.928   7.060  63.740  1.00  0.00    -0.040 C  
ATOM     35  OXT GLU A   1      -5.151   7.038  62.797  1.00  0.00    -0.030 OA 
BRANCH  32  36
ATOM     36  CB  GLU A   1      -5.201   5.387  65.481  1.00  0.00    -0.009 C  
BRANCH  36  37
ATOM     37  CG  GLU A   1      -6.410   4.595  65.992  1.00  0.00    -0.036 C  
ATOM     38  CD  GLU A   1      -6.512   4.591  67.497  1.00  0.00    -0.045 C  
ATOM     39  OE2 GLU A   1      -5.734   5.140  68.258  1.00  0.00    -0.015 OA 
ATOM     40  OE1 GLU A   1      -7.594   3.906  67.934  1.00  0.00    -0.066 OA 
ENDBRANCH  36  37
ENDBRANCH  32  36
ENDBRANCH  30  32
ENDBRANCH  25  28
ENDBRANCH   9  17
TORSDOF 6
ENDMDL
MODEL      191
REMARK 921   NORMALIZED FREE ENERGY PREDICTED BY IDOCK:   -2.18 KCAL/MOL
REMARK 922        TOTAL FREE ENERGY PREDICTED BY IDOCK:   -4.36 KCAL/MOL
REMARK 923 INTER-LIGAND FREE ENERGY PREDICTED BY IDOCK:   -4.13 KCAL/MOL
REMARK 924 INTRA-LIGAND FREE ENERGY PREDICTED BY IDOCK:   -0.22 KCAL/MOL
REMARK 927      BINDING AFFINITY PREDICTED BY RF-SCORE:    0.00 PKD
ROOT
HETATM    1  N   UNK A   0      -6.797   3.562  67.030  1.00  0.00    -0.049 NA 
HETATM    2  C   UNK A   0      -7.759   4.532  66.883  1.00  0.00    -0.094 A  
HETATM    3  H2  UNK A   0      -5.928   3.598  66.499  1.00  0.00     0.000 HD 
HETATM    4  H1  UNK A   0      -6.982   2.806  67.689  1.00  0.00     0.000 HD 
HETATM    5  N   UNK A   0      -7.518   5.518  66.024  1.00  0.00    -0.081 NA 
HETATM    6  C   UNK A   0      -8.411   6.503  65.944  1.00  0.00    -0.140 A  
HETATM    7  N   UNK A   0      -8.130   7.538  65.144  1.00  0.00    -0.128 NA 
HETATM    8  C   UNK A   0      -8.982   8.590  65.136  1.00  0.00    -0.006 A  
HETATM    9  C   UNK A   0     -10.137   8.630  65.904  1.00  0.00     0.275 A  
HETATM   10  H2  UNK A   0     -11.717   5.322  67.676  1.00  0.00     0.000 HD 
HETATM   11  N   UNK A   0     -10.469   7.573  66.676  1.00  0.00    -0.228 NA 
HETATM   12  H1  UNK A   0     -11.024   4.464  68.909  1.00  0.00     0.000 HD 
HETATM   13  C   UNK A   0      -9.591   6.523  66.694  1.00  0.00    -0.160 A  
HETATM   14  C   UNK A   0      -9.745   5.421  67.526  1.00  0.00    -0.137 A  
HETATM   15  N   UNK A   0     -10.910   5.274  68.299  1.00  0.00     0.096 NA 
HETATM   16  N   UNK A   0      -8.851   4.428  67.633  1.00  0.00    -0.105 NA 
ENDROOT
BRANCH   9  17
HETATM   17  C   UNK A   0     -10.986   9.873  66.014  1.00  0.00     0.543 C  
HETATM   18  C   UNK A   0     -10.099  10.309  68.364  1.00  0.00    -0.178 A  
HETATM   19  C   UNK A   0     -11.102   9.654  69.100  1.00  0.00    -0.123 A  
HETATM   20  C   UNK A   0      -8.787  10.305  68.861  1.00  0.00    -0.157 A  
HETATM   21  C   UNK A   0     -10.391  10.927  66.993  1.00  0.00    -0.276 C  
HETATM   22  C   UNK A   0      -8.463   9.562  69.997  1.00  0.00    -0.210 A  
HETATM   23  C   UNK A   0     -10.780   8.911  70.240  1.00  0.00    -0.248 A  
HETATM   24  C   UNK A   0     -11.293  12.166  67.154  1.00  0.00    -0.393 C  
HETATM   25  C   UNK A   0      -9.447   8.818  70.651  1.00  0.00    -0.237 A  
BRANCH  24  26
HETATM   26  C   UNK A   0     -11.548  12.882  65.891  1.00  0.00    -0.423 C  
HETATM   27  C   UNK A   0     -11.822  13.485  64.889  1.00  0.00    -0.402 C  
ENDBRANCH  24  26
BRANCH  25  28
HETATM   28  C   UNK A   0      -9.094   7.899  71.762  1.00  0.00    -0.147 C  
HETATM   29  O   UNK A   0      -8.755   8.331  72.857  1.00  0.00    -0.202 OA 
ATOM     30  N   GLU A   1      -9.228   6.540  71.488  1.00  0.00    -0.144 N  
ATOM     31  H   GLU A   1      -9.433   6.224  70.540  1.00  0.00     0.000 HD 
BRANCH  30  32
ATOM     32  CA  GLU A   1      -9.069   5.561  72.584  1.00  0.00    -0.138 C  
ATOM     33  O   GLU A   1      -6.749   5.843  71.966  1.00  0.00    -0.060 OA 
ATOM     34  C   GLU A   1      -7.580   5.469  72.972  1.00  0.00    -0.097 C  
ATOM     35  OXT GLU A   1      -7.167   4.968  74.008  1.00  0.00    -0.080 OA 
BRANCH  32  36
ATOM     36  CB  GLU A   1      -9.582   4.179  72.143  1.00  0.00    -0.206 C  
BRANCH  36  37
ATOM     37  CG  GLU A   1      -8.798   3.016  72.763  1.00  0.00    -0.096 C  
ATOM     38  CD  GLU A   1      -7.703   2.502  71.860  1.00  0.00    -0.048 C  
ATOM     39  OE2 GLU A   1      -7.445   2.934  70.750  1.00  0.00    -0.036 OA 
ATOM     40  OE1 GLU A   1      -7.007   1.491  72.427  1.00  0.00    -0.018 OA 
ENDBRANCH  36  37
ENDBRANCH  32  36
ENDBRANCH  30  32
ENDBRANCH  25  28
ENDBRANCH   9  17
TORSDOF 6
ENDMDL
MODEL      192
REMARK 921   NORMALIZED FREE ENERGY PREDICTED BY IDOCK:   -2.14 KCAL/MOL
REMARK 922        TOTAL FREE ENERGY PREDICTED BY IDOCK:   -4.30 KCAL/MOL
REMARK 923 INTER-LIGAND FREE ENERGY PREDICTED BY IDOCK:   -4.99 KCAL/MOL
REMARK 924 INTRA-LIGAND FREE ENERGY PREDICTED BY IDOCK:    0.69 KCAL/MOL
REMARK 927      BINDING AFFINITY PREDICTED BY RF-SCORE:    0.00 PKD
ROOT
HETATM    1  N   UNK A   0      -8.795   8.547  63.533  1.00  0.00    -0.368 NA 
HETATM    2  C   UNK A   0      -9.445   9.586  64.155  1.00  0.00     0.154 A  
HETATM    3  H2  UNK A   0      -8.383   8.662  62.607  1.00  0.00     0.000 HD 
HETATM    4  H1  UNK A   0      -8.739   7.657  64.028  1.00  0.00     0.000 HD 
HETATM    5  N   UNK A   0      -9.518  10.746  63.510  1.00  0.00    -0.269 NA 
HETATM    6  C   UNK A   0     -10.072  11.776  64.147  1.00  0.00    -0.310 A  
HETATM    7  N   UNK A   0     -10.070  12.964  63.533  1.00  0.00    -0.103 NA 
HETATM    8  C   UNK A   0     -10.537  14.037  64.215  1.00  0.00     0.029 A  
HETATM    9  C   UNK A   0     -11.032  13.951  65.507  1.00  0.00    -0.302 A  
HETATM   10  H2  UNK A   0     -12.022  10.407  67.253  1.00  0.00     0.000 HD 
HETATM   11  N   UNK A   0     -11.095  12.752  66.126  1.00  0.00    -0.282 NA 
HETATM   12  H1  UNK A   0     -10.963   9.206  67.665  1.00  0.00     0.000 HD 
HETATM   13  C   UNK A   0     -10.601  11.676  65.437  1.00  0.00    -0.280 A  
HETATM   14  C   UNK A   0     -10.498  10.406  65.989  1.00  0.00    -0.140 A  
HETATM   15  N   UNK A   0     -11.038  10.139  67.260  1.00  0.00    -0.191 NA 
HETATM   16  N   UNK A   0      -9.930   9.361  65.372  1.00  0.00    -0.123 NA 
ENDROOT
BRANCH   9  17
HETATM   17  C   UNK A   0     -11.390  15.175  66.315  1.00  0.00    -0.219 C  
HETATM   18  C   UNK A   0     -10.352  14.142  68.401  1.00  0.00    -0.249 A  
HETATM   19  C   UNK A   0     -11.503  13.545  68.944  1.00  0.00    -0.348 A  
HETATM   20  C   UNK A   0      -9.114  13.512  68.589  1.00  0.00    -0.008 A  
HETATM   21  C   UNK A   0     -10.442  15.398  67.528  1.00  0.00    -0.275 C  
HETATM   22  C   UNK A   0      -9.043  12.256  69.196  1.00  0.00     0.611 A  
HETATM   23  C   UNK A   0     -11.435  12.289  69.554  1.00  0.00    -0.318 A  
HETATM   24  C   UNK A   0     -10.849  16.610  68.387  1.00  0.00    -0.361 C  
HETATM   25  C   UNK A   0     -10.210  11.619  69.623  1.00  0.00     0.574 A  
BRANCH  24  26
HETATM   26  C   UNK A   0     -10.867  17.884  67.646  1.00  0.00    -0.243 C  
HETATM   27  C   UNK A   0     -10.955  18.915  67.034  1.00  0.00    -0.249 C  
ENDBRANCH  24  26
BRANCH  25  28
HETATM   28  C   UNK A   0     -10.175  10.222  70.124  1.00  0.00    -0.093 C  
HETATM   29  O   UNK A   0     -11.114   9.752  70.753  1.00  0.00    -0.293 OA 
ATOM     30  N   GLU A   1      -9.042   9.487  69.783  1.00  0.00    -0.188 N  
ATOM     31  H   GLU A   1      -8.250   9.942  69.329  1.00  0.00     0.000 HD 
BRANCH  30  32
ATOM     32  CA  GLU A   1      -8.999   8.041  70.085  1.00  0.00    -0.150 C  
ATOM     33  O   GLU A   1      -7.208   8.798  71.521  1.00  0.00    -0.097 OA 
ATOM     34  C   GLU A   1      -8.113   7.806  71.324  1.00  0.00    -0.095 C  
ATOM     35  OXT GLU A   1      -8.103   6.774  71.979  1.00  0.00    -0.101 OA 
BRANCH  32  36
ATOM     36  CB  GLU A   1      -8.436   7.261  68.884  1.00  0.00    -0.126 C  
BRANCH  36  37
ATOM     37  CG  GLU A   1      -8.427   5.742  69.097  1.00  0.00    -0.107 C  
ATOM     38  CD  GLU A   1      -9.454   5.027  68.253  1.00  0.00    -0.133 C  
ATOM     39  OE2 GLU A   1     -10.229   5.565  67.481  1.00  0.00    -0.168 OA 
ATOM     40  OE1 GLU A   1      -9.421   3.688  68.435  1.00  0.00    -0.172 OA 
ENDBRANCH  36  37
ENDBRANCH  32  36
ENDBRANCH  30  32
ENDBRANCH  25  28
ENDBRANCH   9  17
TORSDOF 6
ENDMDL
MODEL      193
REMARK 921   NORMALIZED FREE ENERGY PREDICTED BY IDOCK:   -2.07 KCAL/MOL
REMARK 922        TOTAL FREE ENERGY PREDICTED BY IDOCK:   -4.20 KCAL/MOL
REMARK 923 INTER-LIGAND FREE ENERGY PREDICTED BY IDOCK:   -5.28 KCAL/MOL
REMARK 924 INTRA-LIGAND FREE ENERGY PREDICTED BY IDOCK:    1.08 KCAL/MOL
REMARK 927      BINDING AFFINITY PREDICTED BY RF-SCORE:    0.00 PKD
ROOT
HETATM    1  N   UNK A   0     -12.820  11.838  63.882  1.00  0.00    -0.435 NA 
HETATM    2  C   UNK A   0     -11.883  11.788  64.886  1.00  0.00    -0.064 A  
HETATM    3  H2  UNK A   0     -12.936  12.675  63.312  1.00  0.00     0.000 HD 
HETATM    4  H1  UNK A   0     -13.394  11.010  63.726  1.00  0.00     0.000 HD 
HETATM    5  N   UNK A   0     -11.134  12.867  65.088  1.00  0.00    -0.287 NA 
HETATM    6  C   UNK A   0     -10.169  12.790  66.002  1.00  0.00    -0.278 A  
HETATM    7  N   UNK A   0      -9.360  13.845  66.149  1.00  0.00    -0.164 NA 
HETATM    8  C   UNK A   0      -8.313  13.736  67.001  1.00  0.00    -0.087 A  
HETATM    9  C   UNK A   0      -8.059  12.590  67.739  1.00  0.00    -0.164 A  
HETATM   10  H2  UNK A   0     -10.810   9.625  68.216  1.00  0.00     0.000 HD 
HETATM   11  N   UNK A   0      -8.895  11.532  67.650  1.00  0.00    -0.149 NA 
HETATM   12  H1  UNK A   0     -11.375   8.632  67.019  1.00  0.00     0.000 HD 
HETATM   13  C   UNK A   0      -9.937  11.644  66.769  1.00  0.00    -0.204 A  
HETATM   14  C   UNK A   0     -10.809  10.598  66.491  1.00  0.00    -0.099 A  
HETATM   15  N   UNK A   0     -10.735   9.400  67.223  1.00  0.00    -0.243 NA 
HETATM   16  N   UNK A   0     -11.775  10.650  65.564  1.00  0.00     1.085 NA 
ENDROOT
BRANCH   9  17
HETATM   17  C   UNK A   0      -6.800  12.420  68.554  1.00  0.00    -0.082 C  
HETATM   18  C   UNK A   0      -6.654  14.940  68.912  1.00  0.00    -0.090 A  
HETATM   19  C   UNK A   0      -5.816  15.265  67.831  1.00  0.00    -0.161 A  
HETATM   20  C   UNK A   0      -7.631  15.864  69.309  1.00  0.00    -0.221 A  
HETATM   21  C   UNK A   0      -6.589  13.566  69.586  1.00  0.00    -0.025 C  
HETATM   22  C   UNK A   0      -7.847  17.028  68.568  1.00  0.00    -0.251 A  
HETATM   23  C   UNK A   0      -6.029  16.430  67.089  1.00  0.00    -0.166 A  
HETATM   24  C   UNK A   0      -5.270  13.425  70.370  1.00  0.00    -0.111 C  
HETATM   25  C   UNK A   0      -7.086  17.281  67.424  1.00  0.00    -0.184 A  
BRANCH  24  26
HETATM   26  C   UNK A   0      -5.164  12.167  71.131  1.00  0.00    -0.123 C  
HETATM   27  C   UNK A   0      -5.141  11.120  71.721  1.00  0.00     0.044 C  
ENDBRANCH  24  26
BRANCH  25  28
HETATM   28  C   UNK A   0      -7.405  18.427  66.537  1.00  0.00    -0.234 C  
HETATM   29  O   UNK A   0      -8.520  18.932  66.532  1.00  0.00    -0.286 OA 
ATOM     30  N   GLU A   1      -6.347  18.909  65.769  1.00  0.00    -0.214 N  
ATOM     31  H   GLU A   1      -5.459  18.407  65.743  1.00  0.00     0.000 HD 
BRANCH  30  32
ATOM     32  CA  GLU A   1      -6.525  20.153  64.992  1.00  0.00    -0.289 C  
ATOM     33  O   GLU A   1      -5.229  18.874  63.401  1.00  0.00    -0.244 OA 
ATOM     34  C   GLU A   1      -6.104  19.904  63.530  1.00  0.00    -0.028 C  
ATOM     35  OXT GLU A   1      -6.390  20.638  62.595  1.00  0.00    -0.125 OA 
BRANCH  32  36
ATOM     36  CB  GLU A   1      -5.674  21.285  65.595  1.00  0.00    -0.223 C  
BRANCH  36  37
ATOM     37  CG  GLU A   1      -5.176  20.979  67.013  1.00  0.00    -0.256 C  
ATOM     38  CD  GLU A   1      -6.269  21.073  68.049  1.00  0.00    -0.335 C  
ATOM     39  OE2 GLU A   1      -7.431  21.365  67.824  1.00  0.00    -0.231 OA 
ATOM     40  OE1 GLU A   1      -5.821  20.780  69.292  1.00  0.00    -0.359 OA 
ENDBRANCH  36  37
ENDBRANCH  32  36
ENDBRANCH  30  32
ENDBRANCH  25  28
ENDBRANCH   9  17
TORSDOF 6
ENDMDL
MODEL      194
REMARK 921   NORMALIZED FREE ENERGY PREDICTED BY IDOCK:   -1.96 KCAL/MOL
REMARK 922        TOTAL FREE ENERGY PREDICTED BY IDOCK:   -4.05 KCAL/MOL
REMARK 923 INTER-LIGAND FREE ENERGY PREDICTED BY IDOCK:   -3.75 KCAL/MOL
REMARK 924 INTRA-LIGAND FREE ENERGY PREDICTED BY IDOCK:   -0.31 KCAL/MOL
REMARK 927      BINDING AFFINITY PREDICTED BY RF-SCORE:    0.00 PKD
ROOT
HETATM    1  N   UNK A   0     -14.242   9.267  73.367  1.00  0.00    -0.752 NA 
HETATM    2  C   UNK A   0     -13.265   8.559  72.708  1.00  0.00    -0.037 A  
HETATM    3  H2  UNK A   0     -14.097  10.240  73.633  1.00  0.00     0.000 HD 
HETATM    4  H1  UNK A   0     -15.115   8.786  73.580  1.00  0.00     0.000 HD 
HETATM    5  N   UNK A   0     -12.127   9.186  72.430  1.00  0.00    -0.243 NA 
HETATM    6  C   UNK A   0     -11.215   8.528  71.717  1.00  0.00    -0.309 A  
HETATM    7  N   UNK A   0     -10.104   9.185  71.363  1.00  0.00    -0.325 NA 
HETATM    8  C   UNK A   0      -9.220   8.558  70.552  1.00  0.00    -0.156 A  
HETATM    9  C   UNK A   0      -9.408   7.263  70.092  1.00  0.00    -0.155 A  
HETATM   10  H2  UNK A   0     -12.150   4.727  71.714  1.00  0.00     0.000 HD 
HETATM   11  N   UNK A   0     -10.494   6.560  70.481  1.00  0.00    -0.201 NA 
HETATM   12  H1  UNK A   0     -13.792   4.905  71.638  1.00  0.00     0.000 HD 
HETATM   13  C   UNK A   0     -11.393   7.211  71.284  1.00  0.00    -0.268 A  
HETATM   14  C   UNK A   0     -12.605   6.653  71.669  1.00  0.00    -0.264 A  
HETATM   15  N   UNK A   0     -12.902   5.315  71.355  1.00  0.00     3.091 NA 
HETATM   16  N   UNK A   0     -13.543   7.303  72.372  1.00  0.00     0.235 NA 
ENDROOT
BRANCH   9  17
HETATM   17  C   UNK A   0      -8.504   6.639  69.056  1.00  0.00    -0.130 C  
HETATM   18  C   UNK A   0      -8.274   8.878  67.860  1.00  0.00    -0.110 A  
HETATM   19  C   UNK A   0      -9.314   8.732  66.925  1.00  0.00    -0.213 A  
HETATM   20  C   UNK A   0      -7.993  10.157  68.361  1.00  0.00    -0.102 A  
HETATM   21  C   UNK A   0      -7.524   7.662  68.413  1.00  0.00    -0.104 C  
HETATM   22  C   UNK A   0      -8.808  11.241  68.031  1.00  0.00    -0.148 A  
HETATM   23  C   UNK A   0     -10.130   9.816  66.591  1.00  0.00    -0.303 A  
HETATM   24  C   UNK A   0      -6.648   7.035  67.311  1.00  0.00    -0.051 C  
HETATM   25  C   UNK A   0      -9.911  11.058  67.194  1.00  0.00    -0.218 A  
BRANCH  24  26
HETATM   26  C   UNK A   0      -5.815   5.914  67.781  1.00  0.00    -0.013 C  
HETATM   27  C   UNK A   0      -5.181   4.993  68.222  1.00  0.00    -0.007 C  
ENDBRANCH  24  26
BRANCH  25  28
HETATM   28  C   UNK A   0     -10.879  12.159  66.959  1.00  0.00    -0.247 C  
HETATM   29  O   UNK A   0     -11.862  11.996  66.248  1.00  0.00    -0.563 OA 
ATOM     30  N   GLU A   1     -10.618  13.348  67.637  1.00  0.00    -0.241 N  
ATOM     31  H   GLU A   1      -9.745  13.466  68.152  1.00  0.00     0.000 HD 
BRANCH  30  32
ATOM     32  CA  GLU A   1     -11.619  14.435  67.604  1.00  0.00    -0.370 C  
ATOM     33  O   GLU A   1      -9.733  15.601  66.640  1.00  0.00    -0.230 OA 
ATOM     34  C   GLU A   1     -11.087  15.587  66.729  1.00  0.00    -0.206 C  
ATOM     35  OXT GLU A   1     -11.780  16.491  66.284  1.00  0.00     0.884 OA 
BRANCH  32  36
ATOM     36  CB  GLU A   1     -11.900  14.946  69.028  1.00  0.00    -0.333 C  
BRANCH  36  37
ATOM     37  CG  GLU A   1     -12.072  13.819  70.053  1.00  0.00    -0.416 C  
ATOM     38  CD  GLU A   1     -13.019  14.185  71.170  1.00  0.00    -0.349 C  
ATOM     39  OE2 GLU A   1     -13.596  15.252  71.283  1.00  0.00    -0.463 OA 
ATOM     40  OE1 GLU A   1     -13.178  13.175  72.056  1.00  0.00    -0.429 OA 
ENDBRANCH  36  37
ENDBRANCH  32  36
ENDBRANCH  30  32
ENDBRANCH  25  28
ENDBRANCH   9  17
TORSDOF 6
ENDMDL
MODEL      195
REMARK 921   NORMALIZED FREE ENERGY PREDICTED BY IDOCK:   -1.76 KCAL/MOL
REMARK 922        TOTAL FREE ENERGY PREDICTED BY IDOCK:   -3.79 KCAL/MOL
REMARK 923 INTER-LIGAND FREE ENERGY PREDICTED BY IDOCK:   -1.81 KCAL/MOL
REMARK 924 INTRA-LIGAND FREE ENERGY PREDICTED BY IDOCK:   -1.98 KCAL/MOL
REMARK 927      BINDING AFFINITY PREDICTED BY RF-SCORE:    0.00 PKD
ROOT
HETATM    1  N   UNK A   0      -6.053   9.243  63.652  1.00  0.00    -0.088 NA 
HETATM    2  C   UNK A   0      -6.269   8.791  64.931  1.00  0.00    -0.065 A  
HETATM    3  H2  UNK A   0      -6.540   8.829  62.858  1.00  0.00     0.000 HD 
HETATM    4  H1  UNK A   0      -5.389  10.007  63.523  1.00  0.00     0.000 HD 
HETATM    5  N   UNK A   0      -7.135   7.797  65.099  1.00  0.00    -0.059 NA 
HETATM    6  C   UNK A   0      -7.409   7.416  66.345  1.00  0.00    -0.083 A  
HETATM    7  N   UNK A   0      -8.342   6.474  66.520  1.00  0.00    -0.113 NA 
HETATM    8  C   UNK A   0      -8.700   6.155  67.787  1.00  0.00    -0.112 A  
HETATM    9  C   UNK A   0      -8.129   6.749  68.902  1.00  0.00    -0.120 A  
HETATM   10  H2  UNK A   0      -4.683   8.912  68.725  1.00  0.00     0.000 HD 
HETATM   11  N   UNK A   0      -7.146   7.662  68.751  1.00  0.00    -0.078 NA 
HETATM   12  H1  UNK A   0      -4.495  10.364  67.956  1.00  0.00     0.000 HD 
HETATM   13  C   UNK A   0      -6.805   7.993  67.467  1.00  0.00    -0.070 A  
HETATM   14  C   UNK A   0      -5.893   8.995  67.160  1.00  0.00    -0.046 A  
HETATM   15  N   UNK A   0      -5.165   9.629  68.182  1.00  0.00    -0.040 NA 
HETATM   16  N   UNK A   0      -5.615   9.403  65.914  1.00  0.00    -0.044 NA 
ENDROOT
BRANCH   9  17
HETATM   17  C   UNK A   0      -8.654   6.510  70.298  1.00  0.00    -0.136 C  
HETATM   18  C   UNK A   0     -10.498   8.232  69.933  1.00  0.00    -0.223 A  
HETATM   19  C   UNK A   0      -9.846   9.362  70.458  1.00  0.00    -0.331 A  
HETATM   20  C   UNK A   0     -11.390   8.404  68.865  1.00  0.00     0.615 A  
HETATM   21  C   UNK A   0     -10.173   6.821  70.434  1.00  0.00    -0.212 C  
HETATM   22  C   UNK A   0     -11.533   9.651  68.256  1.00  0.00     0.317 A  
HETATM   23  C   UNK A   0      -9.990  10.613  69.851  1.00  0.00     0.120 A  
HETATM   24  C   UNK A   0     -10.691   6.639  71.873  1.00  0.00    -0.251 C  
HETATM   25  C   UNK A   0     -10.788  10.742  68.711  1.00  0.00    -0.262 A  
BRANCH  24  26
HETATM   26  C   UNK A   0     -10.506   5.275  72.403  1.00  0.00    -0.268 C  
HETATM   27  C   UNK A   0     -10.297   4.190  72.873  1.00  0.00    -0.241 C  
ENDBRANCH  24  26
BRANCH  25  28
HETATM   28  C   UNK A   0     -10.806  12.034  67.980  1.00  0.00    -0.216 C  
HETATM   29  O   UNK A   0     -11.222  13.055  68.511  1.00  0.00    -0.241 OA 
ATOM     30  N   GLU A   1     -10.274  12.007  66.692  1.00  0.00    -0.202 N  
ATOM     31  H   GLU A   1     -10.016  11.120  66.261  1.00  0.00     0.000 HD 
BRANCH  30  32
ATOM     32  CA  GLU A   1     -10.089  13.277  65.959  1.00  0.00    -0.299 C  
ATOM     33  O   GLU A   1     -11.027  11.928  64.185  1.00  0.00    -0.316 OA 
ATOM     34  C   GLU A   1     -10.840  13.202  64.615  1.00  0.00    -0.366 C  
ATOM     35  OXT GLU A   1     -11.108  14.171  63.920  1.00  0.00     0.070 OA 
BRANCH  32  36
ATOM     36  CB  GLU A   1      -8.593  13.535  65.709  1.00  0.00     1.459 C  
BRANCH  36  37
ATOM     37  CG  GLU A   1      -7.990  14.578  66.658  1.00  0.00     0.433 C  
ATOM     38  CD  GLU A   1      -7.431  13.967  67.919  1.00  0.00    -0.149 C  
ATOM     39  OE2 GLU A   1      -7.447  12.780  68.194  1.00  0.00    -0.102 OA 
ATOM     40  OE1 GLU A   1      -6.885  14.895  68.737  1.00  0.00    -0.094 OA 
ENDBRANCH  36  37
ENDBRANCH  32  36
ENDBRANCH  30  32
ENDBRANCH  25  28
ENDBRANCH   9  17
TORSDOF 6
ENDMDL
MODEL      196
REMARK 921   NORMALIZED FREE ENERGY PREDICTED BY IDOCK:   -1.63 KCAL/MOL
REMARK 922        TOTAL FREE ENERGY PREDICTED BY IDOCK:   -3.61 KCAL/MOL
REMARK 923 INTER-LIGAND FREE ENERGY PREDICTED BY IDOCK:   -3.73 KCAL/MOL
REMARK 924 INTRA-LIGAND FREE ENERGY PREDICTED BY IDOCK:    0.12 KCAL/MOL
REMARK 927      BINDING AFFINITY PREDICTED BY RF-SCORE:    0.00 PKD
ROOT
HETATM    1  N   UNK A   0      -9.310   8.833  73.258  1.00  0.00     0.063 NA 
HETATM    2  C   UNK A   0      -9.419   8.313  71.991  1.00  0.00    -0.236 A  
HETATM    3  H2  UNK A   0      -8.401   8.940  73.707  1.00  0.00     0.000 HD 
HETATM    4  H1  UNK A   0     -10.169   9.109  73.734  1.00  0.00     0.000 HD 
HETATM    5  N   UNK A   0      -8.300   7.953  71.371  1.00  0.00    -0.103 NA 
HETATM    6  C   UNK A   0      -8.397   7.529  70.112  1.00  0.00    -0.134 A  
HETATM    7  N   UNK A   0      -7.264   7.247  69.458  1.00  0.00    -0.078 NA 
HETATM    8  C   UNK A   0      -7.347   6.916  68.148  1.00  0.00    -0.097 A  
HETATM    9  C   UNK A   0      -8.552   6.838  67.466  1.00  0.00    -0.120 A  
HETATM   10  H2  UNK A   0     -12.153   6.715  69.365  1.00  0.00     0.000 HD 
HETATM   11  N   UNK A   0      -9.713   7.063  68.120  1.00  0.00    -0.132 NA 
HETATM   12  H1  UNK A   0     -12.822   7.946  70.243  1.00  0.00     0.000 HD 
HETATM   13  C   UNK A   0      -9.617   7.419  69.439  1.00  0.00    -0.155 A  
HETATM   14  C   UNK A   0     -10.716   7.788  70.205  1.00  0.00    -0.240 A  
HETATM   15  N   UNK A   0     -12.016   7.675  69.680  1.00  0.00     0.659 NA 
HETATM   16  N   UNK A   0     -10.638   8.232  71.466  1.00  0.00    -0.223 NA 
ENDROOT
BRANCH   9  17
HETATM   17  C   UNK A   0      -8.619   6.634  65.972  1.00  0.00    -0.152 C  
HETATM   18  C   UNK A   0      -6.990   8.560  65.604  1.00  0.00    -0.071 A  
HETATM   19  C   UNK A   0      -7.920   9.599  65.424  1.00  0.00    -0.120 A  
HETATM   20  C   UNK A   0      -5.766   8.852  66.222  1.00  0.00    -0.049 A  
HETATM   21  C   UNK A   0      -7.333   7.113  65.238  1.00  0.00    -0.080 C  
HETATM   22  C   UNK A   0      -5.526  10.119  66.756  1.00  0.00    -0.045 A  
HETATM   23  C   UNK A   0      -7.682  10.870  65.956  1.00  0.00    -0.107 A  
HETATM   24  C   UNK A   0      -7.429   6.963  63.708  1.00  0.00    -0.091 C  
HETATM   25  C   UNK A   0      -6.508  11.109  66.676  1.00  0.00    -0.134 A  
BRANCH  24  26
HETATM   26  C   UNK A   0      -7.662   5.578  63.260  1.00  0.00    -0.084 C  
HETATM   27  C   UNK A   0      -7.868   4.432  62.964  1.00  0.00    -0.067 C  
ENDBRANCH  24  26
BRANCH  25  28
HETATM   28  C   UNK A   0      -6.337  12.408  67.374  1.00  0.00    -0.157 C  
HETATM   29  O   UNK A   0      -5.231  12.794  67.730  1.00  0.00    -0.095 OA 
ATOM     30  N   GLU A   1      -7.497  13.163  67.539  1.00  0.00    -0.176 N  
ATOM     31  H   GLU A   1      -8.407  12.767  67.301  1.00  0.00     0.000 HD 
BRANCH  30  32
ATOM     32  CA  GLU A   1      -7.395  14.541  68.061  1.00  0.00    -0.138 C  
ATOM     33  O   GLU A   1      -6.881  13.314  70.080  1.00  0.00     0.170 OA 
ATOM     34  C   GLU A   1      -6.736  14.509  69.454  1.00  0.00    -0.142 C  
ATOM     35  OXT GLU A   1      -6.267  15.487  70.018  1.00  0.00    -0.157 OA 
BRANCH  32  36
ATOM     36  CB  GLU A   1      -8.792  15.179  68.158  1.00  0.00    -0.169 C  
BRANCH  36  37
ATOM     37  CG  GLU A   1      -9.930  14.195  67.861  1.00  0.00    -0.231 C  
ATOM     38  CD  GLU A   1     -11.163  14.459  68.691  1.00  0.00    -0.259 C  
ATOM     39  OE2 GLU A   1     -11.276  15.343  69.523  1.00  0.00    -0.246 OA 
ATOM     40  OE1 GLU A   1     -12.165  13.597  68.405  1.00  0.00    -0.332 OA 
ENDBRANCH  36  37
ENDBRANCH  32  36
ENDBRANCH  30  32
ENDBRANCH  25  28
ENDBRANCH   9  17
TORSDOF 6
ENDMDL
MODEL      197
REMARK 921   NORMALIZED FREE ENERGY PREDICTED BY IDOCK:   -1.50 KCAL/MOL
REMARK 922        TOTAL FREE ENERGY PREDICTED BY IDOCK:   -3.44 KCAL/MOL
REMARK 923 INTER-LIGAND FREE ENERGY PREDICTED BY IDOCK:   -2.39 KCAL/MOL
REMARK 924 INTRA-LIGAND FREE ENERGY PREDICTED BY IDOCK:   -1.05 KCAL/MOL
REMARK 927      BINDING AFFINITY PREDICTED BY RF-SCORE:    0.00 PKD
ROOT
HETATM    1  N   UNK A   0     -11.856   6.237  69.440  1.00  0.00    -0.295 NA 
HETATM    2  C   UNK A   0     -10.733   7.029  69.454  1.00  0.00    -0.238 A  
HETATM    3  H2  UNK A   0     -12.783   6.635  69.586  1.00  0.00     0.000 HD 
HETATM    4  H1  UNK A   0     -11.730   5.238  69.278  1.00  0.00     0.000 HD 
HETATM    5  N   UNK A   0     -10.897   8.332  69.665  1.00  0.00    -0.197 NA 
HETATM    6  C   UNK A   0      -9.820   9.112  69.594  1.00  0.00    -0.180 A  
HETATM    7  N   UNK A   0      -9.995  10.432  69.722  1.00  0.00    -0.181 NA 
HETATM    8  C   UNK A   0      -8.922  11.239  69.548  1.00  0.00     0.647 A  
HETATM    9  C   UNK A   0      -7.653  10.755  69.264  1.00  0.00    -0.129 A  
HETATM   10  H2  UNK A   0      -6.634   6.841  69.738  1.00  0.00     0.000 HD 
HETATM   11  N   UNK A   0      -7.442   9.424  69.186  1.00  0.00    -0.071 NA 
HETATM   12  H1  UNK A   0      -7.226   5.577  68.852  1.00  0.00     0.000 HD 
HETATM   13  C   UNK A   0      -8.537   8.616  69.342  1.00  0.00    -0.127 A  
HETATM   14  C   UNK A   0      -8.491   7.237  69.177  1.00  0.00    -0.133 A  
HETATM   15  N   UNK A   0      -7.260   6.589  68.973  1.00  0.00    -0.088 NA 
HETATM   16  N   UNK A   0      -9.565   6.437  69.228  1.00  0.00    -0.138 NA 
ENDROOT
BRANCH   9  17
HETATM   17  C   UNK A   0      -6.506  11.669  68.906  1.00  0.00    -0.071 C  
HETATM   18  C   UNK A   0      -6.631  10.924  66.471  1.00  0.00    -0.127 A  
HETATM   19  C   UNK A   0      -5.686   9.884  66.513  1.00  0.00    -0.053 A  
HETATM   20  C   UNK A   0      -7.729  10.802  65.609  1.00  0.00    -0.057 A  
HETATM   21  C   UNK A   0      -6.537  12.125  67.419  1.00  0.00    -0.147 C  
HETATM   22  C   UNK A   0      -7.945   9.620  64.899  1.00  0.00    -0.124 A  
HETATM   23  C   UNK A   0      -5.898   8.700  65.802  1.00  0.00    -0.047 A  
HETATM   24  C   UNK A   0      -5.329  13.003  67.040  1.00  0.00     0.522 C  
HETATM   25  C   UNK A   0      -7.061   8.547  65.042  1.00  0.00    -0.079 A  
BRANCH  24  26
HETATM   26  C   UNK A   0      -5.217  14.236  67.841  1.00  0.00    -0.056 C  
HETATM   27  C   UNK A   0      -5.163  15.275  68.441  1.00  0.00    -0.107 C  
ENDBRANCH  24  26
BRANCH  25  28
HETATM   28  C   UNK A   0      -7.356   7.231  64.423  1.00  0.00    -0.085 C  
HETATM   29  O   UNK A   0      -7.466   7.113  63.209  1.00  0.00    -0.078 OA 
ATOM     30  N   GLU A   1      -7.440   6.155  65.303  1.00  0.00    -0.080 N  
ATOM     31  H   GLU A   1      -7.424   6.311  66.311  1.00  0.00     0.000 HD 
BRANCH  30  32
ATOM     32  CA  GLU A   1      -7.554   4.784  64.762  1.00  0.00    -0.077 C  
ATOM     33  O   GLU A   1      -9.591   4.867  66.062  1.00  0.00    -0.155 OA 
ATOM     34  C   GLU A   1      -8.978   4.253  65.018  1.00  0.00    -0.141 C  
ATOM     35  OXT GLU A   1      -9.463   3.281  64.457  1.00  0.00    -0.137 OA 
BRANCH  32  36
ATOM     36  CB  GLU A   1      -6.523   3.859  65.432  1.00  0.00    -0.032 C  
BRANCH  36  37
ATOM     37  CG  GLU A   1      -5.971   4.418  66.749  1.00  0.00    -0.027 C  
ATOM     38  CD  GLU A   1      -6.485   3.677  67.959  1.00  0.00    -0.037 C  
ATOM     39  OE2 GLU A   1      -7.261   2.737  67.933  1.00  0.00    -0.049 OA 
ATOM     40  OE1 GLU A   1      -5.975   4.167  69.112  1.00  0.00    -0.021 OA 
ENDBRANCH  36  37
ENDBRANCH  32  36
ENDBRANCH  30  32
ENDBRANCH  25  28
ENDBRANCH   9  17
TORSDOF 6
ENDMDL
MODEL      198
REMARK 921   NORMALIZED FREE ENERGY PREDICTED BY IDOCK:   -0.37 KCAL/MOL
REMARK 922        TOTAL FREE ENERGY PREDICTED BY IDOCK:   -1.91 KCAL/MOL
REMARK 923 INTER-LIGAND FREE ENERGY PREDICTED BY IDOCK:   -2.32 KCAL/MOL
REMARK 924 INTRA-LIGAND FREE ENERGY PREDICTED BY IDOCK:    0.41 KCAL/MOL
REMARK 927      BINDING AFFINITY PREDICTED BY RF-SCORE:    0.00 PKD
ROOT
HETATM    1  N   UNK A   0     -13.721  13.200  65.272  1.00  0.00     0.378 NA 
HETATM    2  C   UNK A   0     -12.644  13.698  65.964  1.00  0.00    -0.386 A  
HETATM    3  H2  UNK A   0     -13.744  12.230  64.960  1.00  0.00     0.000 HD 
HETATM    4  H1  UNK A   0     -14.497  13.834  65.080  1.00  0.00     0.000 HD 
HETATM    5  N   UNK A   0     -11.633  12.872  66.214  1.00  0.00    -0.352 NA 
HETATM    6  C   UNK A   0     -10.627  13.329  66.958  1.00  0.00    -0.259 A  
HETATM    7  N   UNK A   0      -9.650  12.475  67.281  1.00  0.00    -0.200 NA 
HETATM    8  C   UNK A   0      -8.679  12.903  68.122  1.00  0.00    -0.190 A  
HETATM    9  C   UNK A   0      -8.645  14.188  68.642  1.00  0.00    -0.126 A  
HETATM   10  H2  UNK A   0     -10.894  17.231  67.138  1.00  0.00     0.000 HD 
HETATM   11  N   UNK A   0      -9.590  15.084  68.285  1.00  0.00    -0.206 NA 
HETATM   12  H1  UNK A   0     -12.544  17.335  67.203  1.00  0.00     0.000 HD 
HETATM   13  C   UNK A   0     -10.580  14.637  67.452  1.00  0.00    -0.265 A  
HETATM   14  C   UNK A   0     -11.675  15.412  67.092  1.00  0.00     0.040 A  
HETATM   15  N   UNK A   0     -11.740  16.765  67.468  1.00  0.00     0.590 NA 
HETATM   16  N   UNK A   0     -12.704  14.966  66.358  1.00  0.00     0.507 NA 
ENDROOT
BRANCH   9  17
HETATM   17  C   UNK A   0      -7.656  14.599  69.707  1.00  0.00     0.087 C  
HETATM   18  C   UNK A   0      -6.065  12.741  68.992  1.00  0.00    -0.089 A  
HETATM   19  C   UNK A   0      -6.486  11.739  69.883  1.00  0.00    -0.063 A  
HETATM   20  C   UNK A   0      -5.613  12.364  67.719  1.00  0.00    -0.099 A  
HETATM   21  C   UNK A   0      -6.189  14.226  69.346  1.00  0.00    -0.111 C  
HETATM   22  C   UNK A   0      -5.697  11.034  67.302  1.00  0.00    -0.052 A  
HETATM   23  C   UNK A   0      -6.569  10.406  69.469  1.00  0.00    -0.073 A  
HETATM   24  C   UNK A   0      -5.191  14.588  70.463  1.00  0.00    -0.114 C  
HETATM   25  C   UNK A   0      -6.231  10.066  68.156  1.00  0.00    -0.053 A  
BRANCH  24  26
HETATM   26  C   UNK A   0      -5.175  16.023  70.802  1.00  0.00    -0.161 C  
HETATM   27  C   UNK A   0      -5.215  17.202  71.028  1.00  0.00    -0.151 C  
ENDBRANCH  24  26
BRANCH  25  28
HETATM   28  C   UNK A   0      -6.475   8.682  67.679  1.00  0.00    -0.061 C  
HETATM   29  O   UNK A   0      -6.743   7.781  68.463  1.00  0.00    -0.055 OA 
ATOM     30  N   GLU A   1      -6.433   8.503  66.298  1.00  0.00    -0.060 N  
ATOM     31  H   GLU A   1      -6.126   9.262  65.689  1.00  0.00     0.000 HD 
BRANCH  30  32
ATOM     32  CA  GLU A   1      -6.837   7.203  65.724  1.00  0.00    -0.056 C  
ATOM     33  O   GLU A   1      -5.208   7.876  64.070  1.00  0.00    -0.039 OA 
ATOM     34  C   GLU A   1      -5.846   6.808  64.612  1.00  0.00    -0.031 C  
ATOM     35  OXT GLU A   1      -5.745   5.682  64.145  1.00  0.00    -0.019 OA 
BRANCH  32  36
ATOM     36  CB  GLU A   1      -8.261   7.293  65.148  1.00  0.00    -0.112 C  
BRANCH  36  37
ATOM     37  CG  GLU A   1      -9.344   6.834  66.132  1.00  0.00    -0.095 C  
ATOM     38  CD  GLU A   1      -9.718   5.384  65.955  1.00  0.00    -0.068 C  
ATOM     39  OE2 GLU A   1      -9.241   4.629  65.125  1.00  0.00    -0.151 OA 
ATOM     40  OE1 GLU A   1     -10.659   4.987  66.842  1.00  0.00    -0.227 OA 
ENDBRANCH  36  37
ENDBRANCH  32  36
ENDBRANCH  30  32
ENDBRANCH  25  28
ENDBRANCH   9  17
TORSDOF 6
ENDMDL
MODEL      199
REMARK 921   NORMALIZED FREE ENERGY PREDICTED BY IDOCK:   -0.36 KCAL/MOL
REMARK 922        TOTAL FREE ENERGY PREDICTED BY IDOCK:   -1.89 KCAL/MOL
REMARK 923 INTER-LIGAND FREE ENERGY PREDICTED BY IDOCK:   -1.70 KCAL/MOL
REMARK 924 INTRA-LIGAND FREE ENERGY PREDICTED BY IDOCK:   -0.19 KCAL/MOL
REMARK 927      BINDING AFFINITY PREDICTED BY RF-SCORE:    0.00 PKD
ROOT
HETATM    1  N   UNK A   0      -7.840  15.385  69.096  1.00  0.00    -0.194 NA 
HETATM    2  C   UNK A   0      -7.879  14.012  69.045  1.00  0.00     0.023 A  
HETATM    3  H2  UNK A   0      -6.960  15.890  69.009  1.00  0.00     0.000 HD 
HETATM    4  H1  UNK A   0      -8.723  15.880  69.224  1.00  0.00     0.000 HD 
HETATM    5  N   UNK A   0      -6.730  13.366  68.878  1.00  0.00    -0.105 NA 
HETATM    6  C   UNK A   0      -6.776  12.042  68.742  1.00  0.00    -0.087 A  
HETATM    7  N   UNK A   0      -5.631  11.398  68.490  1.00  0.00    -0.043 NA 
HETATM    8  C   UNK A   0      -5.685  10.067  68.248  1.00  0.00    -0.042 A  
HETATM    9  C   UNK A   0      -6.868   9.345  68.271  1.00  0.00    -0.063 A  
HETATM   10  H2  UNK A   0     -10.305  10.802  69.899  1.00  0.00     0.000 HD 
HETATM   11  N   UNK A   0      -8.029   9.963  68.579  1.00  0.00    -0.085 NA 
HETATM   12  H1  UNK A   0     -11.187  12.073  69.313  1.00  0.00     0.000 HD 
HETATM   13  C   UNK A   0      -7.968  11.313  68.801  1.00  0.00    -0.137 A  
HETATM   14  C   UNK A   0      -9.095  12.096  69.016  1.00  0.00     0.397 A  
HETATM   15  N   UNK A   0     -10.359  11.497  69.155  1.00  0.00    -0.120 NA 
HETATM   16  N   UNK A   0      -9.071  13.431  69.139  1.00  0.00     0.452 NA 
ENDROOT
BRANCH   9  17
HETATM   17  C   UNK A   0      -6.938   7.901  67.835  1.00  0.00    -0.077 C  
HETATM   18  C   UNK A   0      -8.149   8.572  65.695  1.00  0.00    -0.119 A  
HETATM   19  C   UNK A   0      -9.475   8.420  66.139  1.00  0.00    -0.263 A  
HETATM   20  C   UNK A   0      -7.863   9.577  64.760  1.00  0.00    -0.120 A  
HETATM   21  C   UNK A   0      -7.009   7.739  66.289  1.00  0.00    -0.063 C  
HETATM   22  C   UNK A   0      -8.850  10.485  64.372  1.00  0.00    -0.210 A  
HETATM   23  C   UNK A   0     -10.465   9.326  65.750  1.00  0.00     0.540 A  
HETATM   24  C   UNK A   0      -7.146   6.268  65.851  1.00  0.00    -0.066 C  
HETATM   25  C   UNK A   0     -10.135  10.396  64.913  1.00  0.00    -0.382 A  
BRANCH  24  26
HETATM   26  C   UNK A   0      -6.035   5.409  66.299  1.00  0.00    -0.022 C  
HETATM   27  C   UNK A   0      -5.164   4.702  66.729  1.00  0.00    -0.008 C  
ENDBRANCH  24  26
BRANCH  25  28
HETATM   28  C   UNK A   0     -11.151  11.442  64.637  1.00  0.00    -0.207 C  
HETATM   29  O   UNK A   0     -12.004  11.282  63.772  1.00  0.00    -0.021 OA 
ATOM     30  N   GLU A   1     -11.097  12.568  65.454  1.00  0.00    -0.293 N  
ATOM     31  H   GLU A   1     -10.321  12.695  66.105  1.00  0.00     0.000 HD 
BRANCH  30  32
ATOM     32  CA  GLU A   1     -12.173  13.577  65.370  1.00  0.00    -0.447 C  
ATOM     33  O   GLU A   1     -11.039  14.033  63.285  1.00  0.00     1.044 OA 
ATOM     34  C   GLU A   1     -12.221  14.151  63.940  1.00  0.00    -0.247 C  
ATOM     35  OXT GLU A   1     -13.160  14.786  63.483  1.00  0.00     0.059 OA 
BRANCH  32  36
ATOM     36  CB  GLU A   1     -11.923  14.710  66.381  1.00  0.00    -0.274 C  
BRANCH  36  37
ATOM     37  CG  GLU A   1     -11.578  16.049  65.718  1.00  0.00     0.558 C  
ATOM     38  CD  GLU A   1     -10.242  16.593  66.160  1.00  0.00    -0.348 C  
ATOM     39  OE2 GLU A   1      -9.495  16.060  66.961  1.00  0.00    -0.212 OA 
ATOM     40  OE1 GLU A   1      -9.941  17.763  65.552  1.00  0.00    -0.515 OA 
ENDBRANCH  36  37
ENDBRANCH  32  36
ENDBRANCH  30  32
ENDBRANCH  25  28
ENDBRANCH   9  17
TORSDOF 6
ENDMDL
MODEL      200
REMARK 921   NORMALIZED FREE ENERGY PREDICTED BY IDOCK:   -0.34 KCAL/MOL
REMARK 922        TOTAL FREE ENERGY PREDICTED BY IDOCK:   -1.87 KCAL/MOL
REMARK 923 INTER-LIGAND FREE ENERGY PREDICTED BY IDOCK:   -0.71 KCAL/MOL
REMARK 924 INTRA-LIGAND FREE ENERGY PREDICTED BY IDOCK:   -1.15 KCAL/MOL
REMARK 927      BINDING AFFINITY PREDICTED BY RF-SCORE:    0.00 PKD
ROOT
HETATM    1  N   UNK A   0     -13.644   9.149  69.716  1.00  0.00     1.810 NA 
HETATM    2  C   UNK A   0     -12.903  10.299  69.583  1.00  0.00     0.608 A  
HETATM    3  H2  UNK A   0     -13.704   8.470  68.958  1.00  0.00     0.000 HD 
HETATM    4  H1  UNK A   0     -14.132   8.997  70.599  1.00  0.00     0.000 HD 
HETATM    5  N   UNK A   0     -12.267  10.496  68.433  1.00  0.00    -0.065 NA 
HETATM    6  C   UNK A   0     -11.481  11.566  68.334  1.00  0.00    -0.298 A  
HETATM    7  N   UNK A   0     -10.775  11.722  67.209  1.00  0.00    -0.227 NA 
HETATM    8  C   UNK A   0      -9.896  12.750  67.142  1.00  0.00    -0.216 A  
HETATM    9  C   UNK A   0      -9.714  13.654  68.178  1.00  0.00    -0.229 A  
HETATM   10  H2  UNK A   0     -12.328  14.001  71.281  1.00  0.00     0.000 HD 
HETATM   11  N   UNK A   0     -10.457  13.550  69.301  1.00  0.00     0.040 NA 
HETATM   12  H1  UNK A   0     -12.608  12.854  72.439  1.00  0.00     0.000 HD 
HETATM   13  C   UNK A   0     -11.327  12.494  69.369  1.00  0.00    -0.210 A  
HETATM   14  C   UNK A   0     -12.071  12.198  70.504  1.00  0.00    -0.293 A  
HETATM   15  N   UNK A   0     -12.062  13.071  71.606  1.00  0.00     0.466 NA 
HETATM   16  N   UNK A   0     -12.855  11.118  70.629  1.00  0.00    -0.236 NA 
ENDROOT
BRANCH   9  17
HETATM   17  C   UNK A   0      -8.615  14.689  68.158  1.00  0.00    -0.166 C  
HETATM   18  C   UNK A   0      -6.847  12.864  68.360  1.00  0.00    -0.096 A  
HETATM   19  C   UNK A   0      -6.704  12.854  69.758  1.00  0.00     0.163 A  
HETATM   20  C   UNK A   0      -6.694  11.660  67.658  1.00  0.00    -0.087 A  
HETATM   21  C   UNK A   0      -7.269  14.132  67.611  1.00  0.00    -0.195 C  
HETATM   22  C   UNK A   0      -6.523  10.456  68.344  1.00  0.00    -0.055 A  
HETATM   23  C   UNK A   0      -6.532  11.650  70.448  1.00  0.00     0.286 A  
HETATM   24  C   UNK A   0      -6.134  15.172  67.653  1.00  0.00    -0.127 C  
HETATM   25  C   UNK A   0      -6.503  10.445  69.741  1.00  0.00    -0.089 A  
BRANCH  24  26
HETATM   26  C   UNK A   0      -6.416  16.392  66.874  1.00  0.00    -0.139 C  
HETATM   27  C   UNK A   0      -6.719  17.370  66.246  1.00  0.00    -0.295 C  
ENDBRANCH  24  26
BRANCH  25  28
HETATM   28  C   UNK A   0      -6.483   9.164  70.491  1.00  0.00    -0.056 C  
HETATM   29  O   UNK A   0      -6.531   9.147  71.715  1.00  0.00    -0.192 OA 
ATOM     30  N   GLU A   1      -6.463   8.009  69.714  1.00  0.00    -0.036 N  
ATOM     31  H   GLU A   1      -6.341   8.071  68.703  1.00  0.00     0.000 HD 
BRANCH  30  32
ATOM     32  CA  GLU A   1      -6.620   6.693  70.368  1.00  0.00    -0.048 C  
ATOM     33  O   GLU A   1      -5.166   6.057  68.544  1.00  0.00    -0.006 OA 
ATOM     34  C   GLU A   1      -5.584   5.710  69.787  1.00  0.00    -0.008 C  
ATOM     35  OXT GLU A   1      -5.278   4.646  70.305  1.00  0.00     0.000 OA 
BRANCH  32  36
ATOM     36  CB  GLU A   1      -8.042   6.150  70.140  1.00  0.00    -0.116 C  
BRANCH  36  37
ATOM     37  CG  GLU A   1      -9.060   7.244  69.795  1.00  0.00    -0.141 C  
ATOM     38  CD  GLU A   1      -9.413   7.273  68.329  1.00  0.00    -0.141 C  
ATOM     39  OE2 GLU A   1      -8.953   6.531  67.478  1.00  0.00    -0.112 OA 
ATOM     40  OE1 GLU A   1     -10.327   8.228  68.042  1.00  0.00    -0.209 OA 
ENDBRANCH  36  37
ENDBRANCH  32  36
ENDBRANCH  30  32
ENDBRANCH  25  28
ENDBRANCH   9  17
TORSDOF 6
ENDMDL
MODEL      201
REMARK 921   NORMALIZED FREE ENERGY PREDICTED BY IDOCK:   -0.05 KCAL/MOL
REMARK 922        TOTAL FREE ENERGY PREDICTED BY IDOCK:   -1.48 KCAL/MOL
REMARK 923 INTER-LIGAND FREE ENERGY PREDICTED BY IDOCK:   -3.15 KCAL/MOL
REMARK 924 INTRA-LIGAND FREE ENERGY PREDICTED BY IDOCK:    1.67 KCAL/MOL
REMARK 927      BINDING AFFINITY PREDICTED BY RF-SCORE:    0.00 PKD
ROOT
HETATM    1  N   UNK A   0      -8.920   7.964  72.528  1.00  0.00    -0.155 NA 
HETATM    2  C   UNK A   0      -8.830   8.382  71.222  1.00  0.00    -0.167 A  
HETATM    3  H2  UNK A   0      -8.923   8.634  73.296  1.00  0.00     0.000 HD 
HETATM    4  H1  UNK A   0      -8.985   6.961  72.703  1.00  0.00     0.000 HD 
HETATM    5  N   UNK A   0      -8.747   9.689  70.994  1.00  0.00    -0.122 NA 
HETATM    6  C   UNK A   0      -8.746  10.099  69.727  1.00  0.00    -0.126 A  
HETATM    7  N   UNK A   0      -8.747  11.416  69.496  1.00  0.00     0.552 NA 
HETATM    8  C   UNK A   0      -8.850  11.841  68.215  1.00  0.00    -0.172 A  
HETATM    9  C   UNK A   0      -8.935  10.972  67.138  1.00  0.00    -0.143 A  
HETATM   10  H2  UNK A   0      -8.025   7.013  67.428  1.00  0.00     0.000 HD 
HETATM   11  N   UNK A   0      -8.878   9.638  67.342  1.00  0.00    -0.128 NA 
HETATM   12  H1  UNK A   0      -8.874   5.890  68.296  1.00  0.00     0.000 HD 
HETATM   13  C   UNK A   0      -8.796   9.217  68.643  1.00  0.00    -0.132 A  
HETATM   14  C   UNK A   0      -8.843   7.878  69.010  1.00  0.00    -0.145 A  
HETATM   15  N   UNK A   0      -8.839   6.873  68.027  1.00  0.00    -0.124 NA 
HETATM   16  N   UNK A   0      -8.861   7.446  70.278  1.00  0.00    -0.146 NA 
ENDROOT
BRANCH   9  17
HETATM   17  C   UNK A   0      -9.219  11.454  65.735  1.00  0.00    -0.223 C  
HETATM   18  C   UNK A   0      -8.913   9.092  64.827  1.00  0.00    -0.177 A  
HETATM   19  C   UNK A   0      -7.550   9.164  64.490  1.00  0.00    -0.107 A  
HETATM   20  C   UNK A   0      -9.434   7.868  65.271  1.00  0.00     0.736 A  
HETATM   21  C   UNK A   0      -9.803  10.339  64.819  1.00  0.00    -0.403 C  
HETATM   22  C   UNK A   0      -8.591   6.777  65.489  1.00  0.00    -0.095 A  
HETATM   23  C   UNK A   0      -6.704   8.073  64.706  1.00  0.00    -0.059 A  
HETATM   24  C   UNK A   0     -10.031  10.817  63.373  1.00  0.00    -0.385 C  
HETATM   25  C   UNK A   0      -7.217   6.898  65.264  1.00  0.00    -0.074 A  
BRANCH  24  26
HETATM   26  C   UNK A   0     -10.956  11.959  63.263  1.00  0.00    -0.399 C  
HETATM   27  C   UNK A   0     -11.762  12.848  63.206  1.00  0.00    -0.408 C  
ENDBRANCH  24  26
BRANCH  25  28
HETATM   28  C   UNK A   0      -6.285   5.806  65.640  1.00  0.00    -0.037 C  
HETATM   29  O   UNK A   0      -5.148   5.762  65.189  1.00  0.00    -0.009 OA 
ATOM     30  N   GLU A   1      -6.774   4.888  66.567  1.00  0.00    -0.052 N  
ATOM     31  H   GLU A   1      -7.753   4.915  66.853  1.00  0.00     0.000 HD 
BRANCH  30  32
ATOM     32  CA  GLU A   1      -5.859   3.873  67.131  1.00  0.00    -0.023 C  
ATOM     33  O   GLU A   1      -7.157   2.461  65.659  1.00  0.00    -0.053 OA 
ATOM     34  C   GLU A   1      -5.971   2.574  66.308  1.00  0.00    -0.023 C  
ATOM     35  OXT GLU A   1      -5.159   1.661  66.347  1.00  0.00    -0.004 OA 
BRANCH  32  36
ATOM     36  CB  GLU A   1      -6.215   3.593  68.602  1.00  0.00    -0.032 C  
BRANCH  36  37
ATOM     37  CG  GLU A   1      -7.569   4.179  69.020  1.00  0.00    -0.054 C  
ATOM     38  CD  GLU A   1      -8.624   3.121  69.232  1.00  0.00    -0.068 C  
ATOM     39  OE2 GLU A   1      -8.458   1.921  69.089  1.00  0.00    -0.051 OA 
ATOM     40  OE1 GLU A   1      -9.807   3.649  69.621  1.00  0.00    -0.139 OA 
ENDBRANCH  36  37
ENDBRANCH  32  36
ENDBRANCH  30  32
ENDBRANCH  25  28
ENDBRANCH   9  17
TORSDOF 6
ENDMDL
MODEL      202
REMARK 921   NORMALIZED FREE ENERGY PREDICTED BY IDOCK:   -0.04 KCAL/MOL
REMARK 922        TOTAL FREE ENERGY PREDICTED BY IDOCK:   -1.47 KCAL/MOL
REMARK 923 INTER-LIGAND FREE ENERGY PREDICTED BY IDOCK:   -0.70 KCAL/MOL
REMARK 924 INTRA-LIGAND FREE ENERGY PREDICTED BY IDOCK:   -0.77 KCAL/MOL
REMARK 927      BINDING AFFINITY PREDICTED BY RF-SCORE:    0.00 PKD
ROOT
HETATM    1  N   UNK A   0     -11.200   6.162  66.336  1.00  0.00    -0.688 NA 
HETATM    2  C   UNK A   0     -10.660   7.313  66.857  1.00  0.00    -0.305 A  
HETATM    3  H2  UNK A   0     -10.617   5.347  66.144  1.00  0.00     0.000 HD 
HETATM    4  H1  UNK A   0     -12.202   6.149  66.149  1.00  0.00     0.000 HD 
HETATM    5  N   UNK A   0      -9.354   7.330  67.101  1.00  0.00    -0.136 NA 
HETATM    6  C   UNK A   0      -8.846   8.414  67.684  1.00  0.00    -0.136 A  
HETATM    7  N   UNK A   0      -7.548   8.400  68.008  1.00  0.00    -0.097 NA 
HETATM    8  C   UNK A   0      -7.048   9.455  68.694  1.00  0.00    -0.070 A  
HETATM    9  C   UNK A   0      -7.816  10.551  69.055  1.00  0.00    -0.129 A  
HETATM   10  H2  UNK A   0     -11.475  11.304  67.433  1.00  0.00     0.000 HD 
HETATM   11  N   UNK A   0      -9.115  10.613  68.690  1.00  0.00    -0.162 NA 
HETATM   12  H1  UNK A   0     -12.833  10.384  67.648  1.00  0.00     0.000 HD 
HETATM   13  C   UNK A   0      -9.618   9.532  68.016  1.00  0.00    -0.137 A  
HETATM   14  C   UNK A   0     -10.959   9.408  67.677  1.00  0.00    -0.036 A  
HETATM   15  N   UNK A   0     -11.848  10.475  67.897  1.00  0.00    -0.255 NA 
HETATM   16  N   UNK A   0     -11.493   8.320  67.104  1.00  0.00     1.329 NA 
ENDROOT
BRANCH   9  17
HETATM   17  C   UNK A   0      -7.291  11.638  69.962  1.00  0.00     0.951 C  
HETATM   18  C   UNK A   0      -6.013   9.915  71.339  1.00  0.00     0.043 A  
HETATM   19  C   UNK A   0      -6.980   9.666  72.328  1.00  0.00     1.113 A  
HETATM   20  C   UNK A   0      -5.174   8.865  70.938  1.00  0.00    -0.028 A  
HETATM   21  C   UNK A   0      -5.933  11.268  70.625  1.00  0.00    -0.059 C  
HETATM   22  C   UNK A   0      -5.377   7.572  71.422  1.00  0.00    -0.031 A  
HETATM   23  C   UNK A   0      -7.184   8.373  72.816  1.00  0.00    -0.109 A  
HETATM   24  C   UNK A   0      -5.432  12.351  71.599  1.00  0.00     0.197 C  
HETATM   25  C   UNK A   0      -6.420   7.315  72.315  1.00  0.00    -0.051 A  
BRANCH  24  26
HETATM   26  C   UNK A   0      -5.233  13.669  70.971  1.00  0.00    -0.151 C  
HETATM   27  C   UNK A   0      -5.132  14.732  70.420  1.00  0.00    -0.109 C  
ENDBRANCH  24  26
BRANCH  25  28
HETATM   28  C   UNK A   0      -6.752   5.926  72.718  1.00  0.00    -0.073 C  
HETATM   29  O   UNK A   0      -6.386   5.475  73.796  1.00  0.00    -0.060 OA 
ATOM     30  N   GLU A   1      -7.541   5.209  71.821  1.00  0.00    -0.103 N  
ATOM     31  H   GLU A   1      -7.753   5.594  70.901  1.00  0.00     0.000 HD 
BRANCH  30  32
ATOM     32  CA  GLU A   1      -8.066   3.885  72.217  1.00  0.00    -0.085 C  
ATOM     33  O   GLU A   1      -6.711   3.224  70.327  1.00  0.00    -0.032 OA 
ATOM     34  C   GLU A   1      -7.280   2.785  71.478  1.00  0.00    -0.032 C  
ATOM     35  OXT GLU A   1      -7.285   1.603  71.793  1.00  0.00    -0.033 OA 
BRANCH  32  36
ATOM     36  CB  GLU A   1      -9.562   3.780  71.872  1.00  0.00    -0.220 C  
BRANCH  36  37
ATOM     37  CG  GLU A   1     -10.266   5.141  71.808  1.00  0.00    -0.271 C  
ATOM     38  CD  GLU A   1     -10.419   5.654  70.397  1.00  0.00    -0.285 C  
ATOM     39  OE2 GLU A   1     -10.029   5.082  69.393  1.00  0.00    -0.188 OA 
ATOM     40  OE1 GLU A   1     -11.060   6.844  70.353  1.00  0.00    -0.264 OA 
ENDBRANCH  36  37
ENDBRANCH  32  36
ENDBRANCH  30  32
ENDBRANCH  25  28
ENDBRANCH   9  17
TORSDOF 6
ENDMDL
MODEL      203
REMARK 921   NORMALIZED FREE ENERGY PREDICTED BY IDOCK:    0.33 KCAL/MOL
REMARK 922        TOTAL FREE ENERGY PREDICTED BY IDOCK:   -0.96 KCAL/MOL
REMARK 923 INTER-LIGAND FREE ENERGY PREDICTED BY IDOCK:   -4.13 KCAL/MOL
REMARK 924 INTRA-LIGAND FREE ENERGY PREDICTED BY IDOCK:    3.17 KCAL/MOL
REMARK 927      BINDING AFFINITY PREDICTED BY RF-SCORE:    0.00 PKD
ROOT
HETATM    1  N   UNK A   0      -5.138  14.391  73.088  1.00  0.00    -0.297 NA 
HETATM    2  C   UNK A   0      -5.593  14.787  71.853  1.00  0.00     0.098 A  
HETATM    3  H2  UNK A   0      -4.896  15.074  73.805  1.00  0.00     0.000 HD 
HETATM    4  H1  UNK A   0      -5.051  13.390  73.263  1.00  0.00     0.000 HD 
HETATM    5  N   UNK A   0      -5.706  16.092  71.625  1.00  0.00     0.565 NA 
HETATM    6  C   UNK A   0      -6.227  16.474  70.460  1.00  0.00     0.449 A  
HETATM    7  N   UNK A   0      -6.420  17.783  70.262  1.00  0.00     0.344 NA 
HETATM    8  C   UNK A   0      -7.044  18.173  69.125  1.00  0.00    -0.182 A  
HETATM    9  C   UNK A   0      -7.470  17.278  68.155  1.00  0.00    -0.208 A  
HETATM   10  H2  UNK A   0      -6.212  13.407  68.028  1.00  0.00     0.000 HD 
HETATM   11  N   UNK A   0      -7.234  15.956  68.308  1.00  0.00    -0.114 NA 
HETATM   12  H1  UNK A   0      -6.568  12.240  69.145  1.00  0.00     0.000 HD 
HETATM   13  C   UNK A   0      -6.623  15.570  69.470  1.00  0.00    -0.172 A  
HETATM   14  C   UNK A   0      -6.419  14.239  69.813  1.00  0.00    -0.142 A  
HETATM   15  N   UNK A   0      -6.717  13.217  68.894  1.00  0.00    -0.106 NA 
HETATM   16  N   UNK A   0      -5.913  13.833  70.985  1.00  0.00    -0.173 NA 
ENDROOT
BRANCH   9  17
HETATM   17  C   UNK A   0      -8.311  17.708  66.977  1.00  0.00    -0.239 C  
HETATM   18  C   UNK A   0      -9.928  15.781  67.388  1.00  0.00    -0.237 A  
HETATM   19  C   UNK A   0      -9.354  14.828  66.528  1.00  0.00    -0.316 A  
HETATM   20  C   UNK A   0     -10.542  15.340  68.569  1.00  0.00    -0.237 A  
HETATM   21  C   UNK A   0      -9.801  17.283  67.112  1.00  0.00    -0.269 C  
HETATM   22  C   UNK A   0     -10.477  13.996  68.942  1.00  0.00    -0.210 A  
HETATM   23  C   UNK A   0      -9.288  13.482  66.899  1.00  0.00    -0.255 A  
HETATM   24  C   UNK A   0     -10.643  17.666  65.879  1.00  0.00    -0.203 C  
HETATM   25  C   UNK A   0      -9.798  13.079  68.136  1.00  0.00    -0.228 A  
BRANCH  24  26
HETATM   26  C   UNK A   0     -10.656  19.113  65.596  1.00  0.00    -0.303 C  
HETATM   27  C   UNK A   0     -10.610  20.281  65.320  1.00  0.00     0.112 C  
ENDBRANCH  24  26
BRANCH  25  28
HETATM   28  C   UNK A   0      -9.580  11.683  68.590  1.00  0.00    -0.133 C  
HETATM   29  O   UNK A   0     -10.363  10.790  68.290  1.00  0.00    -0.161 OA 
ATOM     30  N   GLU A   1      -8.414  11.460  69.320  1.00  0.00    -0.363 N  
ATOM     31  H   GLU A   1      -7.834  12.245  69.617  1.00  0.00     0.000 HD 
BRANCH  30  32
ATOM     32  CA  GLU A   1      -8.027  10.075  69.660  1.00  0.00    -0.170 C  
ATOM     33  O   GLU A   1      -6.121  10.699  68.309  1.00  0.00    -0.047 OA 
ATOM     34  C   GLU A   1      -6.550   9.852  69.279  1.00  0.00    -0.049 C  
ATOM     35  OXT GLU A   1      -5.867   8.921  69.681  1.00  0.00    -0.032 OA 
BRANCH  32  36
ATOM     36  CB  GLU A   1      -8.918   9.071  68.907  1.00  0.00    -0.140 C  
BRANCH  36  37
ATOM     37  CG  GLU A   1      -8.205   8.388  67.734  1.00  0.00    -0.126 C  
ATOM     38  CD  GLU A   1      -8.964   8.512  66.436  1.00  0.00    -0.165 C  
ATOM     39  OE2 GLU A   1     -10.035   9.078  66.297  1.00  0.00    -0.280 OA 
ATOM     40  OE1 GLU A   1      -8.314   7.923  65.406  1.00  0.00    -0.136 OA 
ENDBRANCH  36  37
ENDBRANCH  32  36
ENDBRANCH  30  32
ENDBRANCH  25  28
ENDBRANCH   9  17
TORSDOF 6
ENDMDL
MODEL      204
REMARK 921   NORMALIZED FREE ENERGY PREDICTED BY IDOCK:    0.84 KCAL/MOL
REMARK 922        TOTAL FREE ENERGY PREDICTED BY IDOCK:   -0.27 KCAL/MOL
REMARK 923 INTER-LIGAND FREE ENERGY PREDICTED BY IDOCK:    0.41 KCAL/MOL
REMARK 924 INTRA-LIGAND FREE ENERGY PREDICTED BY IDOCK:   -0.68 KCAL/MOL
REMARK 927      BINDING AFFINITY PREDICTED BY RF-SCORE:    0.00 PKD
ROOT
HETATM    1  N   UNK A   0     -11.562   5.523  65.984  1.00  0.00    -0.128 NA 
HETATM    2  C   UNK A   0     -11.275   6.663  66.696  1.00  0.00     0.230 A  
HETATM    3  H2  UNK A   0     -11.754   5.560  64.984  1.00  0.00     0.000 HD 
HETATM    4  H1  UNK A   0     -11.574   4.637  66.491  1.00  0.00     0.000 HD 
HETATM    5  N   UNK A   0     -11.258   7.817  66.036  1.00  0.00     2.868 NA 
HETATM    6  C   UNK A   0     -10.897   8.909  66.706  1.00  0.00     0.150 A  
HETATM    7  N   UNK A   0     -10.797  10.056  66.024  1.00  0.00     0.158 NA 
HETATM    8  C   UNK A   0     -10.331  11.148  66.675  1.00  0.00    -0.241 A  
HETATM    9  C   UNK A   0      -9.975  11.132  68.015  1.00  0.00    -0.176 A  
HETATM   10  H2  UNK A   0     -11.032   8.114  70.537  1.00  0.00     0.000 HD 
HETATM   11  N   UNK A   0     -10.120  10.000  68.737  1.00  0.00    -0.176 NA 
HETATM   12  H1  UNK A   0     -10.488   6.555  70.456  1.00  0.00     0.000 HD 
HETATM   13  C   UNK A   0     -10.571   8.895  68.065  1.00  0.00    -0.168 A  
HETATM   14  C   UNK A   0     -10.663   7.638  68.651  1.00  0.00    -0.059 A  
HETATM   15  N   UNK A   0     -10.421   7.477  70.026  1.00  0.00    -0.222 NA 
HETATM   16  N   UNK A   0     -11.008   6.524  67.990  1.00  0.00    -0.290 NA 
ENDROOT
BRANCH   9  17
HETATM   17  C   UNK A   0      -9.300  12.306  68.682  1.00  0.00    -0.016 C  
HETATM   18  C   UNK A   0      -7.163  10.949  68.982  1.00  0.00    -0.101 A  
HETATM   19  C   UNK A   0      -7.401  10.452  70.276  1.00  0.00     0.070 A  
HETATM   20  C   UNK A   0      -6.453  10.151  68.074  1.00  0.00    -0.058 A  
HETATM   21  C   UNK A   0      -7.752  12.286  68.521  1.00  0.00    -0.118 C  
HETATM   22  C   UNK A   0      -6.097   8.843  68.408  1.00  0.00    -0.046 A  
HETATM   23  C   UNK A   0      -7.044   9.144  70.614  1.00  0.00    -0.099 A  
HETATM   24  C   UNK A   0      -7.062  13.449  69.258  1.00  0.00     0.060 C  
HETATM   25  C   UNK A   0      -6.446   8.320  69.656  1.00  0.00    -0.037 A  
BRANCH  24  26
HETATM   26  C   UNK A   0      -7.501  14.782  68.806  1.00  0.00    -0.133 C  
HETATM   27  C   UNK A   0      -7.821  15.897  68.495  1.00  0.00    -0.142 C  
ENDBRANCH  24  26
BRANCH  25  28
HETATM   28  C   UNK A   0      -6.219   6.887  69.971  1.00  0.00    -0.031 C  
HETATM   29  O   UNK A   0      -5.371   6.545  70.785  1.00  0.00    -0.018 OA 
ATOM     30  N   GLU A   1      -7.063   5.986  69.326  1.00  0.00    -0.064 N  
ATOM     31  H   GLU A   1      -7.698   6.308  68.595  1.00  0.00     0.000 HD 
BRANCH  30  32
ATOM     32  CA  GLU A   1      -7.028   4.559  69.710  1.00  0.00    -0.049 C  
ATOM     33  O   GLU A   1      -5.232   4.577  68.092  1.00  0.00    -0.006 OA 
ATOM     34  C   GLU A   1      -5.737   3.917  69.165  1.00  0.00    -0.018 C  
ATOM     35  OXT GLU A   1      -5.288   2.845  69.542  1.00  0.00    -0.011 OA 
BRANCH  32  36
ATOM     36  CB  GLU A   1      -8.257   3.825  69.146  1.00  0.00    -0.073 C  
BRANCH  36  37
ATOM     37  CG  GLU A   1      -8.982   2.967  70.190  1.00  0.00    -0.170 C  
ATOM     38  CD  GLU A   1      -9.548   3.782  71.326  1.00  0.00    -0.173 C  
ATOM     39  OE2 GLU A   1      -9.451   4.992  71.442  1.00  0.00    -0.144 OA 
ATOM     40  OE1 GLU A   1     -10.203   3.016  72.229  1.00  0.00    -0.162 OA 
ENDBRANCH  36  37
ENDBRANCH  32  36
ENDBRANCH  30  32
ENDBRANCH  25  28
ENDBRANCH   9  17
TORSDOF 6
ENDMDL
MODEL      205
REMARK 921   NORMALIZED FREE ENERGY PREDICTED BY IDOCK:    1.05 KCAL/MOL
REMARK 922        TOTAL FREE ENERGY PREDICTED BY IDOCK:    0.00 KCAL/MOL
REMARK 923 INTER-LIGAND FREE ENERGY PREDICTED BY IDOCK:   -1.44 KCAL/MOL
REMARK 924 INTRA-LIGAND FREE ENERGY PREDICTED BY IDOCK:    1.45 KCAL/MOL
REMARK 927      BINDING AFFINITY PREDICTED BY RF-SCORE:    0.00 PKD
ROOT
HETATM    1  N   UNK A   0      -9.960  16.333  65.634  1.00  0.00    -0.506 NA 
HETATM    2  C   UNK A   0      -9.513  15.054  65.865  1.00  0.00    -0.278 A  
HETATM    3  H2  UNK A   0     -10.605  16.536  64.871  1.00  0.00     0.000 HD 
HETATM    4  H1  UNK A   0      -9.627  17.072  66.253  1.00  0.00     0.000 HD 
HETATM    5  N   UNK A   0      -9.949  14.091  65.058  1.00  0.00    -0.271 NA 
HETATM    6  C   UNK A   0      -9.584  12.840  65.333  1.00  0.00     0.061 A  
HETATM    7  N   UNK A   0     -10.089  11.861  64.574  1.00  0.00    -0.270 NA 
HETATM    8  C   UNK A   0      -9.806  10.580  64.911  1.00  0.00    -0.315 A  
HETATM    9  C   UNK A   0      -9.004  10.245  65.991  1.00  0.00    -0.152 A  
HETATM   10  H2  UNK A   0      -6.610  12.946  67.876  1.00  0.00     0.000 HD 
HETATM   11  N   UNK A   0      -8.437  11.218  66.737  1.00  0.00    -0.156 NA 
HETATM   12  H1  UNK A   0      -7.130  14.239  68.767  1.00  0.00     0.000 HD 
HETATM   13  C   UNK A   0      -8.747  12.509  66.403  1.00  0.00     0.053 A  
HETATM   14  C   UNK A   0      -8.329  13.605  67.147  1.00  0.00    -0.137 A  
HETATM   15  N   UNK A   0      -7.437  13.435  68.221  1.00  0.00    -0.118 NA 
HETATM   16  N   UNK A   0      -8.697  14.869  66.897  1.00  0.00    -0.239 NA 
ENDROOT
BRANCH   9  17
HETATM   17  C   UNK A   0      -8.835   8.818  66.455  1.00  0.00    -0.156 C  
HETATM   18  C   UNK A   0     -10.677   9.131  68.189  1.00  0.00    -0.186 A  
HETATM   19  C   UNK A   0      -9.882   9.499  69.288  1.00  0.00    -0.184 A  
HETATM   20  C   UNK A   0     -11.959   9.686  68.069  1.00  0.00     2.296 A  
HETATM   21  C   UNK A   0     -10.133   8.227  67.078  1.00  0.00    -0.353 C  
HETATM   22  C   UNK A   0     -12.389  10.675  68.956  1.00  0.00     0.215 A  
HETATM   23  C   UNK A   0     -10.309  10.488  70.178  1.00  0.00    -0.001 A  
HETATM   24  C   UNK A   0      -9.939   6.795  67.609  1.00  0.00    -0.171 C  
HETATM   25  C   UNK A   0     -11.540  11.119  69.973  1.00  0.00    -0.421 A  
BRANCH  24  26
HETATM   26  C   UNK A   0      -9.507   5.832  66.579  1.00  0.00    -0.168 C  
HETATM   27  C   UNK A   0      -9.127   5.105  65.702  1.00  0.00    -0.161 C  
ENDBRANCH  24  26
BRANCH  25  28
HETATM   28  C   UNK A   0     -11.913  12.276  70.824  1.00  0.00    -0.002 C  
HETATM   29  O   UNK A   0     -11.086  13.124  71.136  1.00  0.00     1.990 OA 
ATOM     30  N   GLU A   1     -13.256  12.352  71.186  1.00  0.00    -0.019 N  
ATOM     31  H   GLU A   1     -13.890  11.582  70.974  1.00  0.00     0.000 HD 
BRANCH  30  32
ATOM     32  CA  GLU A   1     -13.751  13.558  71.881  1.00  0.00    -0.392 C  
ATOM     33  O   GLU A   1     -12.895  14.585  69.867  1.00  0.00    -0.189 OA 
ATOM     34  C   GLU A   1     -13.767  14.743  70.895  1.00  0.00    -0.159 C  
ATOM     35  OXT GLU A   1     -14.373  15.788  71.081  1.00  0.00    -0.401 OA 
BRANCH  32  36
ATOM     36  CB  GLU A   1     -12.848  13.890  73.083  1.00  0.00     0.034 C  
BRANCH  36  37
ATOM     37  CG  GLU A   1     -12.886  15.372  73.478  1.00  0.00    -0.683 C  
ATOM     38  CD  GLU A   1     -11.715  16.152  72.933  1.00  0.00    -0.304 C  
ATOM     39  OE2 GLU A   1     -10.814  15.689  72.255  1.00  0.00     0.173 OA 
ATOM     40  OE1 GLU A   1     -11.772  17.460  73.271  1.00  0.00     0.128 OA 
ENDBRANCH  36  37
ENDBRANCH  32  36
ENDBRANCH  30  32
ENDBRANCH  25  28
ENDBRANCH   9  17
TORSDOF 6
ENDMDL
MODEL      206
REMARK 921   NORMALIZED FREE ENERGY PREDICTED BY IDOCK:    1.07 KCAL/MOL
REMARK 922        TOTAL FREE ENERGY PREDICTED BY IDOCK:    0.03 KCAL/MOL
REMARK 923 INTER-LIGAND FREE ENERGY PREDICTED BY IDOCK:    1.12 KCAL/MOL
REMARK 924 INTRA-LIGAND FREE ENERGY PREDICTED BY IDOCK:   -1.09 KCAL/MOL
REMARK 927      BINDING AFFINITY PREDICTED BY RF-SCORE:    0.00 PKD
ROOT
HETATM    1  N   UNK A   0     -11.077  16.139  62.855  1.00  0.00     3.015 NA 
HETATM    2  C   UNK A   0     -11.215  15.584  64.105  1.00  0.00     0.117 A  
HETATM    3  H2  UNK A   0     -11.187  15.574  62.013  1.00  0.00     0.000 HD 
HETATM    4  H1  UNK A   0     -10.861  17.134  62.799  1.00  0.00     0.000 HD 
HETATM    5  N   UNK A   0     -11.498  14.287  64.179  1.00  0.00    -0.218 NA 
HETATM    6  C   UNK A   0     -11.716  13.768  65.386  1.00  0.00    -0.335 A  
HETATM    7  N   UNK A   0     -12.083  12.483  65.456  1.00  0.00    -0.534 NA 
HETATM    8  C   UNK A   0     -12.407  11.976  66.669  1.00  0.00     0.915 A  
HETATM    9  C   UNK A   0     -12.356  12.724  67.836  1.00  0.00     0.334 A  
HETATM   10  H2  UNK A   0     -10.419  16.298  68.077  1.00  0.00     0.000 HD 
HETATM   11  N   UNK A   0     -11.934  14.006  67.797  1.00  0.00    -0.375 NA 
HETATM   12  H1  UNK A   0     -10.863  17.689  67.301  1.00  0.00     0.000 HD 
HETATM   13  C   UNK A   0     -11.629  14.517  66.563  1.00  0.00    -0.371 A  
HETATM   14  C   UNK A   0     -11.291  15.848  66.357  1.00  0.00     0.222 A  
HETATM   15  N   UNK A   0     -11.111  16.712  67.452  1.00  0.00    -0.090 NA 
HETATM   16  N   UNK A   0     -11.084  16.394  65.151  1.00  0.00    -0.328 NA 
ENDROOT
BRANCH   9  17
HETATM   17  C   UNK A   0     -12.879  12.199  69.151  1.00  0.00     1.311 C  
HETATM   18  C   UNK A   0     -10.838  10.693  69.400  1.00  0.00    -0.289 A  
HETATM   19  C   UNK A   0     -11.358   9.524  68.817  1.00  0.00     0.166 A  
HETATM   20  C   UNK A   0      -9.472  10.972  69.247  1.00  0.00     0.020 A  
HETATM   21  C   UNK A   0     -11.748  11.707  70.100  1.00  0.00    -0.381 C  
HETATM   22  C   UNK A   0      -8.673  10.171  68.430  1.00  0.00    -0.123 A  
HETATM   23  C   UNK A   0     -10.559   8.719  68.001  1.00  0.00    -0.218 A  
HETATM   24  C   UNK A   0     -12.290  11.113  71.414  1.00  0.00    -0.338 C  
HETATM   25  C   UNK A   0      -9.230   9.079  67.759  1.00  0.00    -0.152 A  
BRANCH  24  26
HETATM   26  C   UNK A   0     -13.101  12.057  72.203  1.00  0.00    -0.352 C  
HETATM   27  C   UNK A   0     -13.745  12.879  72.797  1.00  0.00     0.112 C  
ENDBRANCH  24  26
BRANCH  25  28
HETATM   28  C   UNK A   0      -8.439   8.312  66.765  1.00  0.00    -0.122 C  
HETATM   29  O   UNK A   0      -7.924   8.866  65.803  1.00  0.00    -0.096 OA 
ATOM     30  N   GLU A   1      -8.284   6.954  67.035  1.00  0.00    -0.119 N  
ATOM     31  H   GLU A   1      -8.798   6.520  67.802  1.00  0.00     0.000 HD 
BRANCH  30  32
ATOM     32  CA  GLU A   1      -7.368   6.150  66.199  1.00  0.00    -0.080 C  
ATOM     33  O   GLU A   1      -9.486   5.353  65.346  1.00  0.00    -0.075 OA 
ATOM     34  C   GLU A   1      -8.168   5.494  65.056  1.00  0.00    -0.139 C  
ATOM     35  OXT GLU A   1      -7.665   5.006  64.054  1.00  0.00    -0.071 OA 
BRANCH  32  36
ATOM     36  CB  GLU A   1      -6.685   5.064  67.049  1.00  0.00    -0.055 C  
BRANCH  36  37
ATOM     37  CG  GLU A   1      -7.216   4.995  68.486  1.00  0.00    -0.062 C  
ATOM     38  CD  GLU A   1      -7.887   3.681  68.799  1.00  0.00    -0.055 C  
ATOM     39  OE2 GLU A   1      -8.020   2.754  68.018  1.00  0.00    -0.059 OA 
ATOM     40  OE1 GLU A   1      -8.332   3.625  70.075  1.00  0.00    -0.055 OA 
ENDBRANCH  36  37
ENDBRANCH  32  36
ENDBRANCH  30  32
ENDBRANCH  25  28
ENDBRANCH   9  17
TORSDOF 6
ENDMDL
MODEL      207
REMARK 921   NORMALIZED FREE ENERGY PREDICTED BY IDOCK:    1.17 KCAL/MOL
REMARK 922        TOTAL FREE ENERGY PREDICTED BY IDOCK:    0.16 KCAL/MOL
REMARK 923 INTER-LIGAND FREE ENERGY PREDICTED BY IDOCK:    0.75 KCAL/MOL
REMARK 924 INTRA-LIGAND FREE ENERGY PREDICTED BY IDOCK:   -0.58 KCAL/MOL
REMARK 927      BINDING AFFINITY PREDICTED BY RF-SCORE:    0.00 PKD
ROOT
HETATM    1  N   UNK A   0     -11.037  16.246  63.102  1.00  0.00     1.740 NA 
HETATM    2  C   UNK A   0     -11.173  16.038  64.454  1.00  0.00    -0.205 A  
HETATM    3  H2  UNK A   0     -11.281  15.519  62.431  1.00  0.00     0.000 HD 
HETATM    4  H1  UNK A   0     -10.685  17.152  62.794  1.00  0.00     0.000 HD 
HETATM    5  N   UNK A   0     -11.632  14.858  64.856  1.00  0.00    -0.395 NA 
HETATM    6  C   UNK A   0     -11.844  14.686  66.159  1.00  0.00    -0.277 A  
HETATM    7  N   UNK A   0     -12.385  13.529  66.558  1.00  0.00    -0.369 NA 
HETATM    8  C   UNK A   0     -12.700  13.387  67.867  1.00  0.00     1.078 A  
HETATM    9  C   UNK A   0     -12.467  14.378  68.809  1.00  0.00     0.136 A  
HETATM   10  H2  UNK A   0     -10.028  17.561  68.099  1.00  0.00     0.000 HD 
HETATM   11  N   UNK A   0     -11.870  15.532  68.440  1.00  0.00    -0.305 NA 
HETATM   12  H1  UNK A   0     -10.318  18.774  67.014  1.00  0.00     0.000 HD 
HETATM   13  C   UNK A   0     -11.575  15.675  67.111  1.00  0.00     0.117 A  
HETATM   14  C   UNK A   0     -11.064  16.848  66.570  1.00  0.00     0.337 A  
HETATM   15  N   UNK A   0     -10.693  17.913  67.410  1.00  0.00    -0.343 NA 
HETATM   16  N   UNK A   0     -10.859  17.047  65.261  1.00  0.00    -0.536 NA 
ENDROOT
BRANCH   9  17
HETATM   17  C   UNK A   0     -12.975  14.274  70.227  1.00  0.00    -0.090 C  
HETATM   18  C   UNK A   0     -11.690  12.098  70.562  1.00  0.00    -0.017 A  
HETATM   19  C   UNK A   0     -12.706  11.191  70.217  1.00  0.00    -0.213 A  
HETATM   20  C   UNK A   0     -10.361  11.767  70.264  1.00  0.00     2.054 A  
HETATM   21  C   UNK A   0     -12.017  13.472  71.155  1.00  0.00     0.020 C  
HETATM   22  C   UNK A   0     -10.065  10.617  69.529  1.00  0.00    -0.164 A  
HETATM   23  C   UNK A   0     -12.413  10.037  69.483  1.00  0.00     0.535 A  
HETATM   24  C   UNK A   0     -12.568  13.313  72.585  1.00  0.00     0.328 C  
HETATM   25  C   UNK A   0     -11.096   9.785  69.088  1.00  0.00    -0.158 A  
BRANCH  24  26
HETATM   26  C   UNK A   0     -12.821  14.594  73.270  1.00  0.00    -0.580 C  
HETATM   27  C   UNK A   0     -13.012  15.604  73.892  1.00  0.00    -0.546 C  
ENDBRANCH  24  26
BRANCH  25  28
HETATM   28  C   UNK A   0     -10.819   8.648  68.174  1.00  0.00     0.043 C  
HETATM   29  O   UNK A   0     -10.909   8.776  66.960  1.00  0.00    -0.193 OA 
ATOM     30  N   GLU A   1     -10.402   7.468  68.787  1.00  0.00    -0.198 N  
ATOM     31  H   GLU A   1     -10.420   7.382  69.803  1.00  0.00     0.000 HD 
BRANCH  30  32
ATOM     32  CA  GLU A   1      -9.935   6.344  67.950  1.00  0.00    -0.131 C  
ATOM     33  O   GLU A   1     -10.042   5.226  70.091  1.00  0.00    -0.218 OA 
ATOM     34  C   GLU A   1     -10.058   5.031  68.748  1.00  0.00    -0.130 C  
ATOM     35  OXT GLU A   1     -10.017   3.915  68.251  1.00  0.00    -0.028 OA 
BRANCH  32  36
ATOM     36  CB  GLU A   1      -8.472   6.565  67.527  1.00  0.00    -0.120 C  
BRANCH  36  37
ATOM     37  CG  GLU A   1      -8.291   6.685  66.010  1.00  0.00    -0.134 C  
ATOM     38  CD  GLU A   1      -7.972   5.365  65.352  1.00  0.00    -0.107 C  
ATOM     39  OE2 GLU A   1      -7.855   4.299  65.932  1.00  0.00    -0.093 OA 
ATOM     40  OE1 GLU A   1      -7.835   5.482  64.011  1.00  0.00    -0.090 OA 
ENDBRANCH  36  37
ENDBRANCH  32  36
ENDBRANCH  30  32
ENDBRANCH  25  28
ENDBRANCH   9  17
TORSDOF 6
ENDMDL
MODEL      208
REMARK 921   NORMALIZED FREE ENERGY PREDICTED BY IDOCK:    1.24 KCAL/MOL
REMARK 922        TOTAL FREE ENERGY PREDICTED BY IDOCK:    0.26 KCAL/MOL
REMARK 923 INTER-LIGAND FREE ENERGY PREDICTED BY IDOCK:   -2.29 KCAL/MOL
REMARK 924 INTRA-LIGAND FREE ENERGY PREDICTED BY IDOCK:    2.55 KCAL/MOL
REMARK 927      BINDING AFFINITY PREDICTED BY RF-SCORE:    0.00 PKD
ROOT
HETATM    1  N   UNK A   0     -11.124  10.116  62.547  1.00  0.00     1.261 NA 
HETATM    2  C   UNK A   0     -10.470  10.842  63.514  1.00  0.00    -0.070 A  
HETATM    3  H2  UNK A   0     -11.041   9.101  62.504  1.00  0.00     0.000 HD 
HETATM    4  H1  UNK A   0     -11.695  10.627  61.874  1.00  0.00     0.000 HD 
HETATM    5  N   UNK A   0      -9.727  10.176  64.391  1.00  0.00    -0.310 NA 
HETATM    6  C   UNK A   0      -9.163  10.869  65.379  1.00  0.00    -0.207 A  
HETATM    7  N   UNK A   0      -8.485  10.190  66.311  1.00  0.00    -0.126 NA 
HETATM    8  C   UNK A   0      -7.997  10.875  67.373  1.00  0.00    -0.113 A  
HETATM    9  C   UNK A   0      -8.154  12.244  67.522  1.00  0.00    -0.170 A  
HETATM   10  H2  UNK A   0      -9.318  14.673  64.468  1.00  0.00     0.000 HD 
HETATM   11  N   UNK A   0      -8.787  12.958  66.566  1.00  0.00    -0.089 NA 
HETATM   12  H1  UNK A   0     -10.804  14.664  63.741  1.00  0.00     0.000 HD 
HETATM   13  C   UNK A   0      -9.295  12.255  65.507  1.00  0.00     0.068 A  
HETATM   14  C   UNK A   0     -10.064  12.840  64.509  1.00  0.00    -0.242 A  
HETATM   15  N   UNK A   0     -10.239  14.234  64.474  1.00  0.00    -0.203 NA 
HETATM   16  N   UNK A   0     -10.653  12.158  63.517  1.00  0.00    -0.450 NA 
ENDROOT
BRANCH   9  17
HETATM   17  C   UNK A   0      -7.756  12.966  68.787  1.00  0.00     0.007 C  
HETATM   18  C   UNK A   0      -6.270  11.012  69.473  1.00  0.00    -0.085 A  
HETATM   19  C   UNK A   0      -7.193  10.303  70.262  1.00  0.00    -0.077 A  
HETATM   20  C   UNK A   0      -5.315  10.290  68.743  1.00  0.00    -0.038 A  
HETATM   21  C   UNK A   0      -6.358  12.533  69.316  1.00  0.00    -0.110 C  
HETATM   22  C   UNK A   0      -5.357   8.895  68.704  1.00  0.00    -0.037 A  
HETATM   23  C   UNK A   0      -7.237   8.907  70.227  1.00  0.00    -0.054 A  
HETATM   24  C   UNK A   0      -5.983  13.223  70.641  1.00  0.00    -0.089 C  
HETATM   25  C   UNK A   0      -6.355   8.207  69.398  1.00  0.00    -0.034 A  
BRANCH  24  26
HETATM   26  C   UNK A   0      -5.948  14.694  70.556  1.00  0.00    -0.172 C  
HETATM   27  C   UNK A   0      -5.860  15.887  70.443  1.00  0.00    -0.071 C  
ENDBRANCH  24  26
BRANCH  25  28
HETATM   28  C   UNK A   0      -6.515   6.739  69.243  1.00  0.00    -0.043 C  
HETATM   29  O   UNK A   0      -6.595   6.005  70.220  1.00  0.00    -0.041 OA 
ATOM     30  N   GLU A   1      -6.622   6.278  67.933  1.00  0.00    -0.059 N  
ATOM     31  H   GLU A   1      -6.469   6.914  67.149  1.00  0.00     0.000 HD 
BRANCH  30  32
ATOM     32  CA  GLU A   1      -6.960   4.860  67.690  1.00  0.00    -0.061 C  
ATOM     33  O   GLU A   1      -9.168   5.830  67.511  1.00  0.00    -0.111 OA 
ATOM     34  C   GLU A   1      -8.403   4.766  67.156  1.00  0.00    -0.106 C  
ATOM     35  OXT GLU A   1      -8.873   3.780  66.607  1.00  0.00    -0.113 OA 
BRANCH  32  36
ATOM     36  CB  GLU A   1      -6.829   4.050  68.991  1.00  0.00    -0.046 C  
BRANCH  36  37
ATOM     37  CG  GLU A   1      -8.017   3.114  69.245  1.00  0.00    -0.058 C  
ATOM     38  CD  GLU A   1      -8.369   2.999  70.707  1.00  0.00    -0.053 C  
ATOM     39  OE2 GLU A   1      -7.791   3.566  71.618  1.00  0.00    -0.056 OA 
ATOM     40  OE1 GLU A   1      -9.431   2.188  70.915  1.00  0.00    -0.128 OA 
ENDBRANCH  36  37
ENDBRANCH  32  36
ENDBRANCH  30  32
ENDBRANCH  25  28
ENDBRANCH   9  17
TORSDOF 6
ENDMDL
MODEL      209
REMARK 921   NORMALIZED FREE ENERGY PREDICTED BY IDOCK:    1.24 KCAL/MOL
REMARK 922        TOTAL FREE ENERGY PREDICTED BY IDOCK:    0.27 KCAL/MOL
REMARK 923 INTER-LIGAND FREE ENERGY PREDICTED BY IDOCK:   -2.27 KCAL/MOL
REMARK 924 INTRA-LIGAND FREE ENERGY PREDICTED BY IDOCK:    2.53 KCAL/MOL
REMARK 927      BINDING AFFINITY PREDICTED BY RF-SCORE:    0.00 PKD
ROOT
HETATM    1  N   UNK A   0      -5.355  14.546  73.275  1.00  0.00    -0.241 NA 
HETATM    2  C   UNK A   0      -5.751  14.950  72.023  1.00  0.00     0.313 A  
HETATM    3  H2  UNK A   0      -5.182  15.223  74.017  1.00  0.00     0.000 HD 
HETATM    4  H1  UNK A   0      -5.242  13.545  73.437  1.00  0.00     0.000 HD 
HETATM    5  N   UNK A   0      -5.899  16.254  71.811  1.00  0.00     0.990 NA 
HETATM    6  C   UNK A   0      -6.363  16.642  70.625  1.00  0.00     0.891 A  
HETATM    7  N   UNK A   0      -6.593  17.946  70.439  1.00  0.00     0.693 NA 
HETATM    8  C   UNK A   0      -7.162  18.336  69.274  1.00  0.00    -0.075 A  
HETATM    9  C   UNK A   0      -7.497  17.446  68.265  1.00  0.00    -0.227 A  
HETATM   10  H2  UNK A   0      -6.092  13.626  68.143  1.00  0.00     0.000 HD 
HETATM   11  N   UNK A   0      -7.222  16.131  68.407  1.00  0.00    -0.131 NA 
HETATM   12  H1  UNK A   0      -6.470  12.425  69.216  1.00  0.00     0.000 HD 
HETATM   13  C   UNK A   0      -6.667  15.744  69.597  1.00  0.00    -0.176 A  
HETATM   14  C   UNK A   0      -6.435  14.414  69.927  1.00  0.00    -0.152 A  
HETATM   15  N   UNK A   0      -6.640  13.401  68.974  1.00  0.00    -0.103 NA 
HETATM   16  N   UNK A   0      -5.983  14.003  71.120  1.00  0.00    -0.202 NA 
ENDROOT
BRANCH   9  17
HETATM   17  C   UNK A   0      -8.282  17.870  67.047  1.00  0.00    -0.241 C  
HETATM   18  C   UNK A   0      -9.728  15.777  67.212  1.00  0.00    -0.223 A  
HETATM   19  C   UNK A   0      -8.997  14.939  66.351  1.00  0.00    -0.254 A  
HETATM   20  C   UNK A   0     -10.385  15.205  68.310  1.00  0.00    -0.231 A  
HETATM   21  C   UNK A   0      -9.730  17.298  67.032  1.00  0.00    -0.267 C  
HETATM   22  C   UNK A   0     -10.216  13.852  68.612  1.00  0.00    -0.218 A  
HETATM   23  C   UNK A   0      -8.828  13.584  66.649  1.00  0.00    -0.080 A  
HETATM   24  C   UNK A   0     -10.506  17.678  65.757  1.00  0.00    -0.208 C  
HETATM   25  C   UNK A   0      -9.389  13.056  67.816  1.00  0.00    -0.199 A  
BRANCH  24  26
HETATM   26  C   UNK A   0     -10.641  19.132  65.555  1.00  0.00    -0.140 C  
HETATM   27  C   UNK A   0     -10.689  20.315  65.349  1.00  0.00     0.010 C  
ENDBRANCH  24  26
BRANCH  25  28
HETATM   28  C   UNK A   0      -9.070  11.661  68.208  1.00  0.00    -0.187 C  
HETATM   29  O   UNK A   0      -9.001  11.335  69.386  1.00  0.00     0.155 OA 
ATOM     30  N   GLU A   1      -8.913  10.759  67.157  1.00  0.00    -0.140 N  
ATOM     31  H   GLU A   1      -8.897  11.091  66.192  1.00  0.00     0.000 HD 
BRANCH  30  32
ATOM     32  CA  GLU A   1      -8.769   9.319  67.455  1.00  0.00    -0.118 C  
ATOM     33  O   GLU A   1     -11.160   9.417  67.112  1.00  0.00    -0.048 OA 
ATOM     34  C   GLU A   1     -10.082   8.593  67.099  1.00  0.00    -0.261 C  
ATOM     35  OXT GLU A   1     -10.187   7.382  66.969  1.00  0.00    -0.231 OA 
BRANCH  32  36
ATOM     36  CB  GLU A   1      -8.445   9.112  68.945  1.00  0.00    -0.129 C  
BRANCH  36  37
ATOM     37  CG  GLU A   1      -9.139   7.886  69.552  1.00  0.00    -0.149 C  
ATOM     38  CD  GLU A   1     -10.233   8.256  70.523  1.00  0.00    -0.198 C  
ATOM     39  OE2 GLU A   1     -10.553   9.392  70.825  1.00  0.00    -0.254 OA 
ATOM     40  OE1 GLU A   1     -10.850   7.166  71.035  1.00  0.00    -0.234 OA 
ENDBRANCH  36  37
ENDBRANCH  32  36
ENDBRANCH  30  32
ENDBRANCH  25  28
ENDBRANCH   9  17
TORSDOF 6
ENDMDL
MODEL      210
REMARK 921   NORMALIZED FREE ENERGY PREDICTED BY IDOCK:    1.66 KCAL/MOL
REMARK 922        TOTAL FREE ENERGY PREDICTED BY IDOCK:    0.83 KCAL/MOL
REMARK 923 INTER-LIGAND FREE ENERGY PREDICTED BY IDOCK:   -2.43 KCAL/MOL
REMARK 924 INTRA-LIGAND FREE ENERGY PREDICTED BY IDOCK:    3.26 KCAL/MOL
REMARK 927      BINDING AFFINITY PREDICTED BY RF-SCORE:    0.00 PKD
ROOT
HETATM    1  N   UNK A   0      -6.873  13.276  70.728  1.00  0.00     0.347 NA 
HETATM    2  C   UNK A   0      -7.139  12.298  69.800  1.00  0.00     0.481 A  
HETATM    3  H2  UNK A   0      -6.590  13.037  71.678  1.00  0.00     0.000 HD 
HETATM    4  H1  UNK A   0      -6.968  14.248  70.435  1.00  0.00     0.000 HD 
HETATM    5  N   UNK A   0      -7.015  11.031  70.182  1.00  0.00    -0.142 NA 
HETATM    6  C   UNK A   0      -7.190  10.085  69.261  1.00  0.00    -0.078 A  
HETATM    7  N   UNK A   0      -6.983   8.814  69.623  1.00  0.00    -0.049 NA 
HETATM    8  C   UNK A   0      -7.057   7.857  68.668  1.00  0.00    -0.076 A  
HETATM    9  C   UNK A   0      -7.356   8.137  67.343  1.00  0.00    -0.089 A  
HETATM   10  H2  UNK A   0      -8.928  11.697  66.145  1.00  0.00     0.000 HD 
HETATM   11  N   UNK A   0      -7.624   9.406  66.966  1.00  0.00    -0.091 NA 
HETATM   12  H1  UNK A   0      -8.155  13.158  66.194  1.00  0.00     0.000 HD 
HETATM   13  C   UNK A   0      -7.525  10.369  67.933  1.00  0.00    -0.087 A  
HETATM   14  C   UNK A   0      -7.663  11.726  67.668  1.00  0.00    -0.137 A  
HETATM   15  N   UNK A   0      -8.054  12.162  66.389  1.00  0.00     0.111 NA 
HETATM   16  N   UNK A   0      -7.476  12.693  68.576  1.00  0.00    -0.121 NA 
ENDROOT
BRANCH   9  17
HETATM   17  C   UNK A   0      -7.269   7.088  66.260  1.00  0.00    -0.075 C  
HETATM   18  C   UNK A   0      -7.830   8.829  64.485  1.00  0.00    -0.129 A  
HETATM   19  C   UNK A   0      -9.224   8.648  64.437  1.00  0.00     0.601 A  
HETATM   20  C   UNK A   0      -7.309  10.112  64.266  1.00  0.00    -0.110 A  
HETATM   21  C   UNK A   0      -6.891   7.682  64.872  1.00  0.00    -0.051 C  
HETATM   22  C   UNK A   0      -8.162  11.208  64.126  1.00  0.00     0.514 A  
HETATM   23  C   UNK A   0     -10.080   9.744  64.295  1.00  0.00     0.652 A  
HETATM   24  C   UNK A   0      -6.867   6.619  63.757  1.00  0.00    -0.053 C  
HETATM   25  C   UNK A   0      -9.546  11.032  64.201  1.00  0.00    -0.306 A  
BRANCH  24  26
HETATM   26  C   UNK A   0      -5.914   5.522  64.003  1.00  0.00    -0.021 C  
HETATM   27  C   UNK A   0      -5.163   4.624  64.272  1.00  0.00    -0.012 C  
ENDBRANCH  24  26
BRANCH  25  28
HETATM   28  C   UNK A   0     -10.461  12.200  64.214  1.00  0.00    -0.339 C  
HETATM   29  O   UNK A   0     -11.052  12.552  63.201  1.00  0.00    -0.366 OA 
ATOM     30  N   GLU A   1     -10.636  12.817  65.451  1.00  0.00    -0.281 N  
ATOM     31  H   GLU A   1     -10.062  12.543  66.249  1.00  0.00     0.000 HD 
BRANCH  30  32
ATOM     32  CA  GLU A   1     -11.661  13.872  65.596  1.00  0.00    -0.333 C  
ATOM     33  O   GLU A   1      -9.844  15.203  64.717  1.00  0.00    -0.077 OA 
ATOM     34  C   GLU A   1     -11.192  15.140  64.856  1.00  0.00    -0.417 C  
ATOM     35  OXT GLU A   1     -11.922  16.075  64.558  1.00  0.00    -0.201 OA 
BRANCH  32  36
ATOM     36  CB  GLU A   1     -11.893  14.190  67.083  1.00  0.00    -0.454 C  
BRANCH  36  37
ATOM     37  CG  GLU A   1     -10.956  15.276  67.625  1.00  0.00    -0.311 C  
ATOM     38  CD  GLU A   1     -10.711  15.150  69.108  1.00  0.00    -0.253 C  
ATOM     39  OE2 GLU A   1     -11.195  14.297  69.833  1.00  0.00    -0.228 OA 
ATOM     40  OE1 GLU A   1      -9.867  16.101  69.569  1.00  0.00    -0.246 OA 
ENDBRANCH  36  37
ENDBRANCH  32  36
ENDBRANCH  30  32
ENDBRANCH  25  28
ENDBRANCH   9  17
TORSDOF 6
ENDMDL
MODEL      211
REMARK 921   NORMALIZED FREE ENERGY PREDICTED BY IDOCK:    1.73 KCAL/MOL
REMARK 922        TOTAL FREE ENERGY PREDICTED BY IDOCK:    0.93 KCAL/MOL
REMARK 923 INTER-LIGAND FREE ENERGY PREDICTED BY IDOCK:    1.97 KCAL/MOL
REMARK 924 INTRA-LIGAND FREE ENERGY PREDICTED BY IDOCK:   -1.04 KCAL/MOL
REMARK 927      BINDING AFFINITY PREDICTED BY RF-SCORE:    0.00 PKD
ROOT
HETATM    1  N   UNK A   0     -10.611  15.846  63.248  1.00  0.00     2.880 NA 
HETATM    2  C   UNK A   0     -11.222  15.598  64.454  1.00  0.00    -0.236 A  
HETATM    3  H2  UNK A   0      -9.981  16.638  63.130  1.00  0.00     0.000 HD 
HETATM    4  H1  UNK A   0     -10.809  15.210  62.476  1.00  0.00     0.000 HD 
HETATM    5  N   UNK A   0     -10.963  16.427  65.461  1.00  0.00    -0.185 NA 
HETATM    6  C   UNK A   0     -11.486  16.139  66.651  1.00  0.00     0.494 A  
HETATM    7  N   UNK A   0     -11.159  16.923  67.684  1.00  0.00    -0.153 NA 
HETATM    8  C   UNK A   0     -11.603  16.577  68.916  1.00  0.00    -0.037 A  
HETATM    9  C   UNK A   0     -12.393  15.462  69.146  1.00  0.00    -0.052 A  
HETATM   10  H2  UNK A   0     -14.295  13.457  66.154  1.00  0.00     0.000 HD 
HETATM   11  N   UNK A   0     -12.783  14.687  68.110  1.00  0.00     0.609 NA 
HETATM   12  H1  UNK A   0     -13.558  12.588  64.955  1.00  0.00     0.000 HD 
HETATM   13  C   UNK A   0     -12.311  15.031  66.872  1.00  0.00     0.490 A  
HETATM   14  C   UNK A   0     -12.537  14.265  65.735  1.00  0.00    -0.384 A  
HETATM   15  N   UNK A   0     -13.393  13.151  65.789  1.00  0.00     0.027 NA 
HETATM   16  N   UNK A   0     -12.007  14.528  64.533  1.00  0.00    -0.463 NA 
ENDROOT
BRANCH   9  17
HETATM   17  C   UNK A   0     -12.739  14.994  70.539  1.00  0.00    -0.406 C  
HETATM   18  C   UNK A   0     -11.361  12.875  70.204  1.00  0.00     0.166 A  
HETATM   19  C   UNK A   0     -12.381  12.022  69.750  1.00  0.00    -0.112 A  
HETATM   20  C   UNK A   0     -10.063  12.700  69.703  1.00  0.00     1.220 A  
HETATM   21  C   UNK A   0     -11.662  14.048  71.144  1.00  0.00     0.030 C  
HETATM   22  C   UNK A   0      -9.815  11.777  68.685  1.00  0.00    -0.153 A  
HETATM   23  C   UNK A   0     -12.136  11.096  68.732  1.00  0.00    -0.232 A  
HETATM   24  C   UNK A   0     -12.048  13.520  72.539  1.00  0.00     1.042 C  
HETATM   25  C   UNK A   0     -10.864  11.019  68.158  1.00  0.00    -0.274 A  
BRANCH  24  26
HETATM   26  C   UNK A   0     -12.262  14.584  73.537  1.00  0.00    -0.177 C  
HETATM   27  C   UNK A   0     -12.506  15.456  74.326  1.00  0.00    -0.761 C  
ENDBRANCH  24  26
BRANCH  25  28
HETATM   28  C   UNK A   0     -10.654  10.151  66.972  1.00  0.00    -0.225 C  
HETATM   29  O   UNK A   0     -11.228  10.377  65.914  1.00  0.00     0.315 OA 
ATOM     30  N   GLU A   1      -9.733   9.119  67.134  1.00  0.00    -0.170 N  
ATOM     31  H   GLU A   1      -9.341   8.918  68.055  1.00  0.00     0.000 HD 
BRANCH  30  32
ATOM     32  CA  GLU A   1      -9.330   8.317  65.960  1.00  0.00    -0.149 C  
ATOM     33  O   GLU A   1      -8.361   6.965  67.714  1.00  0.00    -0.119 OA 
ATOM     34  C   GLU A   1      -8.813   6.945  66.435  1.00  0.00    -0.145 C  
ATOM     35  OXT GLU A   1      -8.670   5.972  65.708  1.00  0.00    -0.151 OA 
BRANCH  32  36
ATOM     36  CB  GLU A   1      -8.230   9.046  65.169  1.00  0.00    -0.147 C  
BRANCH  36  37
ATOM     37  CG  GLU A   1      -7.516  10.132  65.982  1.00  0.00    -0.118 C  
ATOM     38  CD  GLU A   1      -6.224  10.583  65.348  1.00  0.00    -0.110 C  
ATOM     39  OE2 GLU A   1      -5.761  10.149  64.307  1.00  0.00    -0.108 OA 
ATOM     40  OE1 GLU A   1      -5.615  11.556  66.064  1.00  0.00    -0.233 OA 
ENDBRANCH  36  37
ENDBRANCH  32  36
ENDBRANCH  30  32
ENDBRANCH  25  28
ENDBRANCH   9  17
TORSDOF 6
ENDMDL
MODEL      212
REMARK 921   NORMALIZED FREE ENERGY PREDICTED BY IDOCK:    1.75 KCAL/MOL
REMARK 922        TOTAL FREE ENERGY PREDICTED BY IDOCK:    0.95 KCAL/MOL
REMARK 923 INTER-LIGAND FREE ENERGY PREDICTED BY IDOCK:    0.21 KCAL/MOL
REMARK 924 INTRA-LIGAND FREE ENERGY PREDICTED BY IDOCK:    0.74 KCAL/MOL
REMARK 927      BINDING AFFINITY PREDICTED BY RF-SCORE:    0.00 PKD
ROOT
HETATM    1  N   UNK A   0     -12.891  15.795  67.930  1.00  0.00     1.369 NA 
HETATM    2  C   UNK A   0     -12.233  14.600  67.761  1.00  0.00    -0.047 A  
HETATM    3  H2  UNK A   0     -12.736  16.369  68.758  1.00  0.00     0.000 HD 
HETATM    4  H1  UNK A   0     -13.538  16.088  67.199  1.00  0.00     0.000 HD 
HETATM    5  N   UNK A   0     -11.388  14.218  68.714  1.00  0.00    -0.259 NA 
HETATM    6  C   UNK A   0     -10.687  13.104  68.511  1.00  0.00    -0.259 A  
HETATM    7  N   UNK A   0      -9.776  12.763  69.429  1.00  0.00     0.796 NA 
HETATM    8  C   UNK A   0      -8.988  11.691  69.180  1.00  0.00     0.354 A  
HETATM    9  C   UNK A   0      -9.099  10.925  68.030  1.00  0.00    -0.152 A  
HETATM   10  H2  UNK A   0     -12.323  11.132  65.551  1.00  0.00     0.000 HD 
HETATM   11  N   UNK A   0     -10.049  11.216  67.116  1.00  0.00    -0.186 NA 
HETATM   12  H1  UNK A   0     -12.746  12.437  64.626  1.00  0.00     0.000 HD 
HETATM   13  C   UNK A   0     -10.827  12.316  67.365  1.00  0.00    -0.239 A  
HETATM   14  C   UNK A   0     -11.766  12.799  66.462  1.00  0.00    -0.400 A  
HETATM   15  N   UNK A   0     -12.057  12.081  65.289  1.00  0.00    -0.392 NA 
HETATM   16  N   UNK A   0     -12.469  13.926  66.640  1.00  0.00    -0.358 NA 
ENDROOT
BRANCH   9  17
HETATM   17  C   UNK A   0      -8.107   9.840  67.687  1.00  0.00    -0.113 C  
HETATM   18  C   UNK A   0      -6.165  11.399  68.231  1.00  0.00    -0.045 A  
HETATM   19  C   UNK A   0      -5.930  11.911  66.943  1.00  0.00    -0.115 A  
HETATM   20  C   UNK A   0      -5.944  12.231  69.337  1.00  0.00    -0.100 A  
HETATM   21  C   UNK A   0      -6.753   9.999  68.437  1.00  0.00    -0.055 C  
HETATM   22  C   UNK A   0      -5.616  13.576  69.158  1.00  0.00    -0.075 A  
HETATM   23  C   UNK A   0      -5.599  13.256  66.760  1.00  0.00     1.529 A  
HETATM   24  C   UNK A   0      -5.720   8.928  68.036  1.00  0.00    -0.039 C  
HETATM   25  C   UNK A   0      -5.503  14.102  67.868  1.00  0.00    -0.083 A  
BRANCH  24  26
HETATM   26  C   UNK A   0      -6.168   7.547  68.293  1.00  0.00    -0.036 C  
HETATM   27  C   UNK A   0      -6.600   6.443  68.483  1.00  0.00    -0.055 C  
ENDBRANCH  24  26
BRANCH  25  28
HETATM   28  C   UNK A   0      -5.313  15.559  67.655  1.00  0.00    -0.054 C  
HETATM   29  O   UNK A   0      -5.129  16.015  66.534  1.00  0.00     0.057 OA 
ATOM     30  N   GLU A   1      -5.413  16.354  68.794  1.00  0.00    -0.115 N  
ATOM     31  H   GLU A   1      -5.485  15.925  69.717  1.00  0.00     0.000 HD 
BRANCH  30  32
ATOM     32  CA  GLU A   1      -5.414  17.825  68.652  1.00  0.00    -0.157 C  
ATOM     33  O   GLU A   1      -7.420  17.554  69.973  1.00  0.00     0.835 OA 
ATOM     34  C   GLU A   1      -6.443  18.430  69.628  1.00  0.00    -0.143 C  
ATOM     35  OXT GLU A   1      -6.483  19.610  69.945  1.00  0.00    -0.321 OA 
BRANCH  32  36
ATOM     36  CB  GLU A   1      -5.768  18.222  67.208  1.00  0.00    -0.145 C  
BRANCH  36  37
ATOM     37  CG  GLU A   1      -7.150  18.873  67.079  1.00  0.00    -0.217 C  
ATOM     38  CD  GLU A   1      -8.028  18.184  66.063  1.00  0.00    -0.115 C  
ATOM     39  OE2 GLU A   1      -7.706  17.219  65.392  1.00  0.00     0.020 OA 
ATOM     40  OE1 GLU A   1      -9.251  18.755  65.974  1.00  0.00    -0.476 OA 
ENDBRANCH  36  37
ENDBRANCH  32  36
ENDBRANCH  30  32
ENDBRANCH  25  28
ENDBRANCH   9  17
TORSDOF 6
ENDMDL
MODEL      213
REMARK 921   NORMALIZED FREE ENERGY PREDICTED BY IDOCK:    1.85 KCAL/MOL
REMARK 922        TOTAL FREE ENERGY PREDICTED BY IDOCK:    1.08 KCAL/MOL
REMARK 923 INTER-LIGAND FREE ENERGY PREDICTED BY IDOCK:    1.40 KCAL/MOL
REMARK 924 INTRA-LIGAND FREE ENERGY PREDICTED BY IDOCK:   -0.31 KCAL/MOL
REMARK 927      BINDING AFFINITY PREDICTED BY RF-SCORE:    0.00 PKD
ROOT
HETATM    1  N   UNK A   0      -5.607  13.756  72.373  1.00  0.00    -0.435 NA 
HETATM    2  C   UNK A   0      -6.162  13.144  71.275  1.00  0.00     0.939 A  
HETATM    3  H2  UNK A   0      -4.655  13.543  72.669  1.00  0.00     0.000 HD 
HETATM    4  H1  UNK A   0      -6.179  14.430  72.881  1.00  0.00     0.000 HD 
HETATM    5  N   UNK A   0      -5.417  12.266  70.612  1.00  0.00    -0.154 NA 
HETATM    6  C   UNK A   0      -5.923  11.737  69.500  1.00  0.00    -0.092 A  
HETATM    7  N   UNK A   0      -5.142  10.918  68.786  1.00  0.00    -0.041 NA 
HETATM    8  C   UNK A   0      -5.611  10.459  67.601  1.00  0.00    -0.044 A  
HETATM    9  C   UNK A   0      -6.867  10.786  67.111  1.00  0.00    -0.086 A  
HETATM   10  H2  UNK A   0      -9.772  12.449  69.430  1.00  0.00     0.000 HD 
HETATM   11  N   UNK A   0      -7.694  11.565  67.841  1.00  0.00    -0.114 NA 
HETATM   12  H1  UNK A   0      -9.727  13.963  70.094  1.00  0.00     0.000 HD 
HETATM   13  C   UNK A   0      -7.203  12.043  69.026  1.00  0.00    -0.053 A  
HETATM   14  C   UNK A   0      -7.896  12.943  69.826  1.00  0.00     1.559 A  
HETATM   15  N   UNK A   0      -9.218  13.302  69.507  1.00  0.00     1.170 NA 
HETATM   16  N   UNK A   0      -7.399  13.498  70.939  1.00  0.00     2.194 NA 
ENDROOT
BRANCH   9  17
HETATM   17  C   UNK A   0      -7.309  10.407  65.718  1.00  0.00    -0.147 C  
HETATM   18  C   UNK A   0      -9.231   9.029  66.668  1.00  0.00    -0.211 A  
HETATM   19  C   UNK A   0      -8.595   7.776  66.721  1.00  0.00    -0.133 A  
HETATM   20  C   UNK A   0     -10.183   9.343  67.649  1.00  0.00    -0.281 A  
HETATM   21  C   UNK A   0      -8.829  10.084  65.633  1.00  0.00    -0.184 C  
HETATM   22  C   UNK A   0     -10.404   8.480  68.724  1.00  0.00    -0.233 A  
HETATM   23  C   UNK A   0      -8.816   6.909  67.795  1.00  0.00    -0.119 A  
HETATM   24  C   UNK A   0      -9.265   9.635  64.225  1.00  0.00    -0.235 C  
HETATM   25  C   UNK A   0      -9.676   7.292  68.828  1.00  0.00    -0.151 A  
BRANCH  24  26
HETATM   26  C   UNK A   0      -9.003  10.637  63.175  1.00  0.00    -0.244 C  
HETATM   27  C   UNK A   0      -8.718  11.453  62.341  1.00  0.00    -0.099 C  
ENDBRANCH  24  26
BRANCH  25  28
HETATM   28  C   UNK A   0      -9.780   6.440  70.039  1.00  0.00    -0.165 C  
HETATM   29  O   UNK A   0     -10.301   6.859  71.065  1.00  0.00    -0.204 OA 
ATOM     30  N   GLU A   1      -9.300   5.139  69.905  1.00  0.00    -0.135 N  
ATOM     31  H   GLU A   1      -8.801   4.858  69.061  1.00  0.00     0.000 HD 
BRANCH  30  32
ATOM     32  CA  GLU A   1      -9.522   4.170  70.998  1.00  0.00    -0.163 C  
ATOM     33  O   GLU A   1      -7.698   5.435  71.956  1.00  0.00    -0.097 OA 
ATOM     34  C   GLU A   1      -8.750   4.630  72.251  1.00  0.00    -0.119 C  
ATOM     35  OXT GLU A   1      -8.949   4.204  73.379  1.00  0.00    -0.103 OA 
BRANCH  32  36
ATOM     36  CB  GLU A   1      -9.045   2.769  70.575  1.00  0.00    -0.190 C  
BRANCH  36  37
ATOM     37  CG  GLU A   1      -7.679   2.779  69.878  1.00  0.00    -0.045 C  
ATOM     38  CD  GLU A   1      -7.786   2.631  68.380  1.00  0.00    -0.054 C  
ATOM     39  OE2 GLU A   1      -8.826   2.506  67.757  1.00  0.00    -0.102 OA 
ATOM     40  OE1 GLU A   1      -6.576   2.663  67.776  1.00  0.00    -0.035 OA 
ENDBRANCH  36  37
ENDBRANCH  32  36
ENDBRANCH  30  32
ENDBRANCH  25  28
ENDBRANCH   9  17
TORSDOF 6
ENDMDL
MODEL      214
REMARK 921   NORMALIZED FREE ENERGY PREDICTED BY IDOCK:    2.78 KCAL/MOL
REMARK 922        TOTAL FREE ENERGY PREDICTED BY IDOCK:    2.34 KCAL/MOL
REMARK 923 INTER-LIGAND FREE ENERGY PREDICTED BY IDOCK:    2.79 KCAL/MOL
REMARK 924 INTRA-LIGAND FREE ENERGY PREDICTED BY IDOCK:   -0.45 KCAL/MOL
REMARK 927      BINDING AFFINITY PREDICTED BY RF-SCORE:    0.00 PKD
ROOT
HETATM    1  N   UNK A   0      -5.623  13.289  72.144  1.00  0.00    -0.418 NA 
HETATM    2  C   UNK A   0      -6.189  12.668  71.056  1.00  0.00     0.903 A  
HETATM    3  H2  UNK A   0      -4.647  13.131  72.392  1.00  0.00     0.000 HD 
HETATM    4  H1  UNK A   0      -6.212  13.915  72.693  1.00  0.00     0.000 HD 
HETATM    5  N   UNK A   0      -5.421  11.853  70.340  1.00  0.00    -0.126 NA 
HETATM    6  C   UNK A   0      -5.943  11.318  69.238  1.00  0.00    -0.053 A  
HETATM    7  N   UNK A   0      -5.147  10.566  68.470  1.00  0.00    -0.035 NA 
HETATM    8  C   UNK A   0      -5.640  10.105  67.296  1.00  0.00    -0.042 A  
HETATM    9  C   UNK A   0      -6.934  10.361  66.870  1.00  0.00    -0.093 A  
HETATM   10  H2  UNK A   0      -9.828  11.785  69.356  1.00  0.00     0.000 HD 
HETATM   11  N   UNK A   0      -7.774  11.071  67.655  1.00  0.00    -0.110 NA 
HETATM   12  H1  UNK A   0      -9.848  13.284  70.055  1.00  0.00     0.000 HD 
HETATM   13  C   UNK A   0      -7.260  11.552  68.829  1.00  0.00    -0.112 A  
HETATM   14  C   UNK A   0      -7.971  12.389  69.680  1.00  0.00     1.364 A  
HETATM   15  N   UNK A   0      -9.326  12.669  69.430  1.00  0.00     0.983 NA 
HETATM   16  N   UNK A   0      -7.459  12.950  70.784  1.00  0.00     3.123 NA 
ENDROOT
BRANCH   9  17
HETATM   17  C   UNK A   0      -7.416   9.986  65.489  1.00  0.00    -0.137 C  
HETATM   18  C   UNK A   0      -8.853   8.120  66.463  1.00  0.00    -0.173 A  
HETATM   19  C   UNK A   0      -7.939   7.058  66.346  1.00  0.00    -0.109 A  
HETATM   20  C   UNK A   0      -9.747   8.124  67.543  1.00  0.00    -0.207 A  
HETATM   21  C   UNK A   0      -8.818   9.311  65.500  1.00  0.00    -0.224 C  
HETATM   22  C   UNK A   0      -9.648   7.159  68.548  1.00  0.00    -0.139 A  
HETATM   23  C   UNK A   0      -7.840   6.090  67.349  1.00  0.00    -0.102 A  
HETATM   24  C   UNK A   0      -9.277   8.871  64.097  1.00  0.00     0.473 C  
HETATM   25  C   UNK A   0      -8.656   6.178  68.480  1.00  0.00    -0.113 A  
BRANCH  24  26
HETATM   26  C   UNK A   0      -9.366   9.977  63.127  1.00  0.00    -0.297 C  
HETATM   27  C   UNK A   0      -9.373  10.904  62.362  1.00  0.00    -0.252 C  
ENDBRANCH  24  26
BRANCH  25  28
HETATM   28  C   UNK A   0      -8.432   5.244  69.612  1.00  0.00    -0.098 C  
HETATM   29  O   UNK A   0      -8.015   4.108  69.421  1.00  0.00    -0.057 OA 
ATOM     30  N   GLU A   1      -8.674   5.763  70.881  1.00  0.00    -0.133 N  
ATOM     31  H   GLU A   1      -9.098   6.685  70.988  1.00  0.00     0.000 HD 
BRANCH  30  32
ATOM     32  CA  GLU A   1      -8.310   4.965  72.071  1.00  0.00    -0.123 C  
ATOM     33  O   GLU A   1     -10.235   3.708  71.325  1.00  0.00    -0.043 OA 
ATOM     34  C   GLU A   1      -9.090   3.636  72.050  1.00  0.00    -0.108 C  
ATOM     35  OXT GLU A   1      -8.810   2.661  72.731  1.00  0.00    -0.073 OA 
BRANCH  32  36
ATOM     36  CB  GLU A   1      -8.638   5.744  73.357  1.00  0.00    -0.117 C  
BRANCH  36  37
ATOM     37  CG  GLU A   1      -9.773   6.760  73.177  1.00  0.00    -0.189 C  
ATOM     38  CD  GLU A   1      -9.271   8.166  72.963  1.00  0.00    -0.273 C  
ATOM     39  OE2 GLU A   1      -8.099   8.500  72.937  1.00  0.00    -0.341 OA 
ATOM     40  OE1 GLU A   1     -10.282   9.048  72.785  1.00  0.00     0.244 OA 
ENDBRANCH  36  37
ENDBRANCH  32  36
ENDBRANCH  30  32
ENDBRANCH  25  28
ENDBRANCH   9  17
TORSDOF 6
ENDMDL
MODEL      215
REMARK 921   NORMALIZED FREE ENERGY PREDICTED BY IDOCK:    3.13 KCAL/MOL
REMARK 922        TOTAL FREE ENERGY PREDICTED BY IDOCK:    2.81 KCAL/MOL
REMARK 923 INTER-LIGAND FREE ENERGY PREDICTED BY IDOCK:    3.70 KCAL/MOL
REMARK 924 INTRA-LIGAND FREE ENERGY PREDICTED BY IDOCK:   -0.89 KCAL/MOL
REMARK 927      BINDING AFFINITY PREDICTED BY RF-SCORE:    0.00 PKD
ROOT
HETATM    1  N   UNK A   0      -5.188  13.838  66.780  1.00  0.00     0.757 NA 
HETATM    2  C   UNK A   0      -6.377  14.308  67.284  1.00  0.00     0.412 A  
HETATM    3  H2  UNK A   0      -4.579  13.240  67.338  1.00  0.00     0.000 HD 
HETATM    4  H1  UNK A   0      -4.936  14.107  65.829  1.00  0.00     0.000 HD 
HETATM    5  N   UNK A   0      -6.707  13.957  68.523  1.00  0.00    -0.091 NA 
HETATM    6  C   UNK A   0      -7.896  14.341  68.981  1.00  0.00    -0.045 A  
HETATM    7  N   UNK A   0      -8.265  13.918  70.195  1.00  0.00     1.719 NA 
HETATM    8  C   UNK A   0      -9.514  14.218  70.625  1.00  0.00     2.848 A  
HETATM    9  C   UNK A   0     -10.413  14.957  69.871  1.00  0.00    -0.084 A  
HETATM   10  H2  UNK A   0      -9.290  17.135  66.619  1.00  0.00     0.000 HD 
HETATM   11  N   UNK A   0     -10.043  15.442  68.666  1.00  0.00    -0.207 NA 
HETATM   12  H1  UNK A   0      -8.726  16.517  65.192  1.00  0.00     0.000 HD 
HETATM   13  C   UNK A   0      -8.787  15.115  68.230  1.00  0.00    -0.173 A  
HETATM   14  C   UNK A   0      -8.313  15.449  66.968  1.00  0.00    -0.236 A  
HETATM   15  N   UNK A   0      -9.073  16.272  66.119  1.00  0.00    -0.329 NA 
HETATM   16  N   UNK A   0      -7.126  15.059  66.483  1.00  0.00     0.716 NA 
ENDROOT
BRANCH   9  17
HETATM   17  C   UNK A   0     -11.853  15.139  70.287  1.00  0.00    -0.352 C  
HETATM   18  C   UNK A   0     -12.169  12.612  70.412  1.00  0.00    -0.368 A  
HETATM   19  C   UNK A   0     -12.656  12.390  69.112  1.00  0.00     0.626 A  
HETATM   20  C   UNK A   0     -11.382  11.622  71.015  1.00  0.00     1.436 A  
HETATM   21  C   UNK A   0     -12.394  13.947  71.129  1.00  0.00    -0.440 C  
HETATM   22  C   UNK A   0     -10.987  10.493  70.294  1.00  0.00    -0.306 A  
HETATM   23  C   UNK A   0     -12.265  11.260  68.388  1.00  0.00     0.106 A  
HETATM   24  C   UNK A   0     -13.882  14.105  71.497  1.00  0.00    -0.385 C  
HETATM   25  C   UNK A   0     -11.379  10.342  68.962  1.00  0.00    -0.279 A  
BRANCH  24  26
HETATM   26  C   UNK A   0     -14.175  15.322  72.277  1.00  0.00    -0.642 C  
HETATM   27  C   UNK A   0     -14.341  16.325  72.916  1.00  0.00     0.552 C  
ENDBRANCH  24  26
BRANCH  25  28
HETATM   28  C   UNK A   0     -10.843   9.235  68.132  1.00  0.00    -0.090 C  
HETATM   29  O   UNK A   0     -10.992   9.227  66.916  1.00  0.00    -0.067 OA 
ATOM     30  N   GLU A   1     -10.126   8.258  68.818  1.00  0.00    -0.195 N  
ATOM     31  H   GLU A   1     -10.098   8.261  69.838  1.00  0.00     0.000 HD 
BRANCH  30  32
ATOM     32  CA  GLU A   1      -9.408   7.216  68.055  1.00  0.00    -0.129 C  
ATOM     33  O   GLU A   1     -11.151   5.857  69.035  1.00  0.00    -0.336 OA 
ATOM     34  C   GLU A   1     -10.267   5.937  68.008  1.00  0.00    -0.184 C  
ATOM     35  OXT GLU A   1     -10.082   5.009  67.234  1.00  0.00    -0.182 OA 
BRANCH  32  36
ATOM     36  CB  GLU A   1      -8.051   6.912  68.713  1.00  0.00    -0.121 C  
BRANCH  36  37
ATOM     37  CG  GLU A   1      -8.042   7.160  70.226  1.00  0.00    -0.118 C  
ATOM     38  CD  GLU A   1      -6.653   7.136  70.814  1.00  0.00    -0.048 C  
ATOM     39  OE2 GLU A   1      -5.626   6.935  70.189  1.00  0.00    -0.022 OA 
ATOM     40  OE1 GLU A   1      -6.657   7.377  72.145  1.00  0.00    -0.050 OA 
ENDBRANCH  36  37
ENDBRANCH  32  36
ENDBRANCH  30  32
ENDBRANCH  25  28
ENDBRANCH   9  17
TORSDOF 6
ENDMDL
MODEL      216
REMARK 921   NORMALIZED FREE ENERGY PREDICTED BY IDOCK:    3.39 KCAL/MOL
REMARK 922        TOTAL FREE ENERGY PREDICTED BY IDOCK:    3.16 KCAL/MOL
REMARK 923 INTER-LIGAND FREE ENERGY PREDICTED BY IDOCK:    0.43 KCAL/MOL
REMARK 924 INTRA-LIGAND FREE ENERGY PREDICTED BY IDOCK:    2.74 KCAL/MOL
REMARK 927      BINDING AFFINITY PREDICTED BY RF-SCORE:    0.00 PKD
ROOT
HETATM    1  N   UNK A   0     -11.167   9.861  62.658  1.00  0.00     2.500 NA 
HETATM    2  C   UNK A   0     -10.426  10.494  63.627  1.00  0.00     0.249 A  
HETATM    3  H2  UNK A   0     -11.283   8.848  62.662  1.00  0.00     0.000 HD 
HETATM    4  H1  UNK A   0     -11.596  10.438  61.935  1.00  0.00     0.000 HD 
HETATM    5  N   UNK A   0      -9.867   9.741  64.569  1.00  0.00    -0.077 NA 
HETATM    6  C   UNK A   0      -9.221  10.360  65.556  1.00  0.00    -0.184 A  
HETATM    7  N   UNK A   0      -8.730   9.610  66.549  1.00  0.00    -0.133 NA 
HETATM    8  C   UNK A   0      -8.164  10.240  67.606  1.00  0.00    -0.114 A  
HETATM    9  C   UNK A   0      -8.055  11.619  67.691  1.00  0.00    -0.140 A  
HETATM   10  H2  UNK A   0      -8.585  14.071  64.483  1.00  0.00     0.000 HD 
HETATM   11  N   UNK A   0      -8.493  12.394  66.675  1.00  0.00    -0.095 NA 
HETATM   12  H1  UNK A   0     -10.010  14.314  63.680  1.00  0.00     0.000 HD 
HETATM   13  C   UNK A   0      -9.084  11.750  65.620  1.00  0.00    -0.028 A  
HETATM   14  C   UNK A   0      -9.678  12.422  64.560  1.00  0.00     0.038 A  
HETATM   15  N   UNK A   0      -9.574  13.821  64.458  1.00  0.00     0.387 NA 
HETATM   16  N   UNK A   0     -10.346  11.819  63.567  1.00  0.00    -0.409 NA 
ENDROOT
BRANCH   9  17
HETATM   17  C   UNK A   0      -7.578  12.313  68.945  1.00  0.00     0.021 C  
HETATM   18  C   UNK A   0      -6.555  10.139  69.796  1.00  0.00    -0.080 A  
HETATM   19  C   UNK A   0      -7.638   9.674  70.561  1.00  0.00    -0.151 A  
HETATM   20  C   UNK A   0      -5.733   9.203  69.152  1.00  0.00    -0.036 A  
HETATM   21  C   UNK A   0      -6.324  11.636  69.569  1.00  0.00    -0.122 C  
HETATM   22  C   UNK A   0      -6.057   7.845  69.171  1.00  0.00    -0.035 A  
HETATM   23  C   UNK A   0      -7.964   8.315  70.583  1.00  0.00    -0.094 A  
HETATM   24  C   UNK A   0      -5.879  12.307  70.883  1.00  0.00     0.095 C  
HETATM   25  C   UNK A   0      -7.205   7.409  69.836  1.00  0.00    -0.081 A  
BRANCH  24  26
HETATM   26  C   UNK A   0      -5.541  13.734  70.736  1.00  0.00    -0.180 C  
HETATM   27  C   UNK A   0      -5.338  14.912  70.612  1.00  0.00    -0.133 C  
ENDBRANCH  24  26
BRANCH  25  28
HETATM   28  C   UNK A   0      -7.653   5.997  69.735  1.00  0.00    -0.081 C  
HETATM   29  O   UNK A   0      -8.279   5.600  68.760  1.00  0.00    -0.102 OA 
ATOM     30  N   GLU A   1      -7.268   5.165  70.784  1.00  0.00    -0.062 N  
ATOM     31  H   GLU A   1      -6.820   5.555  71.613  1.00  0.00     0.000 HD 
BRANCH  30  32
ATOM     32  CA  GLU A   1      -7.516   3.711  70.683  1.00  0.00    -0.041 C  
ATOM     33  O   GLU A   1      -5.239   3.782  69.873  1.00  0.00    -0.007 OA 
ATOM     34  C   GLU A   1      -6.179   2.984  70.439  1.00  0.00    -0.023 C  
ATOM     35  OXT GLU A   1      -6.011   1.782  70.585  1.00  0.00    -0.017 OA 
BRANCH  32  36
ATOM     36  CB  GLU A   1      -8.490   3.415  69.529  1.00  0.00    -0.097 C  
BRANCH  36  37
ATOM     37  CG  GLU A   1      -8.005   2.299  68.597  1.00  0.00    -0.062 C  
ATOM     38  CD  GLU A   1      -8.334   2.563  67.148  1.00  0.00    -0.086 C  
ATOM     39  OE2 GLU A   1      -8.927   3.541  66.727  1.00  0.00    -0.129 OA 
ATOM     40  OE1 GLU A   1      -7.882   1.582  66.334  1.00  0.00    -0.067 OA 
ENDBRANCH  36  37
ENDBRANCH  32  36
ENDBRANCH  30  32
ENDBRANCH  25  28
ENDBRANCH   9  17
TORSDOF 6
ENDMDL
MODEL      217
REMARK 921   NORMALIZED FREE ENERGY PREDICTED BY IDOCK:    3.54 KCAL/MOL
REMARK 922        TOTAL FREE ENERGY PREDICTED BY IDOCK:    3.37 KCAL/MOL
REMARK 923 INTER-LIGAND FREE ENERGY PREDICTED BY IDOCK:    0.82 KCAL/MOL
REMARK 924 INTRA-LIGAND FREE ENERGY PREDICTED BY IDOCK:    2.55 KCAL/MOL
REMARK 927      BINDING AFFINITY PREDICTED BY RF-SCORE:    0.00 PKD
ROOT
HETATM    1  N   UNK A   0     -12.055  12.868  71.642  1.00  0.00     0.177 NA 
HETATM    2  C   UNK A   0     -11.910  11.517  71.846  1.00  0.00     1.995 A  
HETATM    3  H2  UNK A   0     -11.360  13.399  71.119  1.00  0.00     0.000 HD 
HETATM    4  H1  UNK A   0     -12.881  13.321  72.032  1.00  0.00     0.000 HD 
HETATM    5  N   UNK A   0     -10.834  10.926  71.337  1.00  0.00     1.995 NA 
HETATM    6  C   UNK A   0     -10.736   9.603  71.460  1.00  0.00    -0.067 A  
HETATM    7  N   UNK A   0      -9.697   8.996  70.876  1.00  0.00    -0.240 NA 
HETATM    8  C   UNK A   0      -9.645   7.644  70.908  1.00  0.00    -0.164 A  
HETATM    9  C   UNK A   0     -10.609   6.868  71.534  1.00  0.00    -0.217 A  
HETATM   10  H2  UNK A   0     -13.322   8.414  74.148  1.00  0.00     0.000 HD 
HETATM   11  N   UNK A   0     -11.637   7.461  72.179  1.00  0.00    -0.283 NA 
HETATM   12  H1  UNK A   0     -14.537   9.470  73.765  1.00  0.00     0.000 HD 
HETATM   13  C   UNK A   0     -11.693   8.828  72.123  1.00  0.00    -0.363 A  
HETATM   14  C   UNK A   0     -12.750   9.565  72.642  1.00  0.00     0.037 A  
HETATM   15  N   UNK A   0     -13.761   8.929  73.384  1.00  0.00     0.208 NA 
HETATM   16  N   UNK A   0     -12.875  10.893  72.515  1.00  0.00     0.389 NA 
ENDROOT
BRANCH   9  17
HETATM   17  C   UNK A   0     -10.631   5.363  71.418  1.00  0.00    -0.282 C  
HETATM   18  C   UNK A   0      -8.520   5.411  69.989  1.00  0.00    -0.111 A  
HETATM   19  C   UNK A   0      -9.120   5.439  68.717  1.00  0.00    -0.135 A  
HETATM   20  C   UNK A   0      -7.306   6.086  70.176  1.00  0.00    -0.078 A  
HETATM   21  C   UNK A   0      -9.218   4.754  71.184  1.00  0.00    -0.192 C  
HETATM   22  C   UNK A   0      -6.766   6.870  69.155  1.00  0.00    -0.053 A  
HETATM   23  C   UNK A   0      -8.580   6.221  67.692  1.00  0.00    -0.114 A  
HETATM   24  C   UNK A   0      -9.252   3.225  71.001  1.00  0.00    -0.199 C  
HETATM   25  C   UNK A   0      -7.435   6.986  67.934  1.00  0.00    -0.099 A  
BRANCH  24  26
HETATM   26  C   UNK A   0      -9.821   2.501  72.152  1.00  0.00    -0.226 C  
HETATM   27  C   UNK A   0     -10.279   1.973  73.129  1.00  0.00    -0.195 C  
ENDBRANCH  24  26
BRANCH  25  28
HETATM   28  C   UNK A   0      -6.964   7.935  66.895  1.00  0.00    -0.073 C  
HETATM   29  O   UNK A   0      -5.811   7.904  66.486  1.00  0.00    -0.038 OA 
ATOM     30  N   GLU A   1      -7.927   8.808  66.393  1.00  0.00    -0.101 N  
ATOM     31  H   GLU A   1      -8.852   8.855  66.821  1.00  0.00     0.000 HD 
BRANCH  30  32
ATOM     32  CA  GLU A   1      -7.595   9.665  65.236  1.00  0.00    -0.113 C  
ATOM     33  O   GLU A   1      -8.380   7.702  64.063  1.00  0.00    -0.030 OA 
ATOM     34  C   GLU A   1      -8.184   9.041  63.956  1.00  0.00    -0.167 C  
ATOM     35  OXT GLU A   1      -8.320   9.637  62.897  1.00  0.00    -0.142 OA 
BRANCH  32  36
ATOM     36  CB  GLU A   1      -6.069   9.804  65.096  1.00  0.00    -0.086 C  
BRANCH  36  37
ATOM     37  CG  GLU A   1      -5.540  11.169  65.552  1.00  0.00     0.093 C  
ATOM     38  CD  GLU A   1      -5.690  11.388  67.037  1.00  0.00    -0.106 C  
ATOM     39  OE2 GLU A   1      -6.181  10.594  67.821  1.00  0.00    -0.054 OA 
ATOM     40  OE1 GLU A   1      -5.201  12.587  67.429  1.00  0.00    -0.147 OA 
ENDBRANCH  36  37
ENDBRANCH  32  36
ENDBRANCH  30  32
ENDBRANCH  25  28
ENDBRANCH   9  17
TORSDOF 6
ENDMDL
MODEL      218
REMARK 921   NORMALIZED FREE ENERGY PREDICTED BY IDOCK:    4.13 KCAL/MOL
REMARK 922        TOTAL FREE ENERGY PREDICTED BY IDOCK:    4.17 KCAL/MOL
REMARK 923 INTER-LIGAND FREE ENERGY PREDICTED BY IDOCK:    2.76 KCAL/MOL
REMARK 924 INTRA-LIGAND FREE ENERGY PREDICTED BY IDOCK:    1.40 KCAL/MOL
REMARK 927      BINDING AFFINITY PREDICTED BY RF-SCORE:    0.00 PKD
ROOT
HETATM    1  N   UNK A   0      -5.427  17.373  63.658  1.00  0.00     2.569 NA 
HETATM    2  C   UNK A   0      -6.264  17.553  64.733  1.00  0.00     2.134 A  
HETATM    3  H2  UNK A   0      -4.906  16.506  63.535  1.00  0.00     0.000 HD 
HETATM    4  H1  UNK A   0      -5.345  18.137  62.987  1.00  0.00     0.000 HD 
HETATM    5  N   UNK A   0      -6.372  16.557  65.607  1.00  0.00     1.486 NA 
HETATM    6  C   UNK A   0      -7.247  16.696  66.601  1.00  0.00    -0.241 A  
HETATM    7  N   UNK A   0      -7.419  15.662  67.432  1.00  0.00    -0.185 NA 
HETATM    8  C   UNK A   0      -8.380  15.757  68.381  1.00  0.00    -0.164 A  
HETATM    9  C   UNK A   0      -9.175  16.883  68.538  1.00  0.00    -0.260 A  
HETATM   10  H2  UNK A   0      -8.281  20.466  66.822  1.00  0.00     0.000 HD 
HETATM   11  N   UNK A   0      -8.982  17.960  67.747  1.00  0.00    -0.251 NA 
HETATM   12  H1  UNK A   0      -8.288  20.787  65.200  1.00  0.00     0.000 HD 
HETATM   13  C   UNK A   0      -8.023  17.847  66.776  1.00  0.00    -0.233 A  
HETATM   14  C   UNK A   0      -7.792  18.829  65.821  1.00  0.00     0.070 A  
HETATM   15  N   UNK A   0      -8.457  20.066  65.901  1.00  0.00    -0.244 NA 
HETATM   16  N   UNK A   0      -6.928  18.702  64.804  1.00  0.00     0.166 NA 
ENDROOT
BRANCH   9  17
HETATM   17  C   UNK A   0     -10.351  16.911  69.485  1.00  0.00    -0.189 C  
HETATM   18  C   UNK A   0     -10.661  14.394  69.226  1.00  0.00    -0.190 A  
HETATM   19  C   UNK A   0     -11.602  14.397  68.183  1.00  0.00    -0.360 A  
HETATM   20  C   UNK A   0      -9.730  13.348  69.291  1.00  0.00     0.583 A  
HETATM   21  C   UNK A   0     -10.569  15.557  70.220  1.00  0.00    -0.324 C  
HETATM   22  C   UNK A   0      -9.661  12.397  68.271  1.00  0.00    -0.218 A  
HETATM   23  C   UNK A   0     -11.537  13.445  67.161  1.00  0.00    -0.399 A  
HETATM   24  C   UNK A   0     -11.808  15.569  71.135  1.00  0.00    -0.435 C  
HETATM   25  C   UNK A   0     -10.525  12.481  67.177  1.00  0.00    -0.237 A  
BRANCH  24  26
HETATM   26  C   UNK A   0     -11.758  16.600  72.188  1.00  0.00    -0.168 C  
HETATM   27  C   UNK A   0     -11.697  17.388  73.093  1.00  0.00     0.914 C  
ENDBRANCH  24  26
BRANCH  25  28
HETATM   28  C   UNK A   0     -10.365  11.578  66.010  1.00  0.00    -0.246 C  
HETATM   29  O   UNK A   0     -10.501  11.993  64.866  1.00  0.00    -0.264 OA 
ATOM     30  N   GLU A   1     -10.002  10.266  66.306  1.00  0.00    -0.224 N  
ATOM     31  H   GLU A   1      -9.981   9.944  67.274  1.00  0.00     0.000 HD 
BRANCH  30  32
ATOM     32  CA  GLU A   1      -9.649   9.347  65.204  1.00  0.00    -0.124 C  
ATOM     33  O   GLU A   1      -8.865   8.038  67.080  1.00  0.00    -0.127 OA 
ATOM     34  C   GLU A   1      -9.283   7.969  65.790  1.00  0.00    -0.005 C  
ATOM     35  OXT GLU A   1      -9.217   6.937  65.138  1.00  0.00     0.387 OA 
BRANCH  32  36
ATOM     36  CB  GLU A   1      -8.461   9.906  64.402  1.00  0.00    -0.183 C  
BRANCH  36  37
ATOM     37  CG  GLU A   1      -7.154   9.948  65.203  1.00  0.00    -0.129 C  
ATOM     38  CD  GLU A   1      -6.306   8.717  65.001  1.00  0.00    -0.061 C  
ATOM     39  OE2 GLU A   1      -6.598   7.768  64.294  1.00  0.00    -0.055 OA 
ATOM     40  OE1 GLU A   1      -5.147   8.775  65.696  1.00  0.00    -0.030 OA 
ENDBRANCH  36  37
ENDBRANCH  32  36
ENDBRANCH  30  32
ENDBRANCH  25  28
ENDBRANCH   9  17
TORSDOF 6
ENDMDL
MODEL      219
REMARK 921   NORMALIZED FREE ENERGY PREDICTED BY IDOCK:    4.31 KCAL/MOL
REMARK 922        TOTAL FREE ENERGY PREDICTED BY IDOCK:    4.41 KCAL/MOL
REMARK 923 INTER-LIGAND FREE ENERGY PREDICTED BY IDOCK:    5.57 KCAL/MOL
REMARK 924 INTRA-LIGAND FREE ENERGY PREDICTED BY IDOCK:   -1.16 KCAL/MOL
REMARK 927      BINDING AFFINITY PREDICTED BY RF-SCORE:    0.00 PKD
ROOT
HETATM    1  N   UNK A   0      -5.192  13.835  66.778  1.00  0.00     0.757 NA 
HETATM    2  C   UNK A   0      -6.372  14.323  67.285  1.00  0.00     0.412 A  
HETATM    3  H2  UNK A   0      -4.585  13.238  67.339  1.00  0.00     0.000 HD 
HETATM    4  H1  UNK A   0      -4.944  14.090  65.822  1.00  0.00     0.000 HD 
HETATM    5  N   UNK A   0      -6.696  13.991  68.531  1.00  0.00    -0.090 NA 
HETATM    6  C   UNK A   0      -7.879  14.393  68.992  1.00  0.00    -0.077 A  
HETATM    7  N   UNK A   0      -8.243  13.989  70.214  1.00  0.00     1.783 NA 
HETATM    8  C   UNK A   0      -9.485  14.306  70.650  1.00  0.00     2.848 A  
HETATM    9  C   UNK A   0     -10.382  15.044  69.893  1.00  0.00    -0.120 A  
HETATM   10  H2  UNK A   0      -9.262  17.171  66.605  1.00  0.00     0.000 HD 
HETATM   11  N   UNK A   0     -10.017  15.511  68.679  1.00  0.00    -0.203 NA 
HETATM   12  H1  UNK A   0      -8.715  16.529  65.183  1.00  0.00     0.000 HD 
HETATM   13  C   UNK A   0      -8.767  15.167  68.238  1.00  0.00    -0.171 A  
HETATM   14  C   UNK A   0      -8.299  15.479  66.968  1.00  0.00    -0.232 A  
HETATM   15  N   UNK A   0      -9.058  16.300  66.115  1.00  0.00    -0.329 NA 
HETATM   16  N   UNK A   0      -7.120  15.071  66.479  1.00  0.00     0.716 NA 
ENDROOT
BRANCH   9  17
HETATM   17  C   UNK A   0     -11.818  15.246  70.317  1.00  0.00    -0.353 C  
HETATM   18  C   UNK A   0     -12.146  12.726  70.517  1.00  0.00    -0.369 A  
HETATM   19  C   UNK A   0     -12.646  12.469  69.229  1.00  0.00     0.546 A  
HETATM   20  C   UNK A   0     -11.357  11.749  71.141  1.00  0.00     1.899 A  
HETATM   21  C   UNK A   0     -12.357  14.082  71.198  1.00  0.00    -0.443 C  
HETATM   22  C   UNK A   0     -10.975  10.598  70.449  1.00  0.00    -0.162 A  
HETATM   23  C   UNK A   0     -12.267  11.316  68.534  1.00  0.00     0.032 A  
HETATM   24  C   UNK A   0     -13.840  14.259  71.575  1.00  0.00    -0.428 C  
HETATM   25  C   UNK A   0     -11.381  10.411  69.126  1.00  0.00    -0.286 A  
BRANCH  24  26
HETATM   26  C   UNK A   0     -14.119  15.498  72.322  1.00  0.00    -0.637 C  
HETATM   27  C   UNK A   0     -14.361  16.467  72.991  1.00  0.00     0.902 C  
ENDBRANCH  24  26
BRANCH  25  28
HETATM   28  C   UNK A   0     -10.858   9.278  68.323  1.00  0.00    -0.080 C  
HETATM   29  O   UNK A   0     -11.614   8.539  67.704  1.00  0.00     1.153 OA 
ATOM     30  N   GLU A   1      -9.471   9.154  68.283  1.00  0.00    -0.142 N  
ATOM     31  H   GLU A   1      -8.885   9.740  68.878  1.00  0.00     0.000 HD 
BRANCH  30  32
ATOM     32  CA  GLU A   1      -8.858   8.168  67.369  1.00  0.00    -0.127 C  
ATOM     33  O   GLU A   1      -7.406   7.892  69.282  1.00  0.00    -0.078 OA 
ATOM     34  C   GLU A   1      -7.872   7.286  68.161  1.00  0.00    -0.118 C  
ATOM     35  OXT GLU A   1      -7.424   6.221  67.761  1.00  0.00    -0.089 OA 
BRANCH  32  36
ATOM     36  CB  GLU A   1      -8.118   8.885  66.227  1.00  0.00    -0.110 C  
BRANCH  36  37
ATOM     37  CG  GLU A   1      -8.924   8.945  64.924  1.00  0.00    -0.128 C  
ATOM     38  CD  GLU A   1      -9.429  10.332  64.612  1.00  0.00    -0.293 C  
ATOM     39  OE2 GLU A   1      -9.244  11.321  65.300  1.00  0.00    -0.218 OA 
ATOM     40  OE1 GLU A   1     -10.121  10.374  63.450  1.00  0.00    -0.200 OA 
ENDBRANCH  36  37
ENDBRANCH  32  36
ENDBRANCH  30  32
ENDBRANCH  25  28
ENDBRANCH   9  17
TORSDOF 6
ENDMDL
MODEL      220
REMARK 921   NORMALIZED FREE ENERGY PREDICTED BY IDOCK:    4.68 KCAL/MOL
REMARK 922        TOTAL FREE ENERGY PREDICTED BY IDOCK:    4.91 KCAL/MOL
REMARK 923 INTER-LIGAND FREE ENERGY PREDICTED BY IDOCK:    6.36 KCAL/MOL
REMARK 924 INTRA-LIGAND FREE ENERGY PREDICTED BY IDOCK:   -1.45 KCAL/MOL
REMARK 927      BINDING AFFINITY PREDICTED BY RF-SCORE:    0.00 PKD
ROOT
HETATM    1  N   UNK A   0      -5.524  12.382  72.101  1.00  0.00    -0.202 NA 
HETATM    2  C   UNK A   0      -6.177  12.011  70.951  1.00  0.00     0.750 A  
HETATM    3  H2  UNK A   0      -4.518  12.249  72.202  1.00  0.00     0.000 HD 
HETATM    4  H1  UNK A   0      -6.078  12.795  72.851  1.00  0.00     0.000 HD 
HETATM    5  N   UNK A   0      -5.454  11.473  69.973  1.00  0.00    -0.082 NA 
HETATM    6  C   UNK A   0      -6.071  11.193  68.827  1.00  0.00    -0.043 A  
HETATM    7  N   UNK A   0      -5.329  10.731  67.815  1.00  0.00    -0.040 NA 
HETATM    8  C   UNK A   0      -5.929  10.542  66.616  1.00  0.00    -0.071 A  
HETATM    9  C   UNK A   0      -7.277  10.787  66.401  1.00  0.00    -0.138 A  
HETATM   10  H2  UNK A   0      -9.935  11.283  69.446  1.00  0.00     0.000 HD 
HETATM   11  N   UNK A   0      -8.058  11.200  67.423  1.00  0.00    -0.128 NA 
HETATM   12  H1  UNK A   0      -9.957  12.548  70.511  1.00  0.00     0.000 HD 
HETATM   13  C   UNK A   0      -7.437  11.410  68.626  1.00  0.00    -0.119 A  
HETATM   14  C   UNK A   0      -8.090  11.940  69.732  1.00  0.00     1.532 A  
HETATM   15  N   UNK A   0      -9.478  12.159  69.699  1.00  0.00     1.395 NA 
HETATM   16  N   UNK A   0      -7.484  12.244  70.888  1.00  0.00     3.899 NA 
ENDROOT
BRANCH   9  17
HETATM   17  C   UNK A   0      -7.895  10.735  65.025  1.00  0.00     0.112 C  
HETATM   18  C   UNK A   0      -8.772   8.384  65.473  1.00  0.00    -0.196 A  
HETATM   19  C   UNK A   0      -7.703   7.647  64.934  1.00  0.00    -0.107 A  
HETATM   20  C   UNK A   0      -9.462   7.861  66.575  1.00  0.00    -0.277 A  
HETATM   21  C   UNK A   0      -9.122   9.781  64.949  1.00  0.00    -0.278 C  
HETATM   22  C   UNK A   0      -9.020   6.694  67.200  1.00  0.00    -0.118 A  
HETATM   23  C   UNK A   0      -7.259   6.477  65.556  1.00  0.00    -0.073 A  
HETATM   24  C   UNK A   0      -9.710   9.680  63.528  1.00  0.00     0.602 C  
HETATM   25  C   UNK A   0      -7.882   6.035  66.726  1.00  0.00    -0.101 A  
BRANCH  24  26
HETATM   26  C   UNK A   0     -10.165  10.971  62.981  1.00  0.00    -0.232 C  
HETATM   27  C   UNK A   0     -10.557  12.041  62.603  1.00  0.00     0.951 C  
ENDBRANCH  24  26
BRANCH  25  28
HETATM   28  C   UNK A   0      -7.303   4.887  67.468  1.00  0.00    -0.078 C  
HETATM   29  O   UNK A   0      -6.302   4.312  67.061  1.00  0.00    -0.038 OA 
ATOM     30  N   GLU A   1      -7.938   4.558  68.663  1.00  0.00    -0.078 N  
ATOM     31  H   GLU A   1      -8.816   5.010  68.922  1.00  0.00     0.000 HD 
BRANCH  30  32
ATOM     32  CA  GLU A   1      -7.328   3.548  69.553  1.00  0.00    -0.048 C  
ATOM     33  O   GLU A   1      -9.466   3.804  70.652  1.00  0.00    -0.142 OA 
ATOM     34  C   GLU A   1      -8.414   2.965  70.479  1.00  0.00    -0.056 C  
ATOM     35  OXT GLU A   1      -8.290   1.933  71.123  1.00  0.00    -0.049 OA 
BRANCH  32  36
ATOM     36  CB  GLU A   1      -6.208   4.185  70.394  1.00  0.00    -0.019 C  
BRANCH  36  37
ATOM     37  CG  GLU A   1      -6.655   5.447  71.142  1.00  0.00    -0.043 C  
ATOM     38  CD  GLU A   1      -6.234   5.447  72.591  1.00  0.00    -0.046 C  
ATOM     39  OE2 GLU A   1      -5.614   4.556  73.145  1.00  0.00    -0.007 OA 
ATOM     40  OE1 GLU A   1      -6.616   6.575  73.234  1.00  0.00    -0.067 OA 
ENDBRANCH  36  37
ENDBRANCH  32  36
ENDBRANCH  30  32
ENDBRANCH  25  28
ENDBRANCH   9  17
TORSDOF 6
ENDMDL
MODEL      221
REMARK 921   NORMALIZED FREE ENERGY PREDICTED BY IDOCK:    5.19 KCAL/MOL
REMARK 922        TOTAL FREE ENERGY PREDICTED BY IDOCK:    5.60 KCAL/MOL
REMARK 923 INTER-LIGAND FREE ENERGY PREDICTED BY IDOCK:    3.35 KCAL/MOL
REMARK 924 INTRA-LIGAND FREE ENERGY PREDICTED BY IDOCK:    2.25 KCAL/MOL
REMARK 927      BINDING AFFINITY PREDICTED BY RF-SCORE:    0.00 PKD
ROOT
HETATM    1  N   UNK A   0      -9.362   8.516  73.022  1.00  0.00    -0.218 NA 
HETATM    2  C   UNK A   0      -9.145   8.902  71.721  1.00  0.00    -0.171 A  
HETATM    3  H2  UNK A   0      -9.644   9.191  73.732  1.00  0.00     0.000 HD 
HETATM    4  H1  UNK A   0      -9.233   7.531  73.253  1.00  0.00     0.000 HD 
HETATM    5  N   UNK A   0      -9.315  10.185  71.420  1.00  0.00     1.431 NA 
HETATM    6  C   UNK A   0      -9.189  10.545  70.144  1.00  0.00     0.652 A  
HETATM    7  N   UNK A   0      -9.442  11.819  69.826  1.00  0.00     1.397 NA 
HETATM    8  C   UNK A   0      -9.416  12.169  68.518  1.00  0.00    -0.122 A  
HETATM    9  C   UNK A   0      -9.121  11.271  67.504  1.00  0.00    -0.151 A  
HETATM   10  H2  UNK A   0      -7.422   7.637  68.207  1.00  0.00     0.000 HD 
HETATM   11  N   UNK A   0      -8.807   9.993  67.806  1.00  0.00    -0.125 NA 
HETATM   12  H1  UNK A   0      -8.137   6.377  69.005  1.00  0.00     0.000 HD 
HETATM   13  C   UNK A   0      -8.857   9.643  69.129  1.00  0.00    -0.157 A  
HETATM   14  C   UNK A   0      -8.668   8.341  69.575  1.00  0.00    -0.138 A  
HETATM   15  N   UNK A   0      -8.275   7.333  68.677  1.00  0.00    -0.124 NA 
HETATM   16  N   UNK A   0      -8.807   7.956  70.851  1.00  0.00    -0.136 NA 
ENDROOT
BRANCH   9  17
HETATM   17  C   UNK A   0      -9.262  11.631  66.044  1.00  0.00    -0.218 C  
HETATM   18  C   UNK A   0     -10.147   9.299  65.521  1.00  0.00     0.150 A  
HETATM   19  C   UNK A   0      -8.934   8.680  65.170  1.00  0.00    -0.111 A  
HETATM   20  C   UNK A   0     -11.135   8.533  66.156  1.00  0.00     2.356 A  
HETATM   21  C   UNK A   0     -10.362  10.802  65.320  1.00  0.00    -0.327 C  
HETATM   22  C   UNK A   0     -10.873   7.217  66.541  1.00  0.00     0.273 A  
HETATM   23  C   UNK A   0      -8.670   7.362  65.552  1.00  0.00    -0.051 A  
HETATM   24  C   UNK A   0     -10.458  11.126  63.817  1.00  0.00    -0.444 C  
HETATM   25  C   UNK A   0      -9.620   6.652  66.293  1.00  0.00    -0.092 A  
BRANCH  24  26
HETATM   26  C   UNK A   0     -10.761  12.540  63.532  1.00  0.00    -0.417 C  
HETATM   27  C   UNK A   0     -11.072  13.684  63.336  1.00  0.00     0.863 C  
ENDBRANCH  24  26
BRANCH  25  28
HETATM   28  C   UNK A   0      -9.267   5.315  66.832  1.00  0.00    -0.121 C  
HETATM   29  O   UNK A   0     -10.103   4.423  66.909  1.00  0.00    -0.209 OA 
ATOM     30  N   GLU A   1      -7.931   5.139  67.185  1.00  0.00    -0.100 N  
ATOM     31  H   GLU A   1      -7.289   5.932  67.182  1.00  0.00     0.000 HD 
BRANCH  30  32
ATOM     32  CA  GLU A   1      -7.453   3.792  67.563  1.00  0.00    -0.067 C  
ATOM     33  O   GLU A   1      -8.259   4.546  69.715  1.00  0.00    -0.063 OA 
ATOM     34  C   GLU A   1      -7.973   3.446  68.973  1.00  0.00    -0.053 C  
ATOM     35  OXT GLU A   1      -7.986   2.319  69.445  1.00  0.00    -0.042 OA 
BRANCH  32  36
ATOM     36  CB  GLU A   1      -5.915   3.748  67.548  1.00  0.00    -0.024 C  
BRANCH  36  37
ATOM     37  CG  GLU A   1      -5.309   4.202  66.214  1.00  0.00    -0.013 C  
ATOM     38  CD  GLU A   1      -6.037   3.637  65.019  1.00  0.00    -0.023 C  
ATOM     39  OE2 GLU A   1      -7.000   2.892  65.068  1.00  0.00    -0.047 OA 
ATOM     40  OE1 GLU A   1      -5.505   4.062  63.850  1.00  0.00    -0.012 OA 
ENDBRANCH  36  37
ENDBRANCH  32  36
ENDBRANCH  30  32
ENDBRANCH  25  28
ENDBRANCH   9  17
TORSDOF 6
ENDMDL
MODEL      222
REMARK 921   NORMALIZED FREE ENERGY PREDICTED BY IDOCK:    5.89 KCAL/MOL
REMARK 922        TOTAL FREE ENERGY PREDICTED BY IDOCK:    6.55 KCAL/MOL
REMARK 923 INTER-LIGAND FREE ENERGY PREDICTED BY IDOCK:    4.20 KCAL/MOL
REMARK 924 INTRA-LIGAND FREE ENERGY PREDICTED BY IDOCK:    2.35 KCAL/MOL
REMARK 927      BINDING AFFINITY PREDICTED BY RF-SCORE:    0.00 PKD
ROOT
HETATM    1  N   UNK A   0      -5.809  15.899  71.055  1.00  0.00     0.219 NA 
HETATM    2  C   UNK A   0      -6.234  14.592  71.033  1.00  0.00     0.059 A  
HETATM    3  H2  UNK A   0      -5.076  16.204  71.694  1.00  0.00     0.000 HD 
HETATM    4  H1  UNK A   0      -6.252  16.553  70.410  1.00  0.00     0.000 HD 
HETATM    5  N   UNK A   0      -5.657  13.739  71.874  1.00  0.00    -0.363 NA 
HETATM    6  C   UNK A   0      -6.006  12.457  71.794  1.00  0.00     1.474 A  
HETATM    7  N   UNK A   0      -5.366  11.584  72.580  1.00  0.00     0.006 NA 
HETATM    8  C   UNK A   0      -5.643  10.267  72.432  1.00  0.00     0.438 A  
HETATM    9  C   UNK A   0      -6.570   9.791  71.518  1.00  0.00     0.337 A  
HETATM   10  H2  UNK A   0      -9.299  12.200  69.692  1.00  0.00     0.000 HD 
HETATM   11  N   UNK A   0      -7.269  10.657  70.753  1.00  0.00     0.254 NA 
HETATM   12  H1  UNK A   0      -8.954  13.392  68.598  1.00  0.00     0.000 HD 
HETATM   13  C   UNK A   0      -6.968  11.985  70.895  1.00  0.00     3.042 A  
HETATM   14  C   UNK A   0      -7.524  12.978  70.097  1.00  0.00     1.890 A  
HETATM   15  N   UNK A   0      -8.546  12.663  69.184  1.00  0.00     0.531 NA 
HETATM   16  N   UNK A   0      -7.174  14.270  70.151  1.00  0.00     0.224 NA 
ENDROOT
BRANCH   9  17
HETATM   17  C   UNK A   0      -6.746   8.316  71.244  1.00  0.00    -0.050 C  
HETATM   18  C   UNK A   0      -7.011   8.778  68.751  1.00  0.00    -0.063 A  
HETATM   19  C   UNK A   0      -8.413   8.874  68.696  1.00  0.00    -0.128 A  
HETATM   20  C   UNK A   0      -6.247   9.570  67.882  1.00  0.00    -0.053 A  
HETATM   21  C   UNK A   0      -6.313   7.913  69.805  1.00  0.00    -0.030 C  
HETATM   22  C   UNK A   0      -6.861  10.523  67.067  1.00  0.00    -0.087 A  
HETATM   23  C   UNK A   0      -9.031   9.825  67.879  1.00  0.00    -0.119 A  
HETATM   24  C   UNK A   0      -6.553   6.421  69.507  1.00  0.00    -0.048 C  
HETATM   25  C   UNK A   0      -8.248  10.691  67.110  1.00  0.00    -0.121 A  
BRANCH  24  26
HETATM   26  C   UNK A   0      -5.836   5.510  70.418  1.00  0.00    -0.021 C  
HETATM   27  C   UNK A   0      -5.280   4.807  71.217  1.00  0.00    -0.004 C  
ENDBRANCH  24  26
BRANCH  25  28
HETATM   28  C   UNK A   0      -8.903  11.800  66.373  1.00  0.00    -0.170 C  
HETATM   29  O   UNK A   0      -9.164  11.700  65.181  1.00  0.00    -0.130 OA 
ATOM     30  N   GLU A   1      -9.240  12.916  67.136  1.00  0.00    -0.217 N  
ATOM     31  H   GLU A   1      -8.930  12.990  68.105  1.00  0.00     0.000 HD 
BRANCH  30  32
ATOM     32  CA  GLU A   1     -10.051  13.991  66.527  1.00  0.00    -0.285 C  
ATOM     33  O   GLU A   1      -8.454  15.339  67.741  1.00  0.00    -0.144 OA 
ATOM     34  C   GLU A   1      -9.320  15.337  66.697  1.00  0.00    -0.260 C  
ATOM     35  OXT GLU A   1      -9.590  16.352  66.071  1.00  0.00    -0.307 OA 
BRANCH  32  36
ATOM     36  CB  GLU A   1     -11.435  14.059  67.195  1.00  0.00    -0.373 C  
BRANCH  36  37
ATOM     37  CG  GLU A   1     -11.421  13.623  68.665  1.00  0.00    -0.342 C  
ATOM     38  CD  GLU A   1     -11.791  14.739  69.610  1.00  0.00    -0.319 C  
ATOM     39  OE2 GLU A   1     -12.069  15.879  69.279  1.00  0.00    -0.329 OA 
ATOM     40  OE1 GLU A   1     -11.795  14.336  70.901  1.00  0.00    -0.311 OA 
ENDBRANCH  36  37
ENDBRANCH  32  36
ENDBRANCH  30  32
ENDBRANCH  25  28
ENDBRANCH   9  17
TORSDOF 6
ENDMDL
MODEL      223
REMARK 921   NORMALIZED FREE ENERGY PREDICTED BY IDOCK:    6.31 KCAL/MOL
REMARK 922        TOTAL FREE ENERGY PREDICTED BY IDOCK:    7.11 KCAL/MOL
REMARK 923 INTER-LIGAND FREE ENERGY PREDICTED BY IDOCK:    3.01 KCAL/MOL
REMARK 924 INTRA-LIGAND FREE ENERGY PREDICTED BY IDOCK:    4.09 KCAL/MOL
REMARK 927      BINDING AFFINITY PREDICTED BY RF-SCORE:    0.00 PKD
ROOT
HETATM    1  N   UNK A   0      -5.505  16.715  69.188  1.00  0.00    -0.132 NA 
HETATM    2  C   UNK A   0      -5.642  15.378  69.476  1.00  0.00    -0.103 A  
HETATM    3  H2  UNK A   0      -5.156  17.025  68.282  1.00  0.00     0.000 HD 
HETATM    4  H1  UNK A   0      -5.764  17.386  69.911  1.00  0.00     0.000 HD 
HETATM    5  N   UNK A   0      -5.304  14.504  68.534  1.00  0.00    -0.096 NA 
HETATM    6  C   UNK A   0      -5.517  13.213  68.781  1.00  0.00    -0.073 A  
HETATM    7  N   UNK A   0      -5.257  12.338  67.802  1.00  0.00    -0.071 NA 
HETATM    8  C   UNK A   0      -5.568  11.036  68.009  1.00  0.00    -0.042 A  
HETATM    9  C   UNK A   0      -6.123  10.573  69.192  1.00  0.00    -0.041 A  
HETATM   10  H2  UNK A   0      -6.155  12.773  72.618  1.00  0.00     0.000 HD 
HETATM   11  N   UNK A   0      -6.342  11.428  70.214  1.00  0.00    -0.232 NA 
HETATM   12  H1  UNK A   0      -7.008  14.170  72.860  1.00  0.00     0.000 HD 
HETATM   13  C   UNK A   0      -6.045  12.746  69.988  1.00  0.00    -0.112 A  
HETATM   14  C   UNK A   0      -6.322  13.752  70.905  1.00  0.00     0.209 A  
HETATM   15  N   UNK A   0      -6.804  13.431  72.186  1.00  0.00     3.115 NA 
HETATM   16  N   UNK A   0      -6.130  15.058  70.670  1.00  0.00    -0.085 NA 
ENDROOT
BRANCH   9  17
HETATM   17  C   UNK A   0      -6.620   9.156  69.346  1.00  0.00    -0.044 C  
HETATM   18  C   UNK A   0      -8.801   9.758  68.171  1.00  0.00    -0.119 A  
HETATM   19  C   UNK A   0      -9.577  10.070  69.300  1.00  0.00    -0.227 A  
HETATM   20  C   UNK A   0      -9.032  10.460  66.979  1.00  0.00    -0.150 A  
HETATM   21  C   UNK A   0      -7.648   8.752  68.249  1.00  0.00    -0.096 C  
HETATM   22  C   UNK A   0      -9.930  11.529  66.950  1.00  0.00    -0.231 A  
HETATM   23  C   UNK A   0     -10.479  11.138  69.273  1.00  0.00    -0.183 A  
HETATM   24  C   UNK A   0      -8.202   7.328  68.447  1.00  0.00    -0.125 C  
HETATM   25  C   UNK A   0     -10.608  11.905  68.112  1.00  0.00    -0.233 A  
BRANCH  24  26
HETATM   26  C   UNK A   0      -7.164   6.281  68.438  1.00  0.00    -0.085 C  
HETATM   27  C   UNK A   0      -6.319   5.432  68.357  1.00  0.00    -0.035 C  
ENDBRANCH  24  26
BRANCH  25  28
HETATM   28  C   UNK A   0     -11.443  13.132  68.142  1.00  0.00    -0.314 C  
HETATM   29  O   UNK A   0     -12.664  13.065  68.197  1.00  0.00     0.487 OA 
ATOM     30  N   GLU A   1     -10.745  14.337  68.160  1.00  0.00    -0.240 N  
ATOM     31  H   GLU A   1      -9.733  14.349  68.030  1.00  0.00     0.000 HD 
BRANCH  30  32
ATOM     32  CA  GLU A   1     -11.485  15.599  68.368  1.00  0.00    -0.369 C  
ATOM     33  O   GLU A   1     -13.114  14.037  69.236  1.00  0.00     0.747 OA 
ATOM     34  C   GLU A   1     -12.704  15.330  69.273  1.00  0.00     0.302 C  
ATOM     35  OXT GLU A   1     -13.342  16.201  69.846  1.00  0.00     0.576 OA 
BRANCH  32  36
ATOM     36  CB  GLU A   1     -11.952  16.173  67.019  1.00  0.00     1.139 C  
BRANCH  36  37
ATOM     37  CG  GLU A   1     -11.329  17.535  66.690  1.00  0.00     0.981 C  
ATOM     38  CD  GLU A   1      -9.987  17.415  66.010  1.00  0.00    -0.215 C  
ATOM     39  OE2 GLU A   1      -9.423  16.368  65.743  1.00  0.00    -0.464 OA 
ATOM     40  OE1 GLU A   1      -9.458  18.623  65.708  1.00  0.00    -0.423 OA 
ENDBRANCH  36  37
ENDBRANCH  32  36
ENDBRANCH  30  32
ENDBRANCH  25  28
ENDBRANCH   9  17
TORSDOF 6
ENDMDL
MODEL      224
REMARK 921   NORMALIZED FREE ENERGY PREDICTED BY IDOCK:    6.80 KCAL/MOL
REMARK 922        TOTAL FREE ENERGY PREDICTED BY IDOCK:    7.77 KCAL/MOL
REMARK 923 INTER-LIGAND FREE ENERGY PREDICTED BY IDOCK:   -1.34 KCAL/MOL
REMARK 924 INTRA-LIGAND FREE ENERGY PREDICTED BY IDOCK:    9.12 KCAL/MOL
REMARK 927      BINDING AFFINITY PREDICTED BY RF-SCORE:    0.00 PKD
ROOT
HETATM    1  N   UNK A   0     -11.925  12.577  62.956  1.00  0.00    -0.646 NA 
HETATM    2  C   UNK A   0     -11.035  11.682  63.499  1.00  0.00    -0.407 A  
HETATM    3  H2  UNK A   0     -11.871  12.842  61.973  1.00  0.00     0.000 HD 
HETATM    4  H1  UNK A   0     -12.641  12.967  63.568  1.00  0.00     0.000 HD 
HETATM    5  N   UNK A   0     -10.102  11.174  62.701  1.00  0.00    -0.073 NA 
HETATM    6  C   UNK A   0      -9.294  10.243  63.205  1.00  0.00    -0.306 A  
HETATM    7  N   UNK A   0      -8.410   9.669  62.381  1.00  0.00    -0.137 NA 
HETATM    8  C   UNK A   0      -7.657   8.651  62.860  1.00  0.00    -0.110 A  
HETATM    9  C   UNK A   0      -7.750   8.195  64.166  1.00  0.00    -0.136 A  
HETATM   10  H2  UNK A   0      -9.618  10.303  67.106  1.00  0.00     0.000 HD 
HETATM   11  N   UNK A   0      -8.594   8.796  65.031  1.00  0.00    -0.181 NA 
HETATM   12  H1  UNK A   0     -11.240  10.617  67.186  1.00  0.00     0.000 HD 
HETATM   13  C   UNK A   0      -9.368   9.810  64.533  1.00  0.00    -0.235 A  
HETATM   14  C   UNK A   0     -10.357  10.443  65.275  1.00  0.00    -0.197 A  
HETATM   15  N   UNK A   0     -10.514  10.152  66.642  1.00  0.00    -0.212 NA 
HETATM   16  N   UNK A   0     -11.191  11.369  64.782  1.00  0.00    -0.189 NA 
ENDROOT
BRANCH   9  17
HETATM   17  C   UNK A   0      -7.030   6.954  64.638  1.00  0.00    -0.058 C  
HETATM   18  C   UNK A   0      -8.814   6.556  66.415  1.00  0.00    -0.149 A  
HETATM   19  C   UNK A   0      -8.202   7.224  67.490  1.00  0.00    -0.113 A  
HETATM   20  C   UNK A   0     -10.213   6.568  66.323  1.00  0.00     0.082 A  
HETATM   21  C   UNK A   0      -7.983   5.916  65.297  1.00  0.00    -0.115 C  
HETATM   22  C   UNK A   0     -10.975   7.328  67.212  1.00  0.00    -0.284 A  
HETATM   23  C   UNK A   0      -8.963   7.984  68.382  1.00  0.00    -0.133 A  
HETATM   24  C   UNK A   0      -7.237   4.681  65.836  1.00  0.00    -0.076 C  
HETATM   25  C   UNK A   0     -10.345   8.084  68.203  1.00  0.00    -0.250 A  
BRANCH  24  26
HETATM   26  C   UNK A   0      -6.486   3.944  64.803  1.00  0.00    -0.042 C  
HETATM   27  C   UNK A   0      -5.823   3.398  63.963  1.00  0.00    -0.014 C  
ENDBRANCH  24  26
BRANCH  25  28
HETATM   28  C   UNK A   0     -11.122   9.020  69.054  1.00  0.00     0.136 C  
HETATM   29  O   UNK A   0     -11.750   8.619  70.025  1.00  0.00     0.055 OA 
ATOM     30  N   GLU A   1     -11.037  10.366  68.705  1.00  0.00    -0.277 N  
ATOM     31  H   GLU A   1     -10.569  10.645  67.842  1.00  0.00     0.000 HD 
BRANCH  30  32
ATOM     32  CA  GLU A   1     -11.630  11.384  69.596  1.00  0.00    -0.330 C  
ATOM     33  O   GLU A   1     -10.493  12.839  68.035  1.00  0.00    -0.214 OA 
ATOM     34  C   GLU A   1     -11.505  12.772  68.937  1.00  0.00    -0.305 C  
ATOM     35  OXT GLU A   1     -12.134  13.761  69.285  1.00  0.00    -0.334 OA 
BRANCH  32  36
ATOM     36  CB  GLU A   1     -10.912  11.385  70.957  1.00  0.00     2.169 C  
BRANCH  36  37
ATOM     37  CG  GLU A   1      -9.793  10.342  71.053  1.00  0.00     1.372 C  
ATOM     38  CD  GLU A   1      -8.723  10.533  70.006  1.00  0.00     0.487 C  
ATOM     39  OE2 GLU A   1      -8.719  11.405  69.154  1.00  0.00     0.017 OA 
ATOM     40  OE1 GLU A   1      -7.732   9.619  70.115  1.00  0.00    -0.135 OA 
ENDBRANCH  36  37
ENDBRANCH  32  36
ENDBRANCH  30  32
ENDBRANCH  25  28
ENDBRANCH   9  17
TORSDOF 6
ENDMDL
MODEL      225
REMARK 921   NORMALIZED FREE ENERGY PREDICTED BY IDOCK:    7.10 KCAL/MOL
REMARK 922        TOTAL FREE ENERGY PREDICTED BY IDOCK:    8.18 KCAL/MOL
REMARK 923 INTER-LIGAND FREE ENERGY PREDICTED BY IDOCK:    9.96 KCAL/MOL
REMARK 924 INTRA-LIGAND FREE ENERGY PREDICTED BY IDOCK:   -1.78 KCAL/MOL
REMARK 927      BINDING AFFINITY PREDICTED BY RF-SCORE:    0.00 PKD
ROOT
HETATM    1  N   UNK A   0     -12.734   4.845  70.767  1.00  0.00     6.958 NA 
HETATM    2  C   UNK A   0     -11.542   5.430  71.119  1.00  0.00     0.701 A  
HETATM    3  H2  UNK A   0     -13.621   5.200  71.123  1.00  0.00     0.000 HD 
HETATM    4  H1  UNK A   0     -12.703   4.044  70.136  1.00  0.00     0.000 HD 
HETATM    5  N   UNK A   0     -11.583   6.474  71.940  1.00  0.00    -0.297 NA 
HETATM    6  C   UNK A   0     -10.436   7.094  72.213  1.00  0.00    -0.209 A  
HETATM    7  N   UNK A   0     -10.486   8.195  72.971  1.00  0.00    -0.271 NA 
HETATM    8  C   UNK A   0      -9.340   8.889  73.168  1.00  0.00     0.899 A  
HETATM    9  C   UNK A   0      -8.121   8.496  72.636  1.00  0.00    -0.047 A  
HETATM   10  H2  UNK A   0      -7.481   4.773  71.114  1.00  0.00     0.000 HD 
HETATM   11  N   UNK A   0      -8.037   7.357  71.914  1.00  0.00    -0.097 NA 
HETATM   12  H1  UNK A   0      -8.184   4.155  69.751  1.00  0.00     0.000 HD 
HETATM   13  C   UNK A   0      -9.204   6.674  71.703  1.00  0.00    -0.145 A  
HETATM   14  C   UNK A   0      -9.288   5.551  70.889  1.00  0.00    -0.156 A  
HETATM   15  N   UNK A   0      -8.123   4.979  70.348  1.00  0.00    -0.084 NA 
HETATM   16  N   UNK A   0     -10.433   4.924  70.589  1.00  0.00    -0.159 NA 
ENDROOT
BRANCH   9  17
HETATM   17  C   UNK A   0      -6.889   9.365  72.720  1.00  0.00     0.796 C  
HETATM   18  C   UNK A   0      -7.094   9.951  70.247  1.00  0.00    -0.155 A  
HETATM   19  C   UNK A   0      -6.257   8.953  69.718  1.00  0.00    -0.035 A  
HETATM   20  C   UNK A   0      -8.202  10.370  69.497  1.00  0.00    -0.137 A  
HETATM   21  C   UNK A   0      -6.879  10.504  71.660  1.00  0.00     2.100 C  
HETATM   22  C   UNK A   0      -8.535   9.723  68.305  1.00  0.00    -0.114 A  
HETATM   23  C   UNK A   0      -6.588   8.305  68.524  1.00  0.00    -0.059 A  
HETATM   24  C   UNK A   0      -5.591  11.348  71.706  1.00  0.00     0.516 C  
HETATM   25  C   UNK A   0      -7.763   8.652  67.850  1.00  0.00    -0.102 A  
BRANCH  24  26
HETATM   26  C   UNK A   0      -5.355  12.000  73.006  1.00  0.00     0.864 C  
HETATM   27  C   UNK A   0      -5.207  12.587  74.044  1.00  0.00     0.367 C  
ENDBRANCH  24  26
BRANCH  25  28
HETATM   28  C   UNK A   0      -8.189   7.852  66.675  1.00  0.00    -0.119 C  
HETATM   29  O   UNK A   0      -8.728   8.381  65.711  1.00  0.00    -0.153 OA 
ATOM     30  N   GLU A   1      -7.885   6.493  66.727  1.00  0.00    -0.103 N  
ATOM     31  H   GLU A   1      -7.510   6.082  67.583  1.00  0.00     0.000 HD 
BRANCH  30  32
ATOM     32  CA  GLU A   1      -8.111   5.654  65.532  1.00  0.00    -0.123 C  
ATOM     33  O   GLU A   1      -9.780   4.707  67.001  1.00  0.00    -0.166 OA 
ATOM     34  C   GLU A   1      -9.428   4.872  65.701  1.00  0.00    -0.159 C  
ATOM     35  OXT GLU A   1     -10.023   4.317  64.789  1.00  0.00    -0.183 OA 
BRANCH  32  36
ATOM     36  CB  GLU A   1      -6.941   4.673  65.339  1.00  0.00    -0.062 C  
BRANCH  36  37
ATOM     37  CG  GLU A   1      -5.881   4.769  66.443  1.00  0.00    -0.022 C  
ATOM     38  CD  GLU A   1      -6.103   3.773  67.555  1.00  0.00    -0.028 C  
ATOM     39  OE2 GLU A   1      -7.019   2.970  67.609  1.00  0.00    -0.048 OA 
ATOM     40  OE1 GLU A   1      -5.150   3.855  68.511  1.00  0.00    -0.006 OA 
ENDBRANCH  36  37
ENDBRANCH  32  36
ENDBRANCH  30  32
ENDBRANCH  25  28
ENDBRANCH   9  17
TORSDOF 6
ENDMDL
MODEL      226
REMARK 921   NORMALIZED FREE ENERGY PREDICTED BY IDOCK:    7.62 KCAL/MOL
REMARK 922        TOTAL FREE ENERGY PREDICTED BY IDOCK:    8.89 KCAL/MOL
REMARK 923 INTER-LIGAND FREE ENERGY PREDICTED BY IDOCK:   10.06 KCAL/MOL
REMARK 924 INTRA-LIGAND FREE ENERGY PREDICTED BY IDOCK:   -1.17 KCAL/MOL
REMARK 927      BINDING AFFINITY PREDICTED BY RF-SCORE:    0.00 PKD
ROOT
HETATM    1  N   UNK A   0     -12.750   4.780  70.702  1.00  0.00     8.364 NA 
HETATM    2  C   UNK A   0     -11.557   5.370  71.045  1.00  0.00     0.784 A  
HETATM    3  H2  UNK A   0     -13.636   5.135  71.061  1.00  0.00     0.000 HD 
HETATM    4  H1  UNK A   0     -12.720   3.976  70.076  1.00  0.00     0.000 HD 
HETATM    5  N   UNK A   0     -11.597   6.419  71.861  1.00  0.00    -0.305 NA 
HETATM    6  C   UNK A   0     -10.450   7.042  72.125  1.00  0.00    -0.209 A  
HETATM    7  N   UNK A   0     -10.499   8.148  72.877  1.00  0.00    -0.328 NA 
HETATM    8  C   UNK A   0      -9.353   8.845  73.065  1.00  0.00     0.747 A  
HETATM    9  C   UNK A   0      -8.136   8.452  72.528  1.00  0.00    -0.116 A  
HETATM   10  H2  UNK A   0      -7.495   4.723  71.024  1.00  0.00     0.000 HD 
HETATM   11  N   UNK A   0      -8.053   7.309  71.813  1.00  0.00    -0.099 NA 
HETATM   12  H1  UNK A   0      -8.204   4.095  69.667  1.00  0.00     0.000 HD 
HETATM   13  C   UNK A   0      -9.220   6.623  71.610  1.00  0.00    -0.145 A  
HETATM   14  C   UNK A   0      -9.305   5.495  70.803  1.00  0.00    -0.163 A  
HETATM   15  N   UNK A   0      -8.141   4.923  70.260  1.00  0.00    -0.076 NA 
HETATM   16  N   UNK A   0     -10.450   4.863  70.512  1.00  0.00    -0.172 NA 
ENDROOT
BRANCH   9  17
HETATM   17  C   UNK A   0      -6.906   9.324  72.602  1.00  0.00     0.552 C  
HETATM   18  C   UNK A   0      -7.123   9.893  70.126  1.00  0.00    -0.146 A  
HETATM   19  C   UNK A   0      -6.286   8.894  69.600  1.00  0.00    -0.039 A  
HETATM   20  C   UNK A   0      -8.234  10.305  69.378  1.00  0.00    -0.171 A  
HETATM   21  C   UNK A   0      -6.903  10.456  71.534  1.00  0.00     1.552 C  
HETATM   22  C   UNK A   0      -8.572   9.650  68.191  1.00  0.00    -0.119 A  
HETATM   23  C   UNK A   0      -6.620   8.238  68.411  1.00  0.00    -0.060 A  
HETATM   24  C   UNK A   0      -5.617  11.304  71.569  1.00  0.00     0.280 C  
HETATM   25  C   UNK A   0      -7.798   8.578  67.741  1.00  0.00    -0.103 A  
BRANCH  24  26
HETATM   26  C   UNK A   0      -5.376  11.965  72.865  1.00  0.00     0.853 C  
HETATM   27  C   UNK A   0      -5.144  12.443  73.942  1.00  0.00     0.307 C  
ENDBRANCH  24  26
BRANCH  25  28
HETATM   28  C   UNK A   0      -8.227   7.769  66.572  1.00  0.00    -0.124 C  
HETATM   29  O   UNK A   0      -9.152   6.971  66.661  1.00  0.00    -0.141 OA 
ATOM     30  N   GLU A   1      -7.550   8.020  65.382  1.00  0.00    -0.079 N  
ATOM     31  H   GLU A   1      -6.733   8.632  65.373  1.00  0.00     0.000 HD 
BRANCH  30  32
ATOM     32  CA  GLU A   1      -8.026   7.393  64.131  1.00  0.00    -0.092 C  
ATOM     33  O   GLU A   1      -5.912   6.244  64.371  1.00  0.00    -0.022 OA 
ATOM     34  C   GLU A   1      -7.145   6.169  63.810  1.00  0.00    -0.053 C  
ATOM     35  OXT GLU A   1      -7.446   5.293  63.012  1.00  0.00    -0.047 OA 
BRANCH  32  36
ATOM     36  CB  GLU A   1      -7.964   8.401  62.971  1.00  0.00    -0.161 C  
BRANCH  36  37
ATOM     37  CG  GLU A   1      -7.383   9.760  63.379  1.00  0.00    -0.125 C  
ATOM     38  CD  GLU A   1      -5.901   9.866  63.116  1.00  0.00    -0.115 C  
ATOM     39  OE2 GLU A   1      -5.205   8.985  62.641  1.00  0.00    -0.069 OA 
ATOM     40  OE1 GLU A   1      -5.406  11.077  63.461  1.00  0.00    -0.100 OA 
ENDBRANCH  36  37
ENDBRANCH  32  36
ENDBRANCH  30  32
ENDBRANCH  25  28
ENDBRANCH   9  17
TORSDOF 6
ENDMDL
MODEL      227
REMARK 921   NORMALIZED FREE ENERGY PREDICTED BY IDOCK:    7.72 KCAL/MOL
REMARK 922        TOTAL FREE ENERGY PREDICTED BY IDOCK:    9.01 KCAL/MOL
REMARK 923 INTER-LIGAND FREE ENERGY PREDICTED BY IDOCK:    8.41 KCAL/MOL
REMARK 924 INTRA-LIGAND FREE ENERGY PREDICTED BY IDOCK:    0.60 KCAL/MOL
REMARK 927      BINDING AFFINITY PREDICTED BY RF-SCORE:    0.00 PKD
ROOT
HETATM    1  N   UNK A   0     -14.032  12.275  64.138  1.00  0.00     0.923 NA 
HETATM    2  C   UNK A   0     -12.826  11.617  64.151  1.00  0.00     0.227 A  
HETATM    3  H2  UNK A   0     -14.771  12.033  64.798  1.00  0.00     0.000 HD 
HETATM    4  H1  UNK A   0     -14.164  13.013  63.446  1.00  0.00     0.000 HD 
HETATM    5  N   UNK A   0     -12.654  10.656  65.052  1.00  0.00     4.034 NA 
HETATM    6  C   UNK A   0     -11.457  10.077  65.121  1.00  0.00     3.319 A  
HETATM    7  N   UNK A   0     -11.256   9.169  66.083  1.00  0.00     1.628 NA 
HETATM    8  C   UNK A   0     -10.012   8.653  66.226  1.00  0.00    -0.217 A  
HETATM    9  C   UNK A   0      -8.950   9.010  65.409  1.00  0.00    -0.200 A  
HETATM   10  H2  UNK A   0      -9.453  10.985  61.883  1.00  0.00     0.000 HD 
HETATM   11  N   UNK A   0      -9.143   9.882  64.396  1.00  0.00    -0.238 NA 
HETATM   12  H1  UNK A   0      -9.997  12.538  61.717  1.00  0.00     0.000 HD 
HETATM   13  C   UNK A   0     -10.398  10.416  64.273  1.00  0.00     0.013 A  
HETATM   14  C   UNK A   0     -10.713  11.406  63.351  1.00  0.00    -0.332 A  
HETATM   15  N   UNK A   0      -9.766  11.811  62.393  1.00  0.00     0.382 NA 
HETATM   16  N   UNK A   0     -11.906  12.012  63.276  1.00  0.00    -0.405 NA 
ENDROOT
BRANCH   9  17
HETATM   17  C   UNK A   0      -7.536   8.557  65.684  1.00  0.00    -0.090 C  
HETATM   18  C   UNK A   0      -7.385  10.137  67.679  1.00  0.00    -0.089 A  
HETATM   19  C   UNK A   0      -6.819  11.250  67.032  1.00  0.00    -0.126 A  
HETATM   20  C   UNK A   0      -8.274  10.355  68.741  1.00  0.00    -0.128 A  
HETATM   21  C   UNK A   0      -7.132   8.711  67.178  1.00  0.00    -0.075 C  
HETATM   22  C   UNK A   0      -8.683  11.649  69.068  1.00  0.00     0.189 A  
HETATM   23  C   UNK A   0      -7.224  12.547  67.360  1.00  0.00    -0.146 A  
HETATM   24  C   UNK A   0      -5.669   8.310  67.444  1.00  0.00    -0.039 C  
HETATM   25  C   UNK A   0      -8.204  12.740  68.338  1.00  0.00    -0.128 A  
BRANCH  24  26
HETATM   26  C   UNK A   0      -5.360   6.915  67.080  1.00  0.00    -0.017 C  
HETATM   27  C   UNK A   0      -5.181   5.763  66.791  1.00  0.00    -0.005 C  
ENDBRANCH  24  26
BRANCH  25  28
HETATM   28  C   UNK A   0      -8.744  14.103  68.565  1.00  0.00    -0.166 C  
HETATM   29  O   UNK A   0      -7.998  15.063  68.711  1.00  0.00    -0.142 OA 
ATOM     30  N   GLU A   1     -10.133  14.214  68.543  1.00  0.00    -0.240 N  
ATOM     31  H   GLU A   1     -10.715  13.378  68.500  1.00  0.00     0.000 HD 
BRANCH  30  32
ATOM     32  CA  GLU A   1     -10.752  15.555  68.582  1.00  0.00    -0.252 C  
ATOM     33  O   GLU A   1     -10.260  15.278  70.932  1.00  0.00     0.083 OA 
ATOM     34  C   GLU A   1     -10.492  16.195  69.960  1.00  0.00    -0.215 C  
ATOM     35  OXT GLU A   1     -10.630  17.385  70.205  1.00  0.00     0.308 OA 
BRANCH  32  36
ATOM     36  CB  GLU A   1     -12.267  15.451  68.331  1.00  0.00     0.139 C  
BRANCH  36  37
ATOM     37  CG  GLU A   1     -12.644  15.542  66.847  1.00  0.00     1.771 C  
ATOM     38  CD  GLU A   1     -12.413  14.249  66.105  1.00  0.00    -0.336 C  
ATOM     39  OE2 GLU A   1     -11.968  13.225  66.595  1.00  0.00    -0.381 OA 
ATOM     40  OE1 GLU A   1     -12.768  14.337  64.803  1.00  0.00    -0.646 OA 
ENDBRANCH  36  37
ENDBRANCH  32  36
ENDBRANCH  30  32
ENDBRANCH  25  28
ENDBRANCH   9  17
TORSDOF 6
ENDMDL
MODEL      228
REMARK 921   NORMALIZED FREE ENERGY PREDICTED BY IDOCK:    7.84 KCAL/MOL
REMARK 922        TOTAL FREE ENERGY PREDICTED BY IDOCK:    9.17 KCAL/MOL
REMARK 923 INTER-LIGAND FREE ENERGY PREDICTED BY IDOCK:    6.58 KCAL/MOL
REMARK 924 INTRA-LIGAND FREE ENERGY PREDICTED BY IDOCK:    2.59 KCAL/MOL
REMARK 927      BINDING AFFINITY PREDICTED BY RF-SCORE:    0.00 PKD
ROOT
HETATM    1  N   UNK A   0     -10.588  19.622  64.207  1.00  0.00     2.134 NA 
HETATM    2  C   UNK A   0     -10.710  18.918  65.381  1.00  0.00     0.219 A  
HETATM    3  H2  UNK A   0     -10.916  19.233  63.323  1.00  0.00     0.000 HD 
HETATM    4  H1  UNK A   0     -10.159  20.546  64.249  1.00  0.00     0.000 HD 
HETATM    5  N   UNK A   0     -11.269  17.714  65.326  1.00  0.00    -0.121 NA 
HETATM    6  C   UNK A   0     -11.465  17.068  66.474  1.00  0.00     1.118 A  
HETATM    7  N   UNK A   0     -12.104  15.894  66.429  1.00  0.00     1.082 NA 
HETATM    8  C   UNK A   0     -12.399  15.281  67.600  1.00  0.00     0.701 A  
HETATM    9  C   UNK A   0     -12.050  15.807  68.834  1.00  0.00    -0.120 A  
HETATM   10  H2  UNK A   0      -9.337  18.815  69.257  1.00  0.00     0.000 HD 
HETATM   11  N   UNK A   0     -11.354  16.964  68.902  1.00  0.00    -0.027 NA 
HETATM   12  H1  UNK A   0      -9.536  20.373  68.739  1.00  0.00     0.000 HD 
HETATM   13  C   UNK A   0     -11.080  17.587  67.714  1.00  0.00     0.024 A  
HETATM   14  C   UNK A   0     -10.473  18.834  67.636  1.00  0.00    -0.435 A  
HETATM   15  N   UNK A   0      -9.982  19.458  68.796  1.00  0.00    -0.434 NA 
HETATM   16  N   UNK A   0     -10.282  19.508  66.493  1.00  0.00    -0.426 NA 
ENDROOT
BRANCH   9  17
HETATM   17  C   UNK A   0     -12.530  15.203  70.132  1.00  0.00    -0.361 C  
HETATM   18  C   UNK A   0     -10.970  13.211  69.818  1.00  0.00     0.232 A  
HETATM   19  C   UNK A   0     -11.862  12.337  69.173  1.00  0.00    -0.355 A  
HETATM   20  C   UNK A   0      -9.611  13.160  69.478  1.00  0.00     1.287 A  
HETATM   21  C   UNK A   0     -11.470  14.279  70.797  1.00  0.00    -0.082 C  
HETATM   22  C   UNK A   0      -9.172  12.345  68.433  1.00  0.00    -0.145 A  
HETATM   23  C   UNK A   0     -11.425  11.517  68.128  1.00  0.00    -0.385 A  
HETATM   24  C   UNK A   0     -11.986  13.612  72.087  1.00  0.00     0.913 C  
HETATM   25  C   UNK A   0     -10.089  11.569  67.720  1.00  0.00    -0.198 A  
BRANCH  24  26
HETATM   26  C   UNK A   0     -12.400  14.572  73.127  1.00  0.00    -0.278 C  
HETATM   27  C   UNK A   0     -12.800  15.317  73.979  1.00  0.00    -0.437 C  
ENDBRANCH  24  26
BRANCH  25  28
HETATM   28  C   UNK A   0      -9.671  10.819  66.508  1.00  0.00    -0.196 C  
HETATM   29  O   UNK A   0      -8.532  10.913  66.068  1.00  0.00    -0.163 OA 
ATOM     30  N   GLU A   1     -10.634   9.978  65.956  1.00  0.00    -0.056 N  
ATOM     31  H   GLU A   1     -11.593   9.994  66.306  1.00  0.00     0.000 HD 
BRANCH  30  32
ATOM     32  CA  GLU A   1     -10.254   9.063  64.860  1.00  0.00     1.979 C  
ATOM     33  O   GLU A   1      -8.667   8.351  66.539  1.00  0.00    -0.123 OA 
ATOM     34  C   GLU A   1      -9.320   7.968  65.413  1.00  0.00     0.403 C  
ATOM     35  OXT GLU A   1      -9.062   6.924  64.831  1.00  0.00     0.439 OA 
BRANCH  32  36
ATOM     36  CB  GLU A   1      -9.542   9.841  63.739  1.00  0.00     0.091 C  
BRANCH  36  37
ATOM     37  CG  GLU A   1      -8.013   9.784  63.838  1.00  0.00    -0.146 C  
ATOM     38  CD  GLU A   1      -7.338  10.938  63.138  1.00  0.00     0.333 C  
ATOM     39  OE2 GLU A   1      -7.911  11.833  62.542  1.00  0.00     0.134 OA 
ATOM     40  OE1 GLU A   1      -5.991  10.886  63.251  1.00  0.00    -0.020 OA 
ENDBRANCH  36  37
ENDBRANCH  32  36
ENDBRANCH  30  32
ENDBRANCH  25  28
ENDBRANCH   9  17
TORSDOF 6
ENDMDL
MODEL      229
REMARK 921   NORMALIZED FREE ENERGY PREDICTED BY IDOCK:    8.25 KCAL/MOL
REMARK 922        TOTAL FREE ENERGY PREDICTED BY IDOCK:    9.73 KCAL/MOL
REMARK 923 INTER-LIGAND FREE ENERGY PREDICTED BY IDOCK:    5.67 KCAL/MOL
REMARK 924 INTRA-LIGAND FREE ENERGY PREDICTED BY IDOCK:    4.06 KCAL/MOL
REMARK 927      BINDING AFFINITY PREDICTED BY RF-SCORE:    0.00 PKD
ROOT
HETATM    1  N   UNK A   0      -5.525  12.102  71.986  1.00  0.00    -0.214 NA 
HETATM    2  C   UNK A   0      -6.171  11.741  70.828  1.00  0.00     0.479 A  
HETATM    3  H2  UNK A   0      -4.518  11.978  72.088  1.00  0.00     0.000 HD 
HETATM    4  H1  UNK A   0      -6.086  12.499  72.739  1.00  0.00     0.000 HD 
HETATM    5  N   UNK A   0      -5.439  11.224  69.846  1.00  0.00    -0.061 NA 
HETATM    6  C   UNK A   0      -6.050  10.954  68.694  1.00  0.00    -0.043 A  
HETATM    7  N   UNK A   0      -5.300  10.514  67.677  1.00  0.00    -0.043 NA 
HETATM    8  C   UNK A   0      -5.895  10.335  66.474  1.00  0.00    -0.063 A  
HETATM    9  C   UNK A   0      -7.245  10.570  66.259  1.00  0.00    -0.133 A  
HETATM   10  H2  UNK A   0      -9.917  10.995  69.302  1.00  0.00     0.000 HD 
HETATM   11  N   UNK A   0      -8.033  10.961  67.284  1.00  0.00    -0.120 NA 
HETATM   12  H1  UNK A   0      -9.955  12.245  70.385  1.00  0.00     0.000 HD 
HETATM   13  C   UNK A   0      -7.418  11.160  68.492  1.00  0.00    -0.112 A  
HETATM   14  C   UNK A   0      -8.079  11.667  69.603  1.00  0.00     0.972 A  
HETATM   15  N   UNK A   0      -9.470  11.872  69.569  1.00  0.00     0.894 NA 
HETATM   16  N   UNK A   0      -7.480  11.961  70.765  1.00  0.00     3.020 NA 
ENDROOT
BRANCH   9  17
HETATM   17  C   UNK A   0      -7.858  10.531  64.880  1.00  0.00    -0.037 C  
HETATM   18  C   UNK A   0      -8.729   8.172  65.299  1.00  0.00    -0.093 A  
HETATM   19  C   UNK A   0      -7.656   7.445  64.755  1.00  0.00    -0.103 A  
HETATM   20  C   UNK A   0      -9.421   7.635  66.393  1.00  0.00    -0.224 A  
HETATM   21  C   UNK A   0      -9.081   9.573  64.789  1.00  0.00    -0.271 C  
HETATM   22  C   UNK A   0      -8.976   6.462  67.007  1.00  0.00    -0.119 A  
HETATM   23  C   UNK A   0      -7.210   6.269  65.366  1.00  0.00    -0.070 A  
HETATM   24  C   UNK A   0      -9.665   9.486  63.366  1.00  0.00     0.882 C  
HETATM   25  C   UNK A   0      -7.835   5.813  66.530  1.00  0.00    -0.101 A  
BRANCH  24  26
HETATM   26  C   UNK A   0     -10.122  10.782  62.831  1.00  0.00    -0.136 C  
HETATM   27  C   UNK A   0     -10.548  11.802  62.360  1.00  0.00     1.538 C  
ENDBRANCH  24  26
BRANCH  25  28
HETATM   28  C   UNK A   0      -7.255   4.659  67.260  1.00  0.00    -0.073 C  
HETATM   29  O   UNK A   0      -6.198   4.153  66.907  1.00  0.00    -0.033 OA 
ATOM     30  N   GLU A   1      -7.961   4.240  68.386  1.00  0.00    -0.077 N  
ATOM     31  H   GLU A   1      -8.878   4.636  68.596  1.00  0.00     0.000 HD 
BRANCH  30  32
ATOM     32  CA  GLU A   1      -7.368   3.218  69.273  1.00  0.00    -0.048 C  
ATOM     33  O   GLU A   1      -5.371   4.456  68.707  1.00  0.00    -0.010 OA 
ATOM     34  C   GLU A   1      -5.924   3.627  69.627  1.00  0.00    -0.023 C  
ATOM     35  OXT GLU A   1      -5.276   3.145  70.545  1.00  0.00    -0.004 OA 
BRANCH  32  36
ATOM     36  CB  GLU A   1      -7.367   1.844  68.579  1.00  0.00    -0.043 C  
BRANCH  36  37
ATOM     37  CG  GLU A   1      -7.649   1.926  67.073  1.00  0.00    -0.061 C  
ATOM     38  CD  GLU A   1      -9.124   1.937  66.755  1.00  0.00    -0.057 C  
ATOM     39  OE2 GLU A   1     -10.023   1.881  67.576  1.00  0.00     0.353 OA 
ATOM     40  OE1 GLU A   1      -9.359   2.031  65.426  1.00  0.00    -0.093 OA 
ENDBRANCH  36  37
ENDBRANCH  32  36
ENDBRANCH  30  32
ENDBRANCH  25  28
ENDBRANCH   9  17
TORSDOF 6
ENDMDL
MODEL      230
REMARK 921   NORMALIZED FREE ENERGY PREDICTED BY IDOCK:    9.93 KCAL/MOL
REMARK 922        TOTAL FREE ENERGY PREDICTED BY IDOCK:   12.00 KCAL/MOL
REMARK 923 INTER-LIGAND FREE ENERGY PREDICTED BY IDOCK:    9.36 KCAL/MOL
REMARK 924 INTRA-LIGAND FREE ENERGY PREDICTED BY IDOCK:    2.64 KCAL/MOL
REMARK 927      BINDING AFFINITY PREDICTED BY RF-SCORE:    0.00 PKD
ROOT
HETATM    1  N   UNK A   0     -10.706  13.452  62.676  1.00  0.00     1.935 NA 
HETATM    2  C   UNK A   0     -10.959  14.109  63.856  1.00  0.00     0.583 A  
HETATM    3  H2  UNK A   0     -10.472  13.965  61.827  1.00  0.00     0.000 HD 
HETATM    4  H1  UNK A   0     -10.758  12.433  62.678  1.00  0.00     0.000 HD 
HETATM    5  N   UNK A   0     -10.889  15.436  63.853  1.00  0.00     0.772 NA 
HETATM    6  C   UNK A   0     -11.050  16.069  65.013  1.00  0.00    -0.336 A  
HETATM    7  N   UNK A   0     -10.897  17.397  65.028  1.00  0.00    -0.739 NA 
HETATM    8  C   UNK A   0     -10.956  18.035  66.221  1.00  0.00     0.272 A  
HETATM    9  C   UNK A   0     -11.187  17.374  67.418  1.00  0.00     0.278 A  
HETATM   10  H2  UNK A   0     -12.600  13.558  67.587  1.00  0.00     0.000 HD 
HETATM   11  N   UNK A   0     -11.401  16.040  67.420  1.00  0.00    -0.088 NA 
HETATM   12  H1  UNK A   0     -11.786  12.206  67.091  1.00  0.00     0.000 HD 
HETATM   13  C   UNK A   0     -11.318  15.401  66.213  1.00  0.00    -0.081 A  
HETATM   14  C   UNK A   0     -11.403  14.021  66.079  1.00  0.00    -0.328 A  
HETATM   15  N   UNK A   0     -11.724  13.219  67.189  1.00  0.00    -0.356 NA 
HETATM   16  N   UNK A   0     -11.228  13.365  64.924  1.00  0.00    -0.319 NA 
ENDROOT
BRANCH   9  17
HETATM   17  C   UNK A   0     -11.083  18.069  68.754  1.00  0.00     0.814 C  
HETATM   18  C   UNK A   0     -10.085  15.972  69.803  1.00  0.00    -0.212 A  
HETATM   19  C   UNK A   0     -11.268  15.388  70.289  1.00  0.00    -0.328 A  
HETATM   20  C   UNK A   0      -9.051  15.133  69.362  1.00  0.00    -0.180 A  
HETATM   21  C   UNK A   0      -9.950  17.490  69.650  1.00  0.00     0.272 C  
HETATM   22  C   UNK A   0      -9.240  13.752  69.293  1.00  0.00     0.568 A  
HETATM   23  C   UNK A   0     -11.459  14.005  70.223  1.00  0.00    -0.155 A  
HETATM   24  C   UNK A   0      -9.889  18.157  71.037  1.00  0.00     4.077 C  
HETATM   25  C   UNK A   0     -10.465  13.194  69.666  1.00  0.00     0.664 A  
BRANCH  24  26
HETATM   26  C   UNK A   0      -9.663  19.613  70.986  1.00  0.00     2.024 C  
HETATM   27  C   UNK A   0      -9.540  20.806  70.903  1.00  0.00     2.150 C  
ENDBRANCH  24  26
BRANCH  25  28
HETATM   28  C   UNK A   0     -10.742  11.752  69.451  1.00  0.00     0.003 C  
HETATM   29  O   UNK A   0     -11.889  11.335  69.357  1.00  0.00    -0.298 OA 
ATOM     30  N   GLU A   1      -9.621  10.936  69.312  1.00  0.00    -0.407 N  
ATOM     31  H   GLU A   1      -8.687  11.311  69.480  1.00  0.00     0.000 HD 
BRANCH  30  32
ATOM     32  CA  GLU A   1      -9.799   9.522  68.920  1.00  0.00    -0.174 C  
ATOM     33  O   GLU A   1     -10.615   9.409  71.193  1.00  0.00    -0.295 OA 
ATOM     34  C   GLU A   1     -10.662   8.806  69.978  1.00  0.00    -0.228 C  
ATOM     35  OXT GLU A   1     -11.210   7.727  69.806  1.00  0.00    -0.154 OA 
BRANCH  32  36
ATOM     36  CB  GLU A   1      -8.432   8.825  68.801  1.00  0.00    -0.129 C  
BRANCH  36  37
ATOM     37  CG  GLU A   1      -7.300   9.588  69.499  1.00  0.00    -0.077 C  
ATOM     38  CD  GLU A   1      -6.631  10.595  68.596  1.00  0.00    -0.056 C  
ATOM     39  OE2 GLU A   1      -6.925  10.802  67.431  1.00  0.00    -0.078 OA 
ATOM     40  OE1 GLU A   1      -5.648  11.276  69.230  1.00  0.00    -0.041 OA 
ENDBRANCH  36  37
ENDBRANCH  32  36
ENDBRANCH  30  32
ENDBRANCH  25  28
ENDBRANCH   9  17
TORSDOF 6
ENDMDL
MODEL      231
REMARK 921   NORMALIZED FREE ENERGY PREDICTED BY IDOCK:   10.63 KCAL/MOL
REMARK 922        TOTAL FREE ENERGY PREDICTED BY IDOCK:   12.95 KCAL/MOL
REMARK 923 INTER-LIGAND FREE ENERGY PREDICTED BY IDOCK:    1.77 KCAL/MOL
REMARK 924 INTRA-LIGAND FREE ENERGY PREDICTED BY IDOCK:   11.18 KCAL/MOL
REMARK 927      BINDING AFFINITY PREDICTED BY RF-SCORE:    0.00 PKD
ROOT
HETATM    1  N   UNK A   0     -10.133   8.419  63.488  1.00  0.00     3.639 NA 
HETATM    2  C   UNK A   0      -9.532   8.283  64.717  1.00  0.00     1.237 A  
HETATM    3  H2  UNK A   0     -10.093   7.670  62.797  1.00  0.00     0.000 HD 
HETATM    4  H1  UNK A   0     -10.621   9.293  63.292  1.00  0.00     0.000 HD 
HETATM    5  N   UNK A   0      -8.898   7.144  64.973  1.00  0.00     0.229 NA 
HETATM    6  C   UNK A   0      -8.389   6.978  66.193  1.00  0.00    -0.130 A  
HETATM    7  N   UNK A   0      -7.824   5.800  66.480  1.00  0.00    -0.100 NA 
HETATM    8  C   UNK A   0      -7.398   5.587  67.747  1.00  0.00    -0.076 A  
HETATM    9  C   UNK A   0      -7.505   6.540  68.748  1.00  0.00    -0.088 A  
HETATM   10  H2  UNK A   0      -8.292  10.461  67.978  1.00  0.00     0.000 HD 
HETATM   11  N   UNK A   0      -8.020   7.757  68.468  1.00  0.00    -0.120 NA 
HETATM   12  H1  UNK A   0      -9.709  11.058  67.370  1.00  0.00     0.000 HD 
HETATM   13  C   UNK A   0      -8.469   7.956  67.189  1.00  0.00    -0.117 A  
HETATM   14  C   UNK A   0      -9.122   9.114  66.788  1.00  0.00    -0.144 A  
HETATM   15  N   UNK A   0      -9.229  10.208  67.664  1.00  0.00    -0.140 NA 
HETATM   16  N   UNK A   0      -9.655   9.294  65.571  1.00  0.00    -0.260 NA 
ENDROOT
BRANCH   9  17
HETATM   17  C   UNK A   0      -7.184   6.232  70.191  1.00  0.00    -0.080 C  
HETATM   18  C   UNK A   0      -7.476   8.686  70.814  1.00  0.00    -0.080 A  
HETATM   19  C   UNK A   0      -6.140   9.103  70.689  1.00  0.00    -0.047 A  
HETATM   20  C   UNK A   0      -8.498   9.593  70.499  1.00  0.00    -0.128 A  
HETATM   21  C   UNK A   0      -7.829   7.241  71.184  1.00  0.00    -0.093 C  
HETATM   22  C   UNK A   0      -8.193  10.842  69.954  1.00  0.00     0.473 A  
HETATM   23  C   UNK A   0      -5.831  10.353  70.146  1.00  0.00    -0.074 A  
HETATM   24  C   UNK A   0      -7.446   6.962  72.649  1.00  0.00    -0.089 C  
HETATM   25  C   UNK A   0      -6.862  11.197  69.722  1.00  0.00    -0.090 A  
BRANCH  24  26
HETATM   26  C   UNK A   0      -7.838   5.621  73.121  1.00  0.00    -0.100 C  
HETATM   27  C   UNK A   0      -8.228   4.549  73.496  1.00  0.00    -0.102 C  
ENDBRANCH  24  26
BRANCH  25  28
HETATM   28  C   UNK A   0      -6.524  12.450  69.000  1.00  0.00    -0.097 C  
HETATM   29  O   UNK A   0      -5.377  12.880  68.984  1.00  0.00    -0.067 OA 
ATOM     30  N   GLU A   1      -7.574  13.053  68.312  1.00  0.00    -0.126 N  
ATOM     31  H   GLU A   1      -8.527  12.706  68.421  1.00  0.00     0.000 HD 
BRANCH  30  32
ATOM     32  CA  GLU A   1      -7.293  14.200  67.424  1.00  0.00    -0.120 C  
ATOM     33  O   GLU A   1      -5.432  14.417  68.952  1.00  0.00    -0.084 OA 
ATOM     34  C   GLU A   1      -5.871  14.724  67.705  1.00  0.00    -0.088 C  
ATOM     35  OXT GLU A   1      -5.251  15.470  66.961  1.00  0.00    -0.258 OA 
BRANCH  32  36
ATOM     36  CB  GLU A   1      -8.320  15.322  67.661  1.00  0.00    -0.176 C  
BRANCH  36  37
ATOM     37  CG  GLU A   1      -7.678  16.698  67.868  1.00  0.00    -0.170 C  
ATOM     38  CD  GLU A   1      -6.934  16.805  69.177  1.00  0.00    -0.231 C  
ATOM     39  OE2 GLU A   1      -6.839  15.918  70.008  1.00  0.00    -0.087 OA 
ATOM     40  OE1 GLU A   1      -6.355  18.017  69.338  1.00  0.00    -0.244 OA 
ENDBRANCH  36  37
ENDBRANCH  32  36
ENDBRANCH  30  32
ENDBRANCH  25  28
ENDBRANCH   9  17
TORSDOF 6
ENDMDL
MODEL      232
REMARK 921   NORMALIZED FREE ENERGY PREDICTED BY IDOCK:   10.85 KCAL/MOL
REMARK 922        TOTAL FREE ENERGY PREDICTED BY IDOCK:   13.24 KCAL/MOL
REMARK 923 INTER-LIGAND FREE ENERGY PREDICTED BY IDOCK:   10.08 KCAL/MOL
REMARK 924 INTRA-LIGAND FREE ENERGY PREDICTED BY IDOCK:    3.16 KCAL/MOL
REMARK 927      BINDING AFFINITY PREDICTED BY RF-SCORE:    0.00 PKD
ROOT
HETATM    1  N   UNK A   0     -10.992   5.368  64.934  1.00  0.00     0.853 NA 
HETATM    2  C   UNK A   0     -10.576   6.529  65.540  1.00  0.00     2.371 A  
HETATM    3  H2  UNK A   0     -10.321   4.664  64.627  1.00  0.00     0.000 HD 
HETATM    4  H1  UNK A   0     -11.995   5.233  64.803  1.00  0.00     0.000 HD 
HETATM    5  N   UNK A   0      -9.270   6.703  65.713  1.00  0.00     0.021 NA 
HETATM    6  C   UNK A   0      -8.871   7.787  66.376  1.00  0.00    -0.155 A  
HETATM    7  N   UNK A   0      -7.563   7.922  66.624  1.00  0.00    -0.092 NA 
HETATM    8  C   UNK A   0      -7.162   8.967  67.387  1.00  0.00    -0.080 A  
HETATM    9  C   UNK A   0      -8.042   9.907  67.900  1.00  0.00    -0.109 A  
HETATM   10  H2  UNK A   0     -11.871  10.294  66.570  1.00  0.00     0.000 HD 
HETATM   11  N   UNK A   0      -9.360   9.822  67.616  1.00  0.00    -0.140 NA 
HETATM   12  H1  UNK A   0     -13.077   9.179  66.763  1.00  0.00     0.000 HD 
HETATM   13  C   UNK A   0      -9.760   8.751  66.863  1.00  0.00    -0.210 A  
HETATM   14  C   UNK A   0     -11.093   8.474  66.587  1.00  0.00     1.070 A  
HETATM   15  N   UNK A   0     -12.098   9.382  66.965  1.00  0.00     4.064 NA 
HETATM   16  N   UNK A   0     -11.515   7.382  65.936  1.00  0.00     3.981 NA 
ENDROOT
BRANCH   9  17
HETATM   17  C   UNK A   0      -7.605  10.965  68.885  1.00  0.00    -0.128 C  
HETATM   18  C   UNK A   0      -6.106   9.282  70.077  1.00  0.00    -0.042 A  
HETATM   19  C   UNK A   0      -7.009   8.850  71.065  1.00  0.00    -0.085 A  
HETATM   20  C   UNK A   0      -5.175   8.366  69.567  1.00  0.00    -0.030 A  
HETATM   21  C   UNK A   0      -6.194  10.691  69.480  1.00  0.00    -0.059 C  
HETATM   22  C   UNK A   0      -5.224   7.023  69.944  1.00  0.00    -0.015 A  
HETATM   23  C   UNK A   0      -7.058   7.506  71.445  1.00  0.00    -0.058 A  
HETATM   24  C   UNK A   0      -5.778  11.737  70.532  1.00  0.00    -0.150 C  
HETATM   25  C   UNK A   0      -6.204   6.582  70.836  1.00  0.00    -0.032 A  
BRANCH  24  26
HETATM   26  C   UNK A   0      -5.740  13.117  70.014  1.00  0.00    -0.131 C  
HETATM   27  C   UNK A   0      -5.735  14.264  69.657  1.00  0.00    -0.100 C  
ENDBRANCH  24  26
BRANCH  25  28
HETATM   28  C   UNK A   0      -6.374   5.136  71.126  1.00  0.00    -0.030 C  
HETATM   29  O   UNK A   0      -5.427   4.448  71.487  1.00  0.00    -0.009 OA 
ATOM     30  N   GLU A   1      -7.673   4.646  71.014  1.00  0.00    -0.078 N  
ATOM     31  H   GLU A   1      -8.414   5.234  70.632  1.00  0.00     0.000 HD 
BRANCH  30  32
ATOM     32  CA  GLU A   1      -7.966   3.266  71.453  1.00  0.00    -0.059 C  
ATOM     33  O   GLU A   1     -10.092   3.820  70.444  1.00  0.00    -0.041 OA 
ATOM     34  C   GLU A   1      -9.280   2.793  70.800  1.00  0.00    -0.134 C  
ATOM     35  OXT GLU A   1      -9.641   1.626  70.742  1.00  0.00    -0.116 OA 
BRANCH  32  36
ATOM     36  CB  GLU A   1      -8.093   3.209  72.985  1.00  0.00    -0.072 C  
BRANCH  36  37
ATOM     37  CG  GLU A   1      -7.519   4.445  73.688  1.00  0.00    -0.077 C  
ATOM     38  CD  GLU A   1      -6.032   4.344  73.925  1.00  0.00    -0.020 C  
ATOM     39  OE2 GLU A   1      -5.332   3.396  73.615  1.00  0.00     0.000 OA 
ATOM     40  OE1 GLU A   1      -5.535   5.449  74.526  1.00  0.00    -0.026 OA 
ENDBRANCH  36  37
ENDBRANCH  32  36
ENDBRANCH  30  32
ENDBRANCH  25  28
ENDBRANCH   9  17
TORSDOF 6
ENDMDL
MODEL      233
REMARK 921   NORMALIZED FREE ENERGY PREDICTED BY IDOCK:   11.25 KCAL/MOL
REMARK 922        TOTAL FREE ENERGY PREDICTED BY IDOCK:   13.78 KCAL/MOL
REMARK 923 INTER-LIGAND FREE ENERGY PREDICTED BY IDOCK:   10.15 KCAL/MOL
REMARK 924 INTRA-LIGAND FREE ENERGY PREDICTED BY IDOCK:    3.63 KCAL/MOL
REMARK 927      BINDING AFFINITY PREDICTED BY RF-SCORE:    0.00 PKD
ROOT
HETATM    1  N   UNK A   0     -10.992   5.368  64.934  1.00  0.00     0.853 NA 
HETATM    2  C   UNK A   0     -10.564   6.525  65.538  1.00  0.00     2.371 A  
HETATM    3  H2  UNK A   0     -10.329   4.658  64.626  1.00  0.00     0.000 HD 
HETATM    4  H1  UNK A   0     -11.996   5.242  64.806  1.00  0.00     0.000 HD 
HETATM    5  N   UNK A   0      -9.255   6.689  65.706  1.00  0.00     0.021 NA 
HETATM    6  C   UNK A   0      -8.845   7.769  66.367  1.00  0.00    -0.155 A  
HETATM    7  N   UNK A   0      -7.535   7.893  66.610  1.00  0.00    -0.088 NA 
HETATM    8  C   UNK A   0      -7.122   8.935  67.370  1.00  0.00    -0.079 A  
HETATM    9  C   UNK A   0      -7.992   9.883  67.886  1.00  0.00    -0.104 A  
HETATM   10  H2  UNK A   0     -11.822  10.303  66.569  1.00  0.00     0.000 HD 
HETATM   11  N   UNK A   0      -9.311   9.810  67.606  1.00  0.00    -0.140 NA 
HETATM   12  H1  UNK A   0     -13.037   9.198  66.767  1.00  0.00     0.000 HD 
HETATM   13  C   UNK A   0      -9.723   8.741  66.856  1.00  0.00    -0.210 A  
HETATM   14  C   UNK A   0     -11.060   8.476  66.585  1.00  0.00     1.070 A  
HETATM   15  N   UNK A   0     -12.056   9.393  66.965  1.00  0.00     4.064 NA 
HETATM   16  N   UNK A   0     -11.494   7.387  65.936  1.00  0.00     3.981 NA 
ENDROOT
BRANCH   9  17
HETATM   17  C   UNK A   0      -7.542  10.938  68.868  1.00  0.00    -0.128 C  
HETATM   18  C   UNK A   0      -6.054   9.244  70.057  1.00  0.00    -0.042 A  
HETATM   19  C   UNK A   0      -6.957   8.820  71.048  1.00  0.00    -0.077 A  
HETATM   20  C   UNK A   0      -5.133   8.319  69.545  1.00  0.00    -0.030 A  
HETATM   21  C   UNK A   0      -6.131  10.652  69.459  1.00  0.00    -0.053 C  
HETATM   22  C   UNK A   0      -5.192   6.976  69.922  1.00  0.00    -0.015 A  
HETATM   23  C   UNK A   0      -7.017   7.476  71.429  1.00  0.00    -0.054 A  
HETATM   24  C   UNK A   0      -5.703  11.695  70.508  1.00  0.00    -0.148 C  
HETATM   25  C   UNK A   0      -6.173   6.544  70.819  1.00  0.00    -0.035 A  
BRANCH  24  26
HETATM   26  C   UNK A   0      -5.655  13.074  69.989  1.00  0.00    -0.123 C  
HETATM   27  C   UNK A   0      -5.558  14.178  69.525  1.00  0.00    -0.093 C  
ENDBRANCH  24  26
BRANCH  25  28
HETATM   28  C   UNK A   0      -6.354   5.101  71.110  1.00  0.00    -0.030 C  
HETATM   29  O   UNK A   0      -5.413   4.404  71.468  1.00  0.00    -0.009 OA 
ATOM     30  N   GLU A   1      -7.658   4.622  71.003  1.00  0.00    -0.070 N  
ATOM     31  H   GLU A   1      -8.395   5.216  70.623  1.00  0.00     0.000 HD 
BRANCH  30  32
ATOM     32  CA  GLU A   1      -7.962   3.244  71.444  1.00  0.00    -0.059 C  
ATOM     33  O   GLU A   1      -6.438   3.897  73.204  1.00  0.00    -0.032 OA 
ATOM     34  C   GLU A   1      -7.445   3.046  72.883  1.00  0.00    -0.050 C  
ATOM     35  OXT GLU A   1      -7.782   2.128  73.616  1.00  0.00    -0.040 OA 
BRANCH  32  36
ATOM     36  CB  GLU A   1      -7.297   2.224  70.504  1.00  0.00    -0.033 C  
BRANCH  36  37
ATOM     37  CG  GLU A   1      -6.838   2.834  69.173  1.00  0.00    -0.037 C  
ATOM     38  CD  GLU A   1      -7.940   2.887  68.144  1.00  0.00    -0.061 C  
ATOM     39  OE2 GLU A   1      -9.081   2.490  68.312  1.00  0.00    -0.138 OA 
ATOM     40  OE1 GLU A   1      -7.528   3.445  66.983  1.00  0.00    -0.073 OA 
ENDBRANCH  36  37
ENDBRANCH  32  36
ENDBRANCH  30  32
ENDBRANCH  25  28
ENDBRANCH   9  17
TORSDOF 6
ENDMDL
MODEL      234
REMARK 921   NORMALIZED FREE ENERGY PREDICTED BY IDOCK:   12.32 KCAL/MOL
REMARK 922        TOTAL FREE ENERGY PREDICTED BY IDOCK:   15.22 KCAL/MOL
REMARK 923 INTER-LIGAND FREE ENERGY PREDICTED BY IDOCK:   11.92 KCAL/MOL
REMARK 924 INTRA-LIGAND FREE ENERGY PREDICTED BY IDOCK:    3.30 KCAL/MOL
REMARK 927      BINDING AFFINITY PREDICTED BY RF-SCORE:    0.00 PKD
ROOT
HETATM    1  N   UNK A   0      -5.841  11.169  72.155  1.00  0.00     0.447 NA 
HETATM    2  C   UNK A   0      -6.455  11.095  70.928  1.00  0.00     0.771 A  
HETATM    3  H2  UNK A   0      -4.857  10.925  72.267  1.00  0.00     0.000 HD 
HETATM    4  H1  UNK A   0      -6.401  11.476  72.950  1.00  0.00     0.000 HD 
HETATM    5  N   UNK A   0      -5.724  10.696  69.892  1.00  0.00    -0.049 NA 
HETATM    6  C   UNK A   0      -6.295  10.707  68.689  1.00  0.00    -0.046 A  
HETATM    7  N   UNK A   0      -5.538  10.387  67.634  1.00  0.00    -0.044 NA 
HETATM    8  C   UNK A   0      -6.082  10.495  66.399  1.00  0.00    -0.089 A  
HETATM    9  C   UNK A   0      -7.390  10.903  66.186  1.00  0.00    -0.103 A  
HETATM   10  H2  UNK A   0     -10.168  11.033  69.160  1.00  0.00     0.000 HD 
HETATM   11  N   UNK A   0      -8.191  11.177  67.238  1.00  0.00    -0.132 NA 
HETATM   12  H1  UNK A   0     -10.146  12.059  70.456  1.00  0.00     0.000 HD 
HETATM   13  C   UNK A   0      -7.625  11.086  68.482  1.00  0.00    -0.114 A  
HETATM   14  C   UNK A   0      -8.294  11.445  69.646  1.00  0.00     0.878 A  
HETATM   15  N   UNK A   0      -9.655  11.795  69.602  1.00  0.00     1.001 NA 
HETATM   16  N   UNK A   0      -7.733  11.457  70.863  1.00  0.00     3.333 NA 
ENDROOT
BRANCH   9  17
HETATM   17  C   UNK A   0      -7.930  11.182  64.803  1.00  0.00     0.546 C  
HETATM   18  C   UNK A   0      -9.312   9.042  64.877  1.00  0.00     0.047 A  
HETATM   19  C   UNK A   0      -8.398   8.171  64.257  1.00  0.00    -0.038 A  
HETATM   20  C   UNK A   0     -10.157   8.533  65.874  1.00  0.00     0.292 A  
HETATM   21  C   UNK A   0      -9.326  10.540  64.559  1.00  0.00    -0.299 C  
HETATM   22  C   UNK A   0     -10.008   7.221  66.327  1.00  0.00     0.023 A  
HETATM   23  C   UNK A   0      -8.248   6.857  64.708  1.00  0.00    -0.051 A  
HETATM   24  C   UNK A   0      -9.845  10.772  63.127  1.00  0.00    -0.378 C  
HETATM   25  C   UNK A   0      -9.014   6.403  65.786  1.00  0.00    -0.068 A  
BRANCH  24  26
HETATM   26  C   UNK A   0      -9.983  12.195  62.768  1.00  0.00     0.681 C  
HETATM   27  C   UNK A   0     -10.165  13.352  62.500  1.00  0.00     6.855 C  
ENDBRANCH  24  26
BRANCH  25  28
HETATM   28  C   UNK A   0      -8.735   5.063  66.360  1.00  0.00    -0.114 C  
HETATM   29  O   UNK A   0      -8.285   4.159  65.668  1.00  0.00    -0.107 OA 
ATOM     30  N   GLU A   1      -8.966   4.932  67.728  1.00  0.00    -0.107 N  
ATOM     31  H   GLU A   1      -9.417   5.685  68.248  1.00  0.00     0.000 HD 
BRANCH  30  32
ATOM     32  CA  GLU A   1      -8.550   3.693  68.417  1.00  0.00    -0.096 C  
ATOM     33  O   GLU A   1      -9.262   2.753  66.307  1.00  0.00    -0.141 OA 
ATOM     34  C   GLU A   1      -8.478   2.542  67.394  1.00  0.00    -0.096 C  
ATOM     35  OXT GLU A   1      -7.907   1.479  67.591  1.00  0.00    -0.058 OA 
BRANCH  32  36
ATOM     36  CB  GLU A   1      -9.551   3.340  69.531  1.00  0.00    -0.127 C  
BRANCH  36  37
ATOM     37  CG  GLU A   1      -9.841   4.511  70.479  1.00  0.00    -0.297 C  
ATOM     38  CD  GLU A   1      -9.645   4.150  71.931  1.00  0.00    -0.152 C  
ATOM     39  OE2 GLU A   1      -9.303   3.056  72.345  1.00  0.00    -0.095 OA 
ATOM     40  OE1 GLU A   1      -9.883   5.196  72.754  1.00  0.00    -0.155 OA 
ENDBRANCH  36  37
ENDBRANCH  32  36
ENDBRANCH  30  32
ENDBRANCH  25  28
ENDBRANCH   9  17
TORSDOF 6
ENDMDL
MODEL      235
REMARK 921   NORMALIZED FREE ENERGY PREDICTED BY IDOCK:   12.66 KCAL/MOL
REMARK 922        TOTAL FREE ENERGY PREDICTED BY IDOCK:   15.69 KCAL/MOL
REMARK 923 INTER-LIGAND FREE ENERGY PREDICTED BY IDOCK:   11.96 KCAL/MOL
REMARK 924 INTRA-LIGAND FREE ENERGY PREDICTED BY IDOCK:    3.73 KCAL/MOL
REMARK 927      BINDING AFFINITY PREDICTED BY RF-SCORE:    0.00 PKD
ROOT
HETATM    1  N   UNK A   0      -5.840  11.167  72.155  1.00  0.00     0.447 NA 
HETATM    2  C   UNK A   0      -6.451  11.077  70.928  1.00  0.00     0.656 A  
HETATM    3  H2  UNK A   0      -4.853  10.937  72.270  1.00  0.00     0.000 HD 
HETATM    4  H1  UNK A   0      -6.405  11.474  72.946  1.00  0.00     0.000 HD 
HETATM    5  N   UNK A   0      -5.714  10.678  69.896  1.00  0.00    -0.049 NA 
HETATM    6  C   UNK A   0      -6.284  10.672  68.692  1.00  0.00    -0.046 A  
HETATM    7  N   UNK A   0      -5.520  10.353  67.641  1.00  0.00    -0.044 NA 
HETATM    8  C   UNK A   0      -6.064  10.445  66.404  1.00  0.00    -0.081 A  
HETATM    9  C   UNK A   0      -7.376  10.835  66.186  1.00  0.00    -0.127 A  
HETATM   10  H2  UNK A   0     -10.161  10.955  69.155  1.00  0.00     0.000 HD 
HETATM   11  N   UNK A   0      -8.182  11.108  67.235  1.00  0.00    -0.132 NA 
HETATM   12  H1  UNK A   0     -10.153  11.992  70.443  1.00  0.00     0.000 HD 
HETATM   13  C   UNK A   0      -7.618  11.033  68.480  1.00  0.00    -0.114 A  
HETATM   14  C   UNK A   0      -8.292  11.394  69.640  1.00  0.00     0.878 A  
HETATM   15  N   UNK A   0      -9.658  11.727  69.592  1.00  0.00     1.001 NA 
HETATM   16  N   UNK A   0      -7.733  11.422  70.858  1.00  0.00     3.333 NA 
ENDROOT
BRANCH   9  17
HETATM   17  C   UNK A   0      -7.918  11.097  64.801  1.00  0.00     0.546 C  
HETATM   18  C   UNK A   0      -9.264   8.934  64.884  1.00  0.00     0.031 A  
HETATM   19  C   UNK A   0      -8.334   8.075  64.272  1.00  0.00    -0.005 A  
HETATM   20  C   UNK A   0     -10.103   8.418  65.882  1.00  0.00     0.376 A  
HETATM   21  C   UNK A   0      -9.302  10.430  64.557  1.00  0.00    -0.313 C  
HETATM   22  C   UNK A   0      -9.933   7.111  66.344  1.00  0.00    -0.081 A  
HETATM   23  C   UNK A   0      -8.164   6.766  64.731  1.00  0.00    -0.052 A  
HETATM   24  C   UNK A   0      -9.822  10.644  63.122  1.00  0.00    -0.351 C  
HETATM   25  C   UNK A   0      -8.924   6.306  65.810  1.00  0.00    -0.083 A  
BRANCH  24  26
HETATM   26  C   UNK A   0      -9.982  12.063  62.754  1.00  0.00     0.437 C  
HETATM   27  C   UNK A   0     -10.040  13.225  62.457  1.00  0.00     6.471 C  
ENDBRANCH  24  26
BRANCH  25  28
HETATM   28  C   UNK A   0      -8.624   4.975  66.394  1.00  0.00    -0.111 C  
HETATM   29  O   UNK A   0      -7.805   4.850  67.295  1.00  0.00    -0.094 OA 
ATOM     30  N   GLU A   1      -9.369   3.912  65.888  1.00  0.00    -0.155 N  
ATOM     31  H   GLU A   1      -9.980   4.048  65.082  1.00  0.00     0.000 HD 
BRANCH  30  32
ATOM     32  CA  GLU A   1      -9.265   2.585  66.530  1.00  0.00    -0.041 C  
ATOM     33  O   GLU A   1      -6.971   3.315  66.756  1.00  0.00    -0.052 OA 
ATOM     34  C   GLU A   1      -7.913   2.479  67.263  1.00  0.00    -0.070 C  
ATOM     35  OXT GLU A   1      -7.649   1.634  68.105  1.00  0.00    -0.049 OA 
BRANCH  32  36
ATOM     36  CB  GLU A   1      -9.376   1.471  65.475  1.00  0.00     0.052 C  
BRANCH  36  37
ATOM     37  CG  GLU A   1      -9.050   1.947  64.054  1.00  0.00    -0.106 C  
ATOM     38  CD  GLU A   1      -7.575   1.893  63.743  1.00  0.00    -0.059 C  
ATOM     39  OE2 GLU A   1      -6.705   1.525  64.513  1.00  0.00    -0.021 OA 
ATOM     40  OE1 GLU A   1      -7.304   2.296  62.480  1.00  0.00    -0.035 OA 
ENDBRANCH  36  37
ENDBRANCH  32  36
ENDBRANCH  30  32
ENDBRANCH  25  28
ENDBRANCH   9  17
TORSDOF 6
ENDMDL
MODEL      236
REMARK 921   NORMALIZED FREE ENERGY PREDICTED BY IDOCK:   13.99 KCAL/MOL
REMARK 922        TOTAL FREE ENERGY PREDICTED BY IDOCK:   17.48 KCAL/MOL
REMARK 923 INTER-LIGAND FREE ENERGY PREDICTED BY IDOCK:   13.90 KCAL/MOL
REMARK 924 INTRA-LIGAND FREE ENERGY PREDICTED BY IDOCK:    3.58 KCAL/MOL
REMARK 927      BINDING AFFINITY PREDICTED BY RF-SCORE:    0.00 PKD
ROOT
HETATM    1  N   UNK A   0      -5.952  11.142  72.128  1.00  0.00     0.711 NA 
HETATM    2  C   UNK A   0      -6.706  11.296  70.990  1.00  0.00     1.777 A  
HETATM    3  H2  UNK A   0      -5.091  10.596  72.120  1.00  0.00     0.000 HD 
HETATM    4  H1  UNK A   0      -6.281  11.594  72.981  1.00  0.00     0.000 HD 
HETATM    5  N   UNK A   0      -6.276  10.709  69.878  1.00  0.00    -0.082 NA 
HETATM    6  C   UNK A   0      -6.960  10.928  68.756  1.00  0.00    -0.078 A  
HETATM    7  N   UNK A   0      -6.482  10.407  67.620  1.00  0.00    -0.058 NA 
HETATM    8  C   UNK A   0      -7.113  10.711  66.462  1.00  0.00    -0.133 A  
HETATM    9  C   UNK A   0      -8.238  11.519  66.406  1.00  0.00    -0.092 A  
HETATM   10  H2  UNK A   0     -10.435  12.460  69.703  1.00  0.00     0.000 HD 
HETATM   11  N   UNK A   0      -8.771  12.010  67.546  1.00  0.00    -0.159 NA 
HETATM   12  H1  UNK A   0      -9.925  13.396  70.968  1.00  0.00     0.000 HD 
HETATM   13  C   UNK A   0      -8.114  11.715  68.711  1.00  0.00    -0.072 A  
HETATM   14  C   UNK A   0      -8.482  12.243  69.942  1.00  0.00     2.677 A  
HETATM   15  N   UNK A   0      -9.655  13.009  70.064  1.00  0.00     2.653 NA 
HETATM   16  N   UNK A   0      -7.799  12.047  71.078  1.00  0.00     5.795 NA 
ENDROOT
BRANCH   9  17
HETATM   17  C   UNK A   0      -8.829  11.987  65.098  1.00  0.00     0.610 C  
HETATM   18  C   UNK A   0      -9.307   9.578  64.416  1.00  0.00    -0.120 A  
HETATM   19  C   UNK A   0      -8.127   9.317  63.698  1.00  0.00    -0.155 A  
HETATM   20  C   UNK A   0      -9.909   8.529  65.127  1.00  0.00     1.107 A  
HETATM   21  C   UNK A   0      -9.880  10.995  64.520  1.00  0.00    -0.343 C  
HETATM   22  C   UNK A   0      -9.284   7.285  65.219  1.00  0.00     0.536 A  
HETATM   23  C   UNK A   0      -7.499   8.071  63.787  1.00  0.00    -0.121 A  
HETATM   24  C   UNK A   0     -10.433  11.443  63.154  1.00  0.00    -0.323 C  
HETATM   25  C   UNK A   0      -8.049   7.075  64.599  1.00  0.00    -0.083 A  
BRANCH  24  26
HETATM   26  C   UNK A   0     -11.091  12.762  63.184  1.00  0.00     0.167 C  
HETATM   27  C   UNK A   0     -11.688  13.804  63.178  1.00  0.00     0.612 C  
ENDBRANCH  24  26
BRANCH  25  28
HETATM   28  C   UNK A   0      -7.294   5.816  64.816  1.00  0.00    -0.069 C  
HETATM   29  O   UNK A   0      -6.486   5.413  63.988  1.00  0.00    -0.028 OA 
ATOM     30  N   GLU A   1      -7.527   5.172  66.029  1.00  0.00    -0.081 N  
ATOM     31  H   GLU A   1      -8.267   5.498  66.651  1.00  0.00     0.000 HD 
BRANCH  30  32
ATOM     32  CA  GLU A   1      -6.692   4.013  66.406  1.00  0.00    -0.053 C  
ATOM     33  O   GLU A   1      -6.924   3.581  64.038  1.00  0.00    -0.046 OA 
ATOM     34  C   GLU A   1      -6.153   3.338  65.129  1.00  0.00    -0.023 C  
ATOM     35  OXT GLU A   1      -5.227   2.540  65.108  1.00  0.00    -0.007 OA 
BRANCH  32  36
ATOM     36  CB  GLU A   1      -7.518   3.003  67.222  1.00  0.00    -0.066 C  
BRANCH  36  37
ATOM     37  CG  GLU A   1      -8.264   3.642  68.400  1.00  0.00    -0.087 C  
ATOM     38  CD  GLU A   1      -9.614   4.190  68.009  1.00  0.00    -0.142 C  
ATOM     39  OE2 GLU A   1     -10.091   4.155  66.888  1.00  0.00    -0.167 OA 
ATOM     40  OE1 GLU A   1     -10.270   4.731  69.061  1.00  0.00    -0.155 OA 
ENDBRANCH  36  37
ENDBRANCH  32  36
ENDBRANCH  30  32
ENDBRANCH  25  28
ENDBRANCH   9  17
TORSDOF 6
ENDMDL
MODEL      237
REMARK 921   NORMALIZED FREE ENERGY PREDICTED BY IDOCK:   14.28 KCAL/MOL
REMARK 922        TOTAL FREE ENERGY PREDICTED BY IDOCK:   17.88 KCAL/MOL
REMARK 923 INTER-LIGAND FREE ENERGY PREDICTED BY IDOCK:   11.42 KCAL/MOL
REMARK 924 INTRA-LIGAND FREE ENERGY PREDICTED BY IDOCK:    6.46 KCAL/MOL
REMARK 927      BINDING AFFINITY PREDICTED BY RF-SCORE:    0.00 PKD
ROOT
HETATM    1  N   UNK A   0     -11.978  16.238  73.716  1.00  0.00    -0.357 NA 
HETATM    2  C   UNK A   0     -11.372  16.860  72.651  1.00  0.00     0.889 A  
HETATM    3  H2  UNK A   0     -12.180  15.239  73.697  1.00  0.00     0.000 HD 
HETATM    4  H1  UNK A   0     -12.219  16.809  74.526  1.00  0.00     0.000 HD 
HETATM    5  N   UNK A   0     -11.057  16.116  71.596  1.00  0.00     0.066 NA 
HETATM    6  C   UNK A   0     -10.393  16.700  70.600  1.00  0.00     1.033 A  
HETATM    7  N   UNK A   0     -10.002  15.935  69.575  1.00  0.00    -0.270 NA 
HETATM    8  C   UNK A   0      -9.238  16.499  68.610  1.00  0.00    -0.238 A  
HETATM    9  C   UNK A   0      -8.864  17.834  68.631  1.00  0.00    -0.261 A  
HETATM   10  H2  UNK A   0     -10.638  20.581  71.058  1.00  0.00     0.000 HD 
HETATM   11  N   UNK A   0      -9.294  18.640  69.626  1.00  0.00     0.461 NA 
HETATM   12  H1  UNK A   0     -10.544  20.613  72.708  1.00  0.00     0.000 HD 
HETATM   13  C   UNK A   0     -10.048  18.055  70.608  1.00  0.00     2.451 A  
HETATM   14  C   UNK A   0     -10.464  18.733  71.747  1.00  0.00     3.539 A  
HETATM   15  N   UNK A   0     -10.238  20.115  71.872  1.00  0.00     2.851 NA 
HETATM   16  N   UNK A   0     -11.118  18.160  72.767  1.00  0.00     1.989 NA 
ENDROOT
BRANCH   9  17
HETATM   17  C   UNK A   0      -7.876  18.408  67.643  1.00  0.00    -0.240 C  
HETATM   18  C   UNK A   0      -7.908  16.240  66.303  1.00  0.00    -0.140 A  
HETATM   19  C   UNK A   0      -6.812  15.596  66.905  1.00  0.00     0.155 A  
HETATM   20  C   UNK A   0      -8.982  15.460  65.853  1.00  0.00    -0.074 A  
HETATM   21  C   UNK A   0      -7.993  17.768  66.230  1.00  0.00    -0.283 C  
HETATM   22  C   UNK A   0      -9.017  14.088  66.107  1.00  0.00     0.179 A  
HETATM   23  C   UNK A   0      -6.843  14.222  67.159  1.00  0.00     0.412 A  
HETATM   24  C   UNK A   0      -6.941  18.308  65.243  1.00  0.00     0.210 C  
HETATM   25  C   UNK A   0      -7.976  13.480  66.812  1.00  0.00     0.354 A  
BRANCH  24  26
HETATM   26  C   UNK A   0      -7.014  19.766  65.036  1.00  0.00    -0.056 C  
HETATM   27  C   UNK A   0      -7.013  20.961  64.909  1.00  0.00     0.104 C  
ENDBRANCH  24  26
BRANCH  25  28
HETATM   28  C   UNK A   0      -8.068  12.059  67.230  1.00  0.00    -0.174 C  
HETATM   29  O   UNK A   0      -8.498  11.202  66.469  1.00  0.00    -0.155 OA 
ATOM     30  N   GLU A   1      -7.587  11.772  68.506  1.00  0.00    -0.125 N  
ATOM     31  H   GLU A   1      -7.314  12.527  69.135  1.00  0.00     0.000 HD 
BRANCH  30  32
ATOM     32  CA  GLU A   1      -7.475  10.363  68.937  1.00  0.00    -0.099 C  
ATOM     33  O   GLU A   1      -7.552  10.039  66.543  1.00  0.00    -0.102 OA 
ATOM     34  C   GLU A   1      -7.155   9.481  67.714  1.00  0.00    -0.081 C  
ATOM     35  OXT GLU A   1      -6.735   8.335  67.782  1.00  0.00    -0.063 OA 
BRANCH  32  36
ATOM     36  CB  GLU A   1      -8.790   9.898  69.588  1.00  0.00    -0.224 C  
BRANCH  36  37
ATOM     37  CG  GLU A   1      -9.848  11.004  69.673  1.00  0.00     0.271 C  
ATOM     38  CD  GLU A   1     -11.121  10.653  68.942  1.00  0.00    -0.261 C  
ATOM     39  OE2 GLU A   1     -11.320   9.616  68.332  1.00  0.00    -0.030 OA 
ATOM     40  OE1 GLU A   1     -12.053  11.628  69.042  1.00  0.00    -0.313 OA 
ENDBRANCH  36  37
ENDBRANCH  32  36
ENDBRANCH  30  32
ENDBRANCH  25  28
ENDBRANCH   9  17
TORSDOF 6
ENDMDL
MODEL      238
REMARK 921   NORMALIZED FREE ENERGY PREDICTED BY IDOCK:   15.23 KCAL/MOL
REMARK 922        TOTAL FREE ENERGY PREDICTED BY IDOCK:   19.16 KCAL/MOL
REMARK 923 INTER-LIGAND FREE ENERGY PREDICTED BY IDOCK:    1.23 KCAL/MOL
REMARK 924 INTRA-LIGAND FREE ENERGY PREDICTED BY IDOCK:   17.93 KCAL/MOL
REMARK 927      BINDING AFFINITY PREDICTED BY RF-SCORE:    0.00 PKD
ROOT
HETATM    1  N   UNK A   0     -12.200  12.183  63.476  1.00  0.00    -0.618 NA 
HETATM    2  C   UNK A   0     -11.384  11.427  64.282  1.00  0.00    -0.168 A  
HETATM    3  H2  UNK A   0     -12.017  12.271  62.476  1.00  0.00     0.000 HD 
HETATM    4  H1  UNK A   0     -12.996  12.651  63.910  1.00  0.00     0.000 HD 
HETATM    5  N   UNK A   0     -10.347  10.817  63.717  1.00  0.00    -0.299 NA 
HETATM    6  C   UNK A   0      -9.606  10.017  64.481  1.00  0.00    -0.279 A  
HETATM    7  N   UNK A   0      -8.614   9.336  63.895  1.00  0.00    -0.202 NA 
HETATM    8  C   UNK A   0      -7.923   8.443  64.643  1.00  0.00    -0.147 A  
HETATM    9  C   UNK A   0      -8.186   8.222  65.986  1.00  0.00    -0.119 A  
HETATM   10  H2  UNK A   0     -10.452  10.753  68.232  1.00  0.00     0.000 HD 
HETATM   11  N   UNK A   0      -9.145   8.938  66.612  1.00  0.00    -0.147 NA 
HETATM   12  H1  UNK A   0     -12.072  11.022  68.042  1.00  0.00     0.000 HD 
HETATM   13  C   UNK A   0      -9.853   9.823  65.843  1.00  0.00    -0.282 A  
HETATM   14  C   UNK A   0     -10.939  10.543  66.324  1.00  0.00     0.101 A  
HETATM   15  N   UNK A   0     -11.275  10.493  67.689  1.00  0.00    -0.378 NA 
HETATM   16  N   UNK A   0     -11.707  11.340  65.569  1.00  0.00     0.104 NA 
ENDROOT
BRANCH   9  17
HETATM   17  C   UNK A   0      -7.525   7.108  66.762  1.00  0.00    -0.089 C  
HETATM   18  C   UNK A   0      -9.467   7.064  68.413  1.00  0.00    -0.133 A  
HETATM   19  C   UNK A   0      -8.948   7.940  69.382  1.00  0.00    -0.145 A  
HETATM   20  C   UNK A   0     -10.851   7.045  68.195  1.00  0.00    -0.214 A  
HETATM   21  C   UNK A   0      -8.545   6.218  67.529  1.00  0.00    -0.107 C  
HETATM   22  C   UNK A   0     -11.683   7.963  68.838  1.00  0.00     1.379 A  
HETATM   23  C   UNK A   0      -9.778   8.859  70.030  1.00  0.00    -0.187 A  
HETATM   24  C   UNK A   0      -7.864   5.123  68.371  1.00  0.00    -0.087 C  
HETATM   25  C   UNK A   0     -11.138   8.909  69.710  1.00  0.00    -0.099 A  
BRANCH  24  26
HETATM   26  C   UNK A   0      -7.030   4.198  67.582  1.00  0.00    -0.056 C  
HETATM   27  C   UNK A   0      -6.321   3.504  66.905  1.00  0.00    -0.036 C  
ENDBRANCH  24  26
BRANCH  25  28
HETATM   28  C   UNK A   0     -11.978   9.992  70.280  1.00  0.00    -0.187 C  
HETATM   29  O   UNK A   0     -12.487   9.881  71.388  1.00  0.00    -0.339 OA 
ATOM     30  N   GLU A   1     -12.094  11.140  69.500  1.00  0.00    -0.333 N  
ATOM     31  H   GLU A   1     -11.722  11.157  68.550  1.00  0.00     0.000 HD 
BRANCH  30  32
ATOM     32  CA  GLU A   1     -12.762  12.333  70.062  1.00  0.00     0.339 C  
ATOM     33  O   GLU A   1     -11.517  13.382  68.275  1.00  0.00    -0.274 OA 
ATOM     34  C   GLU A   1     -12.595  13.515  69.087  1.00  0.00     0.417 C  
ATOM     35  OXT GLU A   1     -13.257  14.543  69.130  1.00  0.00     1.059 OA 
BRANCH  32  36
ATOM     36  CB  GLU A   1     -12.151  12.691  71.428  1.00  0.00     0.436 C  
BRANCH  36  37
ATOM     37  CG  GLU A   1     -11.013  13.714  71.334  1.00  0.00     3.106 C  
ATOM     38  CD  GLU A   1     -11.337  14.867  70.416  1.00  0.00    -0.243 C  
ATOM     39  OE2 GLU A   1     -12.376  15.001  69.793  1.00  0.00    -0.297 OA 
ATOM     40  OE1 GLU A   1     -10.333  15.772  70.359  1.00  0.00    -0.248 OA 
ENDBRANCH  36  37
ENDBRANCH  32  36
ENDBRANCH  30  32
ENDBRANCH  25  28
ENDBRANCH   9  17
TORSDOF 6
ENDMDL
MODEL      239
REMARK 921   NORMALIZED FREE ENERGY PREDICTED BY IDOCK:   15.66 KCAL/MOL
REMARK 922        TOTAL FREE ENERGY PREDICTED BY IDOCK:   19.74 KCAL/MOL
REMARK 923 INTER-LIGAND FREE ENERGY PREDICTED BY IDOCK:   16.40 KCAL/MOL
REMARK 924 INTRA-LIGAND FREE ENERGY PREDICTED BY IDOCK:    3.34 KCAL/MOL
REMARK 927      BINDING AFFINITY PREDICTED BY RF-SCORE:    0.00 PKD
ROOT
HETATM    1  N   UNK A   0     -11.777  15.750  73.917  1.00  0.00    -0.076 NA 
HETATM    2  C   UNK A   0     -11.357  15.711  72.609  1.00  0.00    -0.070 A  
HETATM    3  H2  UNK A   0     -12.670  16.171  74.171  1.00  0.00     0.000 HD 
HETATM    4  H1  UNK A   0     -11.166  15.342  74.625  1.00  0.00     0.000 HD 
HETATM    5  N   UNK A   0     -12.153  16.241  71.687  1.00  0.00    -0.398 NA 
HETATM    6  C   UNK A   0     -11.787  16.128  70.412  1.00  0.00    -0.152 A  
HETATM    7  N   UNK A   0     -12.627  16.586  69.477  1.00  0.00     0.881 NA 
HETATM    8  C   UNK A   0     -12.310  16.381  68.176  1.00  0.00     1.411 A  
HETATM    9  C   UNK A   0     -11.148  15.739  67.776  1.00  0.00    -0.313 A  
HETATM   10  H2  UNK A   0      -8.014  15.089  70.295  1.00  0.00     0.000 HD 
HETATM   11  N   UNK A   0     -10.258  15.319  68.701  1.00  0.00    -0.217 NA 
HETATM   12  H1  UNK A   0      -8.024  14.082  71.606  1.00  0.00     0.000 HD 
HETATM   13  C   UNK A   0     -10.597  15.510  70.014  1.00  0.00    -0.324 A  
HETATM   14  C   UNK A   0      -9.834  15.030  71.071  1.00  0.00     1.536 A  
HETATM   15  N   UNK A   0      -8.584  14.434  70.830  1.00  0.00     3.014 NA 
HETATM   16  N   UNK A   0     -10.193  15.119  72.359  1.00  0.00     2.306 NA 
ENDROOT
BRANCH   9  17
HETATM   17  C   UNK A   0     -10.888  15.368  66.336  1.00  0.00    -0.303 C  
HETATM   18  C   UNK A   0     -10.750  12.901  66.962  1.00  0.00    -0.273 A  
HETATM   19  C   UNK A   0      -9.361  12.804  67.155  1.00  0.00    -0.216 A  
HETATM   20  C   UNK A   0     -11.597  12.110  67.752  1.00  0.00    -0.410 A  
HETATM   21  C   UNK A   0     -11.350  13.923  65.991  1.00  0.00    -0.324 C  
HETATM   22  C   UNK A   0     -11.078  11.334  68.790  1.00  0.00    -0.288 A  
HETATM   23  C   UNK A   0      -8.838  12.026  68.192  1.00  0.00    -0.182 A  
HETATM   24  C   UNK A   0     -11.025  13.525  64.539  1.00  0.00    -0.405 C  
HETATM   25  C   UNK A   0      -9.705  11.340  69.048  1.00  0.00    -0.072 A  
BRANCH  24  26
HETATM   26  C   UNK A   0     -11.646  14.402  63.530  1.00  0.00     0.844 C  
HETATM   27  C   UNK A   0     -12.210  15.072  62.708  1.00  0.00     3.332 C  
ENDBRANCH  24  26
BRANCH  25  28
HETATM   28  C   UNK A   0      -9.152  10.650  70.240  1.00  0.00     1.195 C  
HETATM   29  O   UNK A   0      -9.773   9.755  70.798  1.00  0.00    -0.192 OA 
ATOM     30  N   GLU A   1      -7.877  11.052  70.633  1.00  0.00     1.648 N  
ATOM     31  H   GLU A   1      -7.432  11.857  70.191  1.00  0.00     0.000 HD 
BRANCH  30  32
ATOM     32  CA  GLU A   1      -7.178  10.302  71.697  1.00  0.00     2.289 C  
ATOM     33  O   GLU A   1      -6.662   8.885  69.808  1.00  0.00    -0.044 OA 
ATOM     34  C   GLU A   1      -6.260   9.244  71.053  1.00  0.00    -0.072 C  
ATOM     35  OXT GLU A   1      -5.358   8.664  71.640  1.00  0.00    -0.034 OA 
BRANCH  32  36
ATOM     36  CB  GLU A   1      -8.196   9.617  72.625  1.00  0.00     2.930 C  
BRANCH  36  37
ATOM     37  CG  GLU A   1      -7.973   8.105  72.760  1.00  0.00    -0.209 C  
ATOM     38  CD  GLU A   1      -8.809   7.302  71.794  1.00  0.00    -0.116 C  
ATOM     39  OE2 GLU A   1      -9.595   7.768  70.986  1.00  0.00    -0.160 OA 
ATOM     40  OE1 GLU A   1      -8.587   5.973  71.909  1.00  0.00    -0.135 OA 
ENDBRANCH  36  37
ENDBRANCH  32  36
ENDBRANCH  30  32
ENDBRANCH  25  28
ENDBRANCH   9  17
TORSDOF 6
ENDMDL
MODEL      240
REMARK 921   NORMALIZED FREE ENERGY PREDICTED BY IDOCK:   17.33 KCAL/MOL
REMARK 922        TOTAL FREE ENERGY PREDICTED BY IDOCK:   22.00 KCAL/MOL
REMARK 923 INTER-LIGAND FREE ENERGY PREDICTED BY IDOCK:   20.43 KCAL/MOL
REMARK 924 INTRA-LIGAND FREE ENERGY PREDICTED BY IDOCK:    1.57 KCAL/MOL
REMARK 927      BINDING AFFINITY PREDICTED BY RF-SCORE:    0.00 PKD
ROOT
HETATM    1  N   UNK A   0      -5.294  16.357  71.511  1.00  0.00     0.038 NA 
HETATM    2  C   UNK A   0      -5.876  15.119  71.638  1.00  0.00     0.440 A  
HETATM    3  H2  UNK A   0      -4.507  16.631  72.098  1.00  0.00     0.000 HD 
HETATM    4  H1  UNK A   0      -5.676  16.992  70.810  1.00  0.00     0.000 HD 
HETATM    5  N   UNK A   0      -5.379  14.291  72.551  1.00  0.00    -0.199 NA 
HETATM    6  C   UNK A   0      -5.886  13.061  72.616  1.00  0.00     1.326 A  
HETATM    7  N   UNK A   0      -5.331  12.200  73.476  1.00  0.00     0.089 NA 
HETATM    8  C   UNK A   0      -5.772  10.920  73.474  1.00  0.00     1.431 A  
HETATM    9  C   UNK A   0      -6.782  10.473  72.637  1.00  0.00     3.531 A  
HETATM   10  H2  UNK A   0      -9.257  13.006  70.626  1.00  0.00     0.000 HD 
HETATM   11  N   UNK A   0      -7.396  11.337  71.800  1.00  0.00     5.401 NA 
HETATM   12  H1  UNK A   0      -8.807  14.026  69.405  1.00  0.00     0.000 HD 
HETATM   13  C   UNK A   0      -6.929  12.624  71.793  1.00  0.00     6.040 A  
HETATM   14  C   UNK A   0      -7.387  13.592  70.907  1.00  0.00     3.142 A  
HETATM   15  N   UNK A   0      -8.471  13.316  70.055  1.00  0.00     2.550 NA 
HETATM   16  N   UNK A   0      -6.879  14.829  70.816  1.00  0.00     0.291 NA 
ENDROOT
BRANCH   9  17
HETATM   17  C   UNK A   0      -7.147   9.012  72.525  1.00  0.00     0.292 C  
HETATM   18  C   UNK A   0      -7.003   9.138  69.983  1.00  0.00    -0.054 A  
HETATM   19  C   UNK A   0      -8.353   9.414  69.703  1.00  0.00    -0.147 A  
HETATM   20  C   UNK A   0      -6.017   9.684  69.149  1.00  0.00    -0.034 A  
HETATM   21  C   UNK A   0      -6.594   8.348  71.230  1.00  0.00    -0.053 C  
HETATM   22  C   UNK A   0      -6.361  10.582  68.137  1.00  0.00    -0.058 A  
HETATM   23  C   UNK A   0      -8.701  10.311  68.689  1.00  0.00    -0.133 A  
HETATM   24  C   UNK A   0      -7.022   6.875  71.087  1.00  0.00    -0.069 C  
HETATM   25  C   UNK A   0      -7.698  10.941  67.947  1.00  0.00    -0.104 A  
BRANCH  24  26
HETATM   26  C   UNK A   0      -6.583   6.018  72.203  1.00  0.00    -0.059 C  
HETATM   27  C   UNK A   0      -6.231   5.378  73.157  1.00  0.00    -0.055 C  
ENDBRANCH  24  26
BRANCH  25  28
HETATM   28  C   UNK A   0      -8.069  12.010  66.986  1.00  0.00    -0.158 C  
HETATM   29  O   UNK A   0      -8.173  11.776  65.789  1.00  0.00     0.213 OA 
ATOM     30  N   GLU A   1      -8.337  13.258  67.544  1.00  0.00    -0.174 N  
ATOM     31  H   GLU A   1      -8.158  13.428  68.534  1.00  0.00     0.000 HD 
BRANCH  30  32
ATOM     32  CA  GLU A   1      -8.883  14.332  66.688  1.00  0.00    -0.139 C  
ATOM     33  O   GLU A   1      -8.958  15.454  68.828  1.00  0.00    -0.173 OA 
ATOM     34  C   GLU A   1      -8.916  15.650  67.486  1.00  0.00    -0.192 C  
ATOM     35  OXT GLU A   1      -9.049  16.757  66.984  1.00  0.00    -0.213 OA 
BRANCH  32  36
ATOM     36  CB  GLU A   1     -10.303  13.969  66.219  1.00  0.00    -0.294 C  
BRANCH  36  37
ATOM     37  CG  GLU A   1     -10.827  14.887  65.108  1.00  0.00    -0.428 C  
ATOM     38  CD  GLU A   1     -12.309  14.730  64.870  1.00  0.00    -0.252 C  
ATOM     39  OE2 GLU A   1     -13.041  13.960  65.468  1.00  0.00    -0.699 OA 
ATOM     40  OE1 GLU A   1     -12.761  15.560  63.902  1.00  0.00    -0.665 OA 
ENDBRANCH  36  37
ENDBRANCH  32  36
ENDBRANCH  30  32
ENDBRANCH  25  28
ENDBRANCH   9  17
TORSDOF 6
ENDMDL
MODEL      241
REMARK 921   NORMALIZED FREE ENERGY PREDICTED BY IDOCK:   17.64 KCAL/MOL
REMARK 922        TOTAL FREE ENERGY PREDICTED BY IDOCK:   22.42 KCAL/MOL
REMARK 923 INTER-LIGAND FREE ENERGY PREDICTED BY IDOCK:   23.08 KCAL/MOL
REMARK 924 INTRA-LIGAND FREE ENERGY PREDICTED BY IDOCK:   -0.66 KCAL/MOL
REMARK 927      BINDING AFFINITY PREDICTED BY RF-SCORE:    0.00 PKD
ROOT
HETATM    1  N   UNK A   0     -10.443  14.127  62.419  1.00  0.00     7.615 NA 
HETATM    2  C   UNK A   0      -9.998  12.896  62.838  1.00  0.00     2.737 A  
HETATM    3  H2  UNK A   0      -9.928  14.978  62.643  1.00  0.00     0.000 HD 
HETATM    4  H1  UNK A   0     -11.305  14.161  61.875  1.00  0.00     0.000 HD 
HETATM    5  N   UNK A   0      -8.874  12.852  63.545  1.00  0.00     2.592 NA 
HETATM    6  C   UNK A   0      -8.397  11.654  63.878  1.00  0.00     1.190 A  
HETATM    7  N   UNK A   0      -7.223  11.604  64.517  1.00  0.00     2.140 NA 
HETATM    8  C   UNK A   0      -6.682  10.388  64.767  1.00  0.00    -0.037 A  
HETATM    9  C   UNK A   0      -7.301   9.200  64.408  1.00  0.00    -0.100 A  
HETATM   10  H2  UNK A   0     -11.222   9.000  63.328  1.00  0.00     0.000 HD 
HETATM   11  N   UNK A   0      -8.513   9.225  63.813  1.00  0.00    -0.185 NA 
HETATM   12  H1  UNK A   0     -11.882   9.662  61.964  1.00  0.00     0.000 HD 
HETATM   13  C   UNK A   0      -9.042  10.459  63.544  1.00  0.00    -0.249 A  
HETATM   14  C   UNK A   0     -10.225  10.639  62.838  1.00  0.00     0.139 A  
HETATM   15  N   UNK A   0     -11.014   9.530  62.482  1.00  0.00     4.641 NA 
HETATM   16  N   UNK A   0     -10.713  11.834  62.480  1.00  0.00     0.797 NA 
ENDROOT
BRANCH   9  17
HETATM   17  C   UNK A   0      -6.612   7.863  64.538  1.00  0.00    -0.056 C  
HETATM   18  C   UNK A   0      -8.160   7.217  66.458  1.00  0.00    -0.114 A  
HETATM   19  C   UNK A   0      -7.362   7.644  67.534  1.00  0.00    -0.095 A  
HETATM   20  C   UNK A   0      -9.555   7.307  66.576  1.00  0.00    -0.211 A  
HETATM   21  C   UNK A   0      -7.537   6.762  65.134  1.00  0.00    -0.098 C  
HETATM   22  C   UNK A   0     -10.133   7.920  67.689  1.00  0.00    -0.262 A  
HETATM   23  C   UNK A   0      -7.939   8.257  68.650  1.00  0.00    -0.122 A  
HETATM   24  C   UNK A   0      -6.813   5.416  65.327  1.00  0.00    -0.053 C  
HETATM   25  C   UNK A   0      -9.323   8.448  68.697  1.00  0.00    -0.143 A  
BRANCH  24  26
HETATM   26  C   UNK A   0      -6.263   4.854  64.080  1.00  0.00    -0.022 C  
HETATM   27  C   UNK A   0      -5.812   4.465  63.037  1.00  0.00    -0.017 C  
ENDBRANCH  24  26
BRANCH  25  28
HETATM   28  C   UNK A   0      -9.908   9.242  69.806  1.00  0.00    -0.188 C  
HETATM   29  O   UNK A   0      -9.198   9.745  70.667  1.00  0.00    -0.165 OA 
ATOM     30  N   GLU A   1     -11.290   9.413  69.763  1.00  0.00    -0.425 N  
ATOM     31  H   GLU A   1     -11.850   8.908  69.076  1.00  0.00     0.000 HD 
BRANCH  30  32
ATOM     32  CA  GLU A   1     -11.936  10.332  70.723  1.00  0.00    -0.360 C  
ATOM     33  O   GLU A   1     -13.749  10.068  69.147  1.00  0.00     2.521 OA 
ATOM     34  C   GLU A   1     -13.448  10.394  70.429  1.00  0.00     0.370 C  
ATOM     35  OXT GLU A   1     -14.283  10.838  71.203  1.00  0.00     1.259 OA 
BRANCH  32  36
ATOM     36  CB  GLU A   1     -11.322  11.739  70.610  1.00  0.00     0.717 C  
BRANCH  36  37
ATOM     37  CG  GLU A   1     -12.096  12.663  69.663  1.00  0.00    -0.277 C  
ATOM     38  CD  GLU A   1     -12.306  14.044  70.235  1.00  0.00    -0.358 C  
ATOM     39  OE2 GLU A   1     -11.925  14.418  71.331  1.00  0.00    -0.344 OA 
ATOM     40  OE1 GLU A   1     -12.971  14.855  69.381  1.00  0.00     0.248 OA 
ENDBRANCH  36  37
ENDBRANCH  32  36
ENDBRANCH  30  32
ENDBRANCH  25  28
ENDBRANCH   9  17
TORSDOF 6
ENDMDL
MODEL      242
REMARK 921   NORMALIZED FREE ENERGY PREDICTED BY IDOCK:   20.53 KCAL/MOL
REMARK 922        TOTAL FREE ENERGY PREDICTED BY IDOCK:   26.32 KCAL/MOL
REMARK 923 INTER-LIGAND FREE ENERGY PREDICTED BY IDOCK:   25.90 KCAL/MOL
REMARK 924 INTRA-LIGAND FREE ENERGY PREDICTED BY IDOCK:    0.42 KCAL/MOL
REMARK 927      BINDING AFFINITY PREDICTED BY RF-SCORE:    0.00 PKD
ROOT
HETATM    1  N   UNK A   0      -8.975   9.382  73.771  1.00  0.00     2.323 NA 
HETATM    2  C   UNK A   0      -9.758   9.459  72.644  1.00  0.00     2.156 A  
HETATM    3  H2  UNK A   0      -7.959   9.440  73.711  1.00  0.00     0.000 HD 
HETATM    4  H1  UNK A   0      -9.445   9.265  74.668  1.00  0.00     0.000 HD 
HETATM    5  N   UNK A   0      -9.146   9.611  71.474  1.00  0.00     0.178 NA 
HETATM    6  C   UNK A   0      -9.906   9.772  70.392  1.00  0.00    -0.209 A  
HETATM    7  N   UNK A   0      -9.294  10.010  69.227  1.00  0.00    -0.201 NA 
HETATM    8  C   UNK A   0     -10.061  10.277  68.144  1.00  0.00    -0.150 A  
HETATM    9  C   UNK A   0     -11.447  10.294  68.188  1.00  0.00    -0.041 A  
HETATM   10  H2  UNK A   0     -13.569   8.719  71.286  1.00  0.00     0.000 HD 
HETATM   11  N   UNK A   0     -12.088  10.001  69.341  1.00  0.00     0.195 NA 
HETATM   12  H1  UNK A   0     -13.593   9.302  72.834  1.00  0.00     0.000 HD 
HETATM   13  C   UNK A   0     -11.304   9.754  70.436  1.00  0.00    -0.297 A  
HETATM   14  C   UNK A   0     -11.823   9.550  71.708  1.00  0.00    -0.360 A  
HETATM   15  N   UNK A   0     -13.212   9.451  71.900  1.00  0.00    -0.398 NA 
HETATM   16  N   UNK A   0     -11.075   9.403  72.811  1.00  0.00     1.435 NA 
ENDROOT
BRANCH   9  17
HETATM   17  C   UNK A   0     -12.284  10.758  67.020  1.00  0.00     2.565 C  
HETATM   18  C   UNK A   0     -10.310  12.075  66.088  1.00  0.00    -0.257 A  
HETATM   19  C   UNK A   0     -10.584  13.322  66.677  1.00  0.00    -0.283 A  
HETATM   20  C   UNK A   0      -8.973  11.702  65.893  1.00  0.00    -0.111 A  
HETATM   21  C   UNK A   0     -11.433  11.086  65.759  1.00  0.00     0.420 C  
HETATM   22  C   UNK A   0      -7.936  12.497  66.384  1.00  0.00     0.508 A  
HETATM   23  C   UNK A   0      -9.548  14.121  67.168  1.00  0.00    -0.244 A  
HETATM   24  C   UNK A   0     -12.282  11.620  64.590  1.00  0.00     0.134 C  
HETATM   25  C   UNK A   0      -8.226  13.676  67.075  1.00  0.00    -0.056 A  
BRANCH  24  26
HETATM   26  C   UNK A   0     -13.330  10.685  64.142  1.00  0.00     6.068 C  
HETATM   27  C   UNK A   0     -14.179   9.890  63.842  1.00  0.00    11.756 C  
ENDBRANCH  24  26
BRANCH  25  28
HETATM   28  C   UNK A   0      -7.151  14.452  67.741  1.00  0.00    -0.176 C  
HETATM   29  O   UNK A   0      -5.970  14.191  67.548  1.00  0.00    -0.337 OA 
ATOM     30  N   GLU A   1      -7.576  15.511  68.541  1.00  0.00    -0.122 N  
ATOM     31  H   GLU A   1      -8.568  15.640  68.739  1.00  0.00     0.000 HD 
BRANCH  30  32
ATOM     32  CA  GLU A   1      -6.575  16.443  69.099  1.00  0.00    -0.195 C  
ATOM     33  O   GLU A   1      -7.496  15.572  71.158  1.00  0.00     1.807 OA 
ATOM     34  C   GLU A   1      -6.408  16.167  70.607  1.00  0.00     0.617 C  
ATOM     35  OXT GLU A   1      -5.473  16.571  71.283  1.00  0.00    -0.000 OA 
BRANCH  32  36
ATOM     36  CB  GLU A   1      -7.022  17.899  68.881  1.00  0.00    -0.260 C  
BRANCH  36  37
ATOM     37  CG  GLU A   1      -8.450  18.174  69.367  1.00  0.00     0.449 C  
ATOM     38  CD  GLU A   1      -9.098  19.334  68.652  1.00  0.00    -0.380 C  
ATOM     39  OE2 GLU A   1      -8.573  20.009  67.783  1.00  0.00    -0.311 OA 
ATOM     40  OE1 GLU A   1     -10.364  19.553  69.076  1.00  0.00    -0.322 OA 
ENDBRANCH  36  37
ENDBRANCH  32  36
ENDBRANCH  30  32
ENDBRANCH  25  28
ENDBRANCH   9  17
TORSDOF 6
ENDMDL
MODEL      243
REMARK 921   NORMALIZED FREE ENERGY PREDICTED BY IDOCK:   22.24 KCAL/MOL
REMARK 922        TOTAL FREE ENERGY PREDICTED BY IDOCK:   28.63 KCAL/MOL
REMARK 923 INTER-LIGAND FREE ENERGY PREDICTED BY IDOCK:   28.40 KCAL/MOL
REMARK 924 INTRA-LIGAND FREE ENERGY PREDICTED BY IDOCK:    0.23 KCAL/MOL
REMARK 927      BINDING AFFINITY PREDICTED BY RF-SCORE:    0.00 PKD
ROOT
HETATM    1  N   UNK A   0     -13.649  10.127  64.084  1.00  0.00     7.605 NA 
HETATM    2  C   UNK A   0     -12.620  10.122  64.996  1.00  0.00     9.034 A  
HETATM    3  H2  UNK A   0     -13.858  10.958  63.531  1.00  0.00     0.000 HD 
HETATM    4  H1  UNK A   0     -14.195   9.272  63.980  1.00  0.00     0.000 HD 
HETATM    5  N   UNK A   0     -11.908  11.236  65.132  1.00  0.00     0.223 NA 
HETATM    6  C   UNK A   0     -10.859  11.205  65.952  1.00  0.00    -0.157 A  
HETATM    7  N   UNK A   0     -10.091  12.298  66.026  1.00  0.00    -0.243 NA 
HETATM    8  C   UNK A   0      -8.966  12.240  66.777  1.00  0.00    -0.209 A  
HETATM    9  C   UNK A   0      -8.589  11.107  67.483  1.00  0.00    -0.129 A  
HETATM   10  H2  UNK A   0     -11.138   8.013  68.202  1.00  0.00     0.000 HD 
HETATM   11  N   UNK A   0      -9.378  10.011  67.468  1.00  0.00    -0.143 NA 
HETATM   12  H1  UNK A   0     -11.765   6.995  67.059  1.00  0.00     0.000 HD 
HETATM   13  C   UNK A   0     -10.503  10.072  66.689  1.00  0.00    -0.174 A  
HETATM   14  C   UNK A   0     -11.345   8.985  66.489  1.00  0.00     2.076 A  
HETATM   15  N   UNK A   0     -11.146   7.792  67.206  1.00  0.00     0.024 NA 
HETATM   16  N   UNK A   0     -12.396   8.991  65.657  1.00  0.00    10.786 NA 
ENDROOT
BRANCH   9  17
HETATM   17  C   UNK A   0      -7.252  10.998  68.176  1.00  0.00    -0.083 C  
HETATM   18  C   UNK A   0      -7.269  13.499  68.670  1.00  0.00    -0.107 A  
HETATM   19  C   UNK A   0      -6.559  13.948  67.543  1.00  0.00    -0.104 A  
HETATM   20  C   UNK A   0      -8.275  14.318  69.204  1.00  0.00     0.097 A  
HETATM   21  C   UNK A   0      -7.038  12.101  69.253  1.00  0.00     0.041 C  
HETATM   22  C   UNK A   0      -8.646  15.498  68.556  1.00  0.00    -0.176 A  
HETATM   23  C   UNK A   0      -6.927  15.130  66.894  1.00  0.00     0.485 A  
HETATM   24  C   UNK A   0      -5.648  12.027  69.912  1.00  0.00    -0.110 C  
HETATM   25  C   UNK A   0      -8.012  15.872  67.368  1.00  0.00    -0.187 A  
BRANCH  24  26
HETATM   26  C   UNK A   0      -5.377  10.743  70.584  1.00  0.00    -0.093 C  
HETATM   27  C   UNK A   0      -5.139   9.669  71.066  1.00  0.00    -0.041 C  
ENDBRANCH  24  26
BRANCH  25  28
HETATM   28  C   UNK A   0      -8.497  17.034  66.582  1.00  0.00    -0.248 C  
HETATM   29  O   UNK A   0      -9.529  16.968  65.927  1.00  0.00    -0.492 OA 
ATOM     30  N   GLU A   1      -7.734  18.195  66.687  1.00  0.00    -0.225 N  
ATOM     31  H   GLU A   1      -6.839  18.180  67.176  1.00  0.00     0.000 HD 
BRANCH  30  32
ATOM     32  CA  GLU A   1      -8.235  19.447  66.083  1.00  0.00    -0.311 C  
ATOM     33  O   GLU A   1      -5.965  19.486  65.250  1.00  0.00    -0.193 OA 
ATOM     34  C   GLU A   1      -7.224  19.943  65.030  1.00  0.00     0.142 C  
ATOM     35  OXT GLU A   1      -7.473  20.782  64.176  1.00  0.00     0.379 OA 
BRANCH  32  36
ATOM     36  CB  GLU A   1      -8.431  20.521  67.167  1.00  0.00    -0.357 C  
BRANCH  36  37
ATOM     37  CG  GLU A   1      -9.463  20.128  68.230  1.00  0.00    -0.272 C  
ATOM     38  CD  GLU A   1      -8.882  20.089  69.622  1.00  0.00     0.734 C  
ATOM     39  OE2 GLU A   1      -7.722  20.328  69.909  1.00  0.00     0.328 OA 
ATOM     40  OE1 GLU A   1      -9.808  19.761  70.553  1.00  0.00     0.499 OA 
ENDBRANCH  36  37
ENDBRANCH  32  36
ENDBRANCH  30  32
ENDBRANCH  25  28
ENDBRANCH   9  17
TORSDOF 6
ENDMDL
MODEL      244
REMARK 921   NORMALIZED FREE ENERGY PREDICTED BY IDOCK:   23.34 KCAL/MOL
REMARK 922        TOTAL FREE ENERGY PREDICTED BY IDOCK:   30.12 KCAL/MOL
REMARK 923 INTER-LIGAND FREE ENERGY PREDICTED BY IDOCK:   28.75 KCAL/MOL
REMARK 924 INTRA-LIGAND FREE ENERGY PREDICTED BY IDOCK:    1.37 KCAL/MOL
REMARK 927      BINDING AFFINITY PREDICTED BY RF-SCORE:    0.00 PKD
ROOT
HETATM    1  N   UNK A   0      -5.126  16.443  63.003  1.00  0.00     5.992 NA 
HETATM    2  C   UNK A   0      -5.808  17.100  63.999  1.00  0.00     5.699 A  
HETATM    3  H2  UNK A   0      -4.709  15.527  63.167  1.00  0.00     0.000 HD 
HETATM    4  H1  UNK A   0      -5.052  16.902  62.096  1.00  0.00     0.000 HD 
HETATM    5  N   UNK A   0      -5.906  16.502  65.182  1.00  0.00     3.508 NA 
HETATM    6  C   UNK A   0      -6.639  17.098  66.120  1.00  0.00    -0.056 A  
HETATM    7  N   UNK A   0      -6.809  16.458  67.282  1.00  0.00    -0.168 NA 
HETATM    8  C   UNK A   0      -7.636  17.009  68.201  1.00  0.00    -0.194 A  
HETATM    9  C   UNK A   0      -8.295  18.212  67.997  1.00  0.00    -0.261 A  
HETATM   10  H2  UNK A   0      -7.272  20.804  65.028  1.00  0.00     0.000 HD 
HETATM   11  N   UNK A   0      -8.095  18.904  66.854  1.00  0.00    -0.258 NA 
HETATM   12  H1  UNK A   0      -7.442  20.528  63.406  1.00  0.00     0.000 HD 
HETATM   13  C   UNK A   0      -7.274  18.328  65.922  1.00  0.00    -0.235 A  
HETATM   14  C   UNK A   0      -7.066  18.870  64.659  1.00  0.00     1.477 A  
HETATM   15  N   UNK A   0      -7.595  20.131  64.332  1.00  0.00     0.576 NA 
HETATM   16  N   UNK A   0      -6.346  18.278  63.696  1.00  0.00     2.243 NA 
ENDROOT
BRANCH   9  17
HETATM   17  C   UNK A   0      -9.342  18.729  68.954  1.00  0.00    -0.302 C  
HETATM   18  C   UNK A   0      -9.844  16.355  69.737  1.00  0.00     0.088 A  
HETATM   19  C   UNK A   0     -10.904  16.058  68.864  1.00  0.00    -0.286 A  
HETATM   20  C   UNK A   0      -8.982  15.320  70.127  1.00  0.00     0.512 A  
HETATM   21  C   UNK A   0      -9.555  17.793  70.180  1.00  0.00     1.787 C  
HETATM   22  C   UNK A   0      -9.101  14.049  69.563  1.00  0.00     0.784 A  
HETATM   23  C   UNK A   0     -11.027  14.785  68.299  1.00  0.00    -0.264 A  
HETATM   24  C   UNK A   0     -10.669  18.290  71.121  1.00  0.00     2.767 C  
HETATM   25  C   UNK A   0     -10.086  13.798  68.605  1.00  0.00    -0.195 A  
BRANCH  24  26
HETATM   26  C   UNK A   0     -10.424  19.635  71.673  1.00  0.00     3.390 C  
HETATM   27  C   UNK A   0     -10.153  20.712  72.130  1.00  0.00     3.830 C  
ENDBRANCH  24  26
BRANCH  25  28
HETATM   28  C   UNK A   0     -10.129  12.504  67.879  1.00  0.00    -0.214 C  
HETATM   29  O   UNK A   0     -10.445  12.453  66.697  1.00  0.00    -0.227 OA 
ATOM     30  N   GLU A   1      -9.737  11.387  68.612  1.00  0.00    -0.241 N  
ATOM     31  H   GLU A   1      -9.560  11.464  69.614  1.00  0.00     0.000 HD 
BRANCH  30  32
ATOM     32  CA  GLU A   1      -9.579  10.088  67.924  1.00  0.00    -0.145 C  
ATOM     33  O   GLU A   1      -8.023   9.763  69.745  1.00  0.00    -0.127 OA 
ATOM     34  C   GLU A   1      -8.800   9.121  68.836  1.00  0.00    -0.139 C  
ATOM     35  OXT GLU A   1      -8.750   7.910  68.675  1.00  0.00    -0.128 OA 
BRANCH  32  36
ATOM     36  CB  GLU A   1      -8.825  10.277  66.596  1.00  0.00    -0.148 C  
BRANCH  36  37
ATOM     37  CG  GLU A   1      -8.296   8.963  66.007  1.00  0.00    -0.128 C  
ATOM     38  CD  GLU A   1      -6.861   9.061  65.554  1.00  0.00    -0.073 C  
ATOM     39  OE2 GLU A   1      -6.167  10.061  65.623  1.00  0.00    -0.074 OA 
ATOM     40  OE1 GLU A   1      -6.401   7.890  65.056  1.00  0.00    -0.041 OA 
ENDBRANCH  36  37
ENDBRANCH  32  36
ENDBRANCH  30  32
ENDBRANCH  25  28
ENDBRANCH   9  17
TORSDOF 6
ENDMDL
MODEL      245
REMARK 921   NORMALIZED FREE ENERGY PREDICTED BY IDOCK:   23.83 KCAL/MOL
REMARK 922        TOTAL FREE ENERGY PREDICTED BY IDOCK:   30.78 KCAL/MOL
REMARK 923 INTER-LIGAND FREE ENERGY PREDICTED BY IDOCK:   29.25 KCAL/MOL
REMARK 924 INTRA-LIGAND FREE ENERGY PREDICTED BY IDOCK:    1.53 KCAL/MOL
REMARK 927      BINDING AFFINITY PREDICTED BY RF-SCORE:    0.00 PKD
ROOT
HETATM    1  N   UNK A   0      -5.126  16.443  63.003  1.00  0.00     5.992 NA 
HETATM    2  C   UNK A   0      -5.808  17.100  63.999  1.00  0.00     5.699 A  
HETATM    3  H2  UNK A   0      -4.709  15.527  63.167  1.00  0.00     0.000 HD 
HETATM    4  H1  UNK A   0      -5.052  16.902  62.096  1.00  0.00     0.000 HD 
HETATM    5  N   UNK A   0      -5.906  16.502  65.182  1.00  0.00     3.508 NA 
HETATM    6  C   UNK A   0      -6.639  17.098  66.120  1.00  0.00    -0.056 A  
HETATM    7  N   UNK A   0      -6.809  16.458  67.282  1.00  0.00    -0.168 NA 
HETATM    8  C   UNK A   0      -7.636  17.009  68.201  1.00  0.00    -0.194 A  
HETATM    9  C   UNK A   0      -8.295  18.212  67.997  1.00  0.00    -0.261 A  
HETATM   10  H2  UNK A   0      -7.272  20.804  65.028  1.00  0.00     0.000 HD 
HETATM   11  N   UNK A   0      -8.095  18.904  66.854  1.00  0.00    -0.258 NA 
HETATM   12  H1  UNK A   0      -7.442  20.528  63.406  1.00  0.00     0.000 HD 
HETATM   13  C   UNK A   0      -7.274  18.328  65.922  1.00  0.00    -0.235 A  
HETATM   14  C   UNK A   0      -7.066  18.870  64.659  1.00  0.00     1.477 A  
HETATM   15  N   UNK A   0      -7.595  20.131  64.332  1.00  0.00     0.576 NA 
HETATM   16  N   UNK A   0      -6.346  18.278  63.696  1.00  0.00     2.243 NA 
ENDROOT
BRANCH   9  17
HETATM   17  C   UNK A   0      -9.342  18.729  68.954  1.00  0.00    -0.302 C  
HETATM   18  C   UNK A   0      -9.844  16.355  69.737  1.00  0.00     0.088 A  
HETATM   19  C   UNK A   0     -10.904  16.058  68.864  1.00  0.00    -0.286 A  
HETATM   20  C   UNK A   0      -8.982  15.320  70.127  1.00  0.00     0.512 A  
HETATM   21  C   UNK A   0      -9.555  17.793  70.180  1.00  0.00     1.787 C  
HETATM   22  C   UNK A   0      -9.101  14.049  69.563  1.00  0.00     0.784 A  
HETATM   23  C   UNK A   0     -11.027  14.785  68.299  1.00  0.00    -0.264 A  
HETATM   24  C   UNK A   0     -10.669  18.290  71.121  1.00  0.00     2.767 C  
HETATM   25  C   UNK A   0     -10.086  13.798  68.605  1.00  0.00    -0.195 A  
BRANCH  24  26
HETATM   26  C   UNK A   0     -10.424  19.635  71.673  1.00  0.00     3.390 C  
HETATM   27  C   UNK A   0     -10.153  20.712  72.130  1.00  0.00     3.830 C  
ENDBRANCH  24  26
BRANCH  25  28
HETATM   28  C   UNK A   0     -10.129  12.504  67.879  1.00  0.00    -0.214 C  
HETATM   29  O   UNK A   0     -10.445  12.453  66.697  1.00  0.00    -0.227 OA 
ATOM     30  N   GLU A   1      -9.737  11.387  68.612  1.00  0.00    -0.241 N  
ATOM     31  H   GLU A   1      -9.560  11.464  69.614  1.00  0.00     0.000 HD 
BRANCH  30  32
ATOM     32  CA  GLU A   1      -9.579  10.088  67.924  1.00  0.00    -0.145 C  
ATOM     33  O   GLU A   1     -11.990  10.161  68.084  1.00  0.00     0.041 OA 
ATOM     34  C   GLU A   1     -10.951   9.622  67.398  1.00  0.00    -0.069 C  
ATOM     35  OXT GLU A   1     -11.107   8.744  66.562  1.00  0.00     0.416 OA 
BRANCH  32  36
ATOM     36  CB  GLU A   1      -9.005   9.038  68.891  1.00  0.00    -0.140 C  
BRANCH  36  37
ATOM     37  CG  GLU A   1      -9.156   7.599  68.383  1.00  0.00    -0.130 C  
ATOM     38  CD  GLU A   1      -9.685   6.659  69.438  1.00  0.00    -0.147 C  
ATOM     39  OE2 GLU A   1      -9.966   6.971  70.583  1.00  0.00    -0.186 OA 
ATOM     40  OE1 GLU A   1      -9.833   5.399  68.971  1.00  0.00    -0.142 OA 
ENDBRANCH  36  37
ENDBRANCH  32  36
ENDBRANCH  30  32
ENDBRANCH  25  28
ENDBRANCH   9  17
TORSDOF 6
ENDMDL
MODEL      246
REMARK 921   NORMALIZED FREE ENERGY PREDICTED BY IDOCK:   23.94 KCAL/MOL
REMARK 922        TOTAL FREE ENERGY PREDICTED BY IDOCK:   30.93 KCAL/MOL
REMARK 923 INTER-LIGAND FREE ENERGY PREDICTED BY IDOCK:   28.90 KCAL/MOL
REMARK 924 INTRA-LIGAND FREE ENERGY PREDICTED BY IDOCK:    2.03 KCAL/MOL
REMARK 927      BINDING AFFINITY PREDICTED BY RF-SCORE:    0.00 PKD
ROOT
HETATM    1  N   UNK A   0      -5.913  14.938  73.608  1.00  0.00     0.451 NA 
HETATM    2  C   UNK A   0      -6.347  15.442  72.406  1.00  0.00     2.036 A  
HETATM    3  H2  UNK A   0      -5.996  15.480  74.467  1.00  0.00     0.000 HD 
HETATM    4  H1  UNK A   0      -5.504  14.004  73.611  1.00  0.00     0.000 HD 
HETATM    5  N   UNK A   0      -6.880  16.660  72.401  1.00  0.00     6.356 NA 
HETATM    6  C   UNK A   0      -7.379  17.114  71.253  1.00  0.00     5.859 A  
HETATM    7  N   UNK A   0      -7.991  18.304  71.264  1.00  0.00     6.550 NA 
HETATM    8  C   UNK A   0      -8.591  18.726  70.126  1.00  0.00     1.915 A  
HETATM    9  C   UNK A   0      -8.579  17.989  68.951  1.00  0.00    -0.112 A  
HETATM   10  H2  UNK A   0      -6.056  14.850  68.346  1.00  0.00     0.000 HD 
HETATM   11  N   UNK A   0      -7.919  16.812  68.900  1.00  0.00    -0.249 NA 
HETATM   12  H1  UNK A   0      -6.100  13.408  69.154  1.00  0.00     0.000 HD 
HETATM   13  C   UNK A   0      -7.334  16.383  70.062  1.00  0.00     0.766 A  
HETATM   14  C   UNK A   0      -6.720  15.143  70.188  1.00  0.00    -0.072 A  
HETATM   15  N   UNK A   0      -6.551  14.318  69.062  1.00  0.00    -0.099 NA 
HETATM   16  N   UNK A   0      -6.227  14.661  71.337  1.00  0.00     0.143 NA 
ENDROOT
BRANCH   9  17
HETATM   17  C   UNK A   0      -9.392  18.389  67.743  1.00  0.00    -0.283 C  
HETATM   18  C   UNK A   0     -10.233  15.997  67.477  1.00  0.00    -0.275 A  
HETATM   19  C   UNK A   0      -9.266  15.526  66.572  1.00  0.00    -0.324 A  
HETATM   20  C   UNK A   0     -10.764  15.106  68.420  1.00  0.00    -0.248 A  
HETATM   21  C   UNK A   0     -10.632  17.476  67.519  1.00  0.00    -0.333 C  
HETATM   22  C   UNK A   0     -10.254  13.811  68.537  1.00  0.00    -0.235 A  
HETATM   23  C   UNK A   0      -8.755  14.230  66.685  1.00  0.00    -0.098 A  
HETATM   24  C   UNK A   0     -11.422  17.846  66.249  1.00  0.00     1.584 C  
HETATM   25  C   UNK A   0      -9.209  13.394  67.709  1.00  0.00    -0.211 A  
BRANCH  24  26
HETATM   26  C   UNK A   0     -11.930  19.230  66.249  1.00  0.00     2.869 C  
HETATM   27  C   UNK A   0     -12.283  20.378  66.212  1.00  0.00     3.976 C  
ENDBRANCH  24  26
BRANCH  25  28
HETATM   28  C   UNK A   0      -8.547  12.083  67.922  1.00  0.00    -0.165 C  
HETATM   29  O   UNK A   0      -7.361  12.013  68.216  1.00  0.00    -0.081 OA 
ATOM     30  N   GLU A   1      -9.373  10.966  67.818  1.00  0.00    -0.155 N  
ATOM     31  H   GLU A   1     -10.334  11.064  67.491  1.00  0.00     0.000 HD 
BRANCH  30  32
ATOM     32  CA  GLU A   1      -8.843   9.636  68.187  1.00  0.00    -0.119 C  
ATOM     33  O   GLU A   1      -9.701  10.331  70.338  1.00  0.00     0.041 OA 
ATOM     34  C   GLU A   1      -9.361   9.253  69.587  1.00  0.00    -0.179 C  
ATOM     35  OXT GLU A   1      -9.331   8.121  70.048  1.00  0.00    -0.158 OA 
BRANCH  32  36
ATOM     36  CB  GLU A   1      -7.304   9.657  68.187  1.00  0.00    -0.081 C  
BRANCH  36  37
ATOM     37  CG  GLU A   1      -6.686   8.777  67.094  1.00  0.00    -0.066 C  
ATOM     38  CD  GLU A   1      -6.340   7.393  67.584  1.00  0.00    -0.052 C  
ATOM     39  OE2 GLU A   1      -6.511   6.984  68.720  1.00  0.00    -0.030 OA 
ATOM     40  OE1 GLU A   1      -5.815   6.620  66.606  1.00  0.00    -0.017 OA 
ENDBRANCH  36  37
ENDBRANCH  32  36
ENDBRANCH  30  32
ENDBRANCH  25  28
ENDBRANCH   9  17
TORSDOF 6
ENDMDL
MODEL      247
REMARK 921   NORMALIZED FREE ENERGY PREDICTED BY IDOCK:   26.42 KCAL/MOL
REMARK 922        TOTAL FREE ENERGY PREDICTED BY IDOCK:   34.28 KCAL/MOL
REMARK 923 INTER-LIGAND FREE ENERGY PREDICTED BY IDOCK:   35.75 KCAL/MOL
REMARK 924 INTRA-LIGAND FREE ENERGY PREDICTED BY IDOCK:   -1.47 KCAL/MOL
REMARK 927      BINDING AFFINITY PREDICTED BY RF-SCORE:    0.00 PKD
ROOT
HETATM    1  N   UNK A   0     -12.903  11.972  63.430  1.00  0.00    -0.784 NA 
HETATM    2  C   UNK A   0     -11.948  10.995  63.573  1.00  0.00     1.151 A  
HETATM    3  H2  UNK A   0     -12.746  12.917  63.779  1.00  0.00     0.000 HD 
HETATM    4  H1  UNK A   0     -13.774  11.720  62.963  1.00  0.00     0.000 HD 
HETATM    5  N   UNK A   0     -10.812  11.323  64.180  1.00  0.00    -0.360 NA 
HETATM    6  C   UNK A   0      -9.853  10.401  64.243  1.00  0.00    -0.322 A  
HETATM    7  N   UNK A   0      -8.679  10.755  64.778  1.00  0.00    -0.150 NA 
HETATM    8  C   UNK A   0      -7.667   9.857  64.752  1.00  0.00    -0.138 A  
HETATM    9  C   UNK A   0      -7.801   8.586  64.213  1.00  0.00    -0.142 A  
HETATM   10  H2  UNK A   0     -11.423   6.919  63.384  1.00  0.00     0.000 HD 
HETATM   11  N   UNK A   0      -8.993   8.187  63.718  1.00  0.00     0.670 NA 
HETATM   12  H1  UNK A   0     -12.479   7.436  62.221  1.00  0.00     0.000 HD 
HETATM   13  C   UNK A   0     -10.005   9.110  63.729  1.00  0.00     2.460 A  
HETATM   14  C   UNK A   0     -11.247   8.878  63.153  1.00  0.00    12.007 A  
HETATM   15  N   UNK A   0     -11.567   7.607  62.644  1.00  0.00    15.362 NA 
HETATM   16  N   UNK A   0     -12.219   9.797  63.066  1.00  0.00     8.155 NA 
ENDROOT
BRANCH   9  17
HETATM   17  C   UNK A   0      -6.623   7.658  64.036  1.00  0.00    -0.053 C  
HETATM   18  C   UNK A   0      -6.898   6.804  66.422  1.00  0.00    -0.061 A  
HETATM   19  C   UNK A   0      -6.009   7.680  67.070  1.00  0.00    -0.047 A  
HETATM   20  C   UNK A   0      -8.039   6.370  67.111  1.00  0.00    -0.113 A  
HETATM   21  C   UNK A   0      -6.697   6.406  64.956  1.00  0.00    -0.039 C  
HETATM   22  C   UNK A   0      -8.349   6.893  68.368  1.00  0.00    -0.120 A  
HETATM   23  C   UNK A   0      -6.316   8.203  68.329  1.00  0.00    -0.051 A  
HETATM   24  C   UNK A   0      -5.462   5.494  64.821  1.00  0.00    -0.016 C  
HETATM   25  C   UNK A   0      -7.519   7.855  68.950  1.00  0.00    -0.094 A  
BRANCH  24  26
HETATM   26  C   UNK A   0      -5.248   4.984  63.454  1.00  0.00    -0.009 C  
HETATM   27  C   UNK A   0      -5.134   4.525  62.350  1.00  0.00    -0.005 C  
ENDBRANCH  24  26
BRANCH  25  28
HETATM   28  C   UNK A   0      -7.912   8.538  70.207  1.00  0.00    -0.103 C  
HETATM   29  O   UNK A   0      -7.273   9.491  70.635  1.00  0.00    -0.119 OA 
ATOM     30  N   GLU A   1      -9.068   8.060  70.820  1.00  0.00    -0.143 N  
ATOM     31  H   GLU A   1      -9.521   7.213  70.474  1.00  0.00     0.000 HD 
BRANCH  30  32
ATOM     32  CA  GLU A   1      -9.631   8.790  71.974  1.00  0.00    -0.286 C  
ATOM     33  O   GLU A   1      -9.252   6.640  73.012  1.00  0.00    -0.132 OA 
ATOM     34  C   GLU A   1      -9.403   7.966  73.257  1.00  0.00    -0.286 C  
ATOM     35  OXT GLU A   1      -9.501   8.413  74.391  1.00  0.00     1.245 OA 
BRANCH  32  36
ATOM     36  CB  GLU A   1     -11.136   9.033  71.769  1.00  0.00    -0.444 C  
BRANCH  36  37
ATOM     37  CG  GLU A   1     -11.503   9.381  70.321  1.00  0.00    -0.223 C  
ATOM     38  CD  GLU A   1     -12.306  10.653  70.210  1.00  0.00    -0.325 C  
ATOM     39  OE2 GLU A   1     -12.653  11.351  71.148  1.00  0.00    -0.394 OA 
ATOM     40  OE1 GLU A   1     -12.605  10.958  68.927  1.00  0.00    -0.338 OA 
ENDBRANCH  36  37
ENDBRANCH  32  36
ENDBRANCH  30  32
ENDBRANCH  25  28
ENDBRANCH   9  17
TORSDOF 6
ENDMDL
MODEL      248
REMARK 921   NORMALIZED FREE ENERGY PREDICTED BY IDOCK:   27.33 KCAL/MOL
REMARK 922        TOTAL FREE ENERGY PREDICTED BY IDOCK:   35.50 KCAL/MOL
REMARK 923 INTER-LIGAND FREE ENERGY PREDICTED BY IDOCK:   29.26 KCAL/MOL
REMARK 924 INTRA-LIGAND FREE ENERGY PREDICTED BY IDOCK:    6.24 KCAL/MOL
REMARK 927      BINDING AFFINITY PREDICTED BY RF-SCORE:    0.00 PKD
ROOT
HETATM    1  N   UNK A   0     -11.598  12.581  72.096  1.00  0.00     2.946 NA 
HETATM    2  C   UNK A   0     -11.194  11.298  72.374  1.00  0.00     6.860 A  
HETATM    3  H2  UNK A   0     -11.022  13.204  71.531  1.00  0.00     0.000 HD 
HETATM    4  H1  UNK A   0     -12.494  12.890  72.475  1.00  0.00     0.000 HD 
HETATM    5  N   UNK A   0     -10.027  10.895  71.881  1.00  0.00     6.515 NA 
HETATM    6  C   UNK A   0      -9.675   9.626  72.078  1.00  0.00     1.715 A  
HETATM    7  N   UNK A   0      -8.542   9.196  71.511  1.00  0.00    -0.338 NA 
HETATM    8  C   UNK A   0      -8.231   7.883  71.619  1.00  0.00    -0.115 A  
HETATM    9  C   UNK A   0      -9.022   6.975  72.306  1.00  0.00    -0.133 A  
HETATM   10  H2  UNK A   0     -11.965   8.125  74.876  1.00  0.00     0.000 HD 
HETATM   11  N   UNK A   0     -10.141   7.397  72.934  1.00  0.00    -0.218 NA 
HETATM   12  H1  UNK A   0     -13.363   8.903  74.455  1.00  0.00     0.000 HD 
HETATM   13  C   UNK A   0     -10.460   8.722  72.801  1.00  0.00     0.349 A  
HETATM   14  C   UNK A   0     -11.636   9.272  73.296  1.00  0.00     3.226 A  
HETATM   15  N   UNK A   0     -12.500   8.499  74.092  1.00  0.00     5.095 NA 
HETATM   16  N   UNK A   0     -12.016  10.542  73.096  1.00  0.00     4.569 NA 
ENDROOT
BRANCH   9  17
HETATM   17  C   UNK A   0      -8.754   5.490  72.277  1.00  0.00    -0.129 C  
HETATM   18  C   UNK A   0      -7.310   5.760  70.193  1.00  0.00    -0.073 A  
HETATM   19  C   UNK A   0      -8.293   5.522  69.216  1.00  0.00    -0.101 A  
HETATM   20  C   UNK A   0      -6.281   6.668  69.906  1.00  0.00    -0.038 A  
HETATM   21  C   UNK A   0      -7.405   5.133  71.588  1.00  0.00    -0.083 C  
HETATM   22  C   UNK A   0      -6.300   7.410  68.724  1.00  0.00    -0.036 A  
HETATM   23  C   UNK A   0      -8.313   6.262  68.031  1.00  0.00    -0.114 A  
HETATM   24  C   UNK A   0      -7.165   3.613  71.501  1.00  0.00    -0.039 C  
HETATM   25  C   UNK A   0      -7.348   7.250  67.815  1.00  0.00    -0.093 A  
BRANCH  24  26
HETATM   26  C   UNK A   0      -7.143   2.940  72.812  1.00  0.00    -0.039 C  
HETATM   27  C   UNK A   0      -7.056   2.416  73.890  1.00  0.00    -0.032 C  
ENDBRANCH  24  26
BRANCH  25  28
HETATM   28  C   UNK A   0      -7.472   8.139  66.633  1.00  0.00    -0.089 C  
HETATM   29  O   UNK A   0      -8.535   8.682  66.358  1.00  0.00    -0.106 OA 
ATOM     30  N   GLU A   1      -6.301   8.349  65.909  1.00  0.00    -0.052 N  
ATOM     31  H   GLU A   1      -5.459   7.814  66.125  1.00  0.00     0.000 HD 
BRANCH  30  32
ATOM     32  CA  GLU A   1      -6.289   9.355  64.826  1.00  0.00    -0.078 C  
ATOM     33  O   GLU A   1      -5.949  10.813  66.725  1.00  0.00    -0.061 OA 
ATOM     34  C   GLU A   1      -5.773  10.696  65.384  1.00  0.00    -0.133 C  
ATOM     35  OXT GLU A   1      -5.390  11.629  64.693  1.00  0.00     0.629 OA 
BRANCH  32  36
ATOM     36  CB  GLU A   1      -7.705   9.537  64.252  1.00  0.00    -0.124 C  
BRANCH  36  37
ATOM     37  CG  GLU A   1      -8.072   8.485  63.199  1.00  0.00    -0.165 C  
ATOM     38  CD  GLU A   1      -7.916   7.072  63.705  1.00  0.00    -0.070 C  
ATOM     39  OE2 GLU A   1      -7.534   6.761  64.820  1.00  0.00    -0.082 OA 
ATOM     40  OE1 GLU A   1      -8.262   6.154  62.773  1.00  0.00    -0.106 OA 
ENDBRANCH  36  37
ENDBRANCH  32  36
ENDBRANCH  30  32
ENDBRANCH  25  28
ENDBRANCH   9  17
TORSDOF 6
ENDMDL
MODEL      249
REMARK 921   NORMALIZED FREE ENERGY PREDICTED BY IDOCK:   27.66 KCAL/MOL
REMARK 922        TOTAL FREE ENERGY PREDICTED BY IDOCK:   35.95 KCAL/MOL
REMARK 923 INTER-LIGAND FREE ENERGY PREDICTED BY IDOCK:   14.48 KCAL/MOL
REMARK 924 INTRA-LIGAND FREE ENERGY PREDICTED BY IDOCK:   21.47 KCAL/MOL
REMARK 927      BINDING AFFINITY PREDICTED BY RF-SCORE:    0.00 PKD
ROOT
HETATM    1  N   UNK A   0     -10.780   7.251  73.825  1.00  0.00    -0.486 NA 
HETATM    2  C   UNK A   0     -10.123   8.203  73.084  1.00  0.00    -0.132 A  
HETATM    3  H2  UNK A   0     -11.639   6.820  73.486  1.00  0.00     0.000 HD 
HETATM    4  H1  UNK A   0     -10.378   6.989  74.725  1.00  0.00     0.000 HD 
HETATM    5  N   UNK A   0     -10.645   8.545  71.910  1.00  0.00    -0.295 NA 
HETATM    6  C   UNK A   0      -9.964   9.404  71.154  1.00  0.00    -0.241 A  
HETATM    7  N   UNK A   0     -10.445   9.684  69.938  1.00  0.00    -0.233 NA 
HETATM    8  C   UNK A   0      -9.707  10.474  69.124  1.00  0.00    -0.211 A  
HETATM    9  C   UNK A   0      -8.489  11.018  69.504  1.00  0.00     0.322 A  
HETATM   10  H2  UNK A   0      -7.240  11.123  73.379  1.00  0.00     0.000 HD 
HETATM   11  N   UNK A   0      -8.011  10.795  70.748  1.00  0.00     1.568 NA 
HETATM   12  H1  UNK A   0      -6.850   9.808  74.302  1.00  0.00     0.000 HD 
HETATM   13  C   UNK A   0      -8.754   9.977  71.556  1.00  0.00     2.620 A  
HETATM   14  C   UNK A   0      -8.332   9.570  72.815  1.00  0.00     2.661 A  
HETATM   15  N   UNK A   0      -7.160  10.107  73.378  1.00  0.00     2.551 NA 
HETATM   16  N   UNK A   0      -8.994   8.695  73.584  1.00  0.00    -0.087 NA 
ENDROOT
BRANCH   9  17
HETATM   17  C   UNK A   0      -7.599  11.755  68.533  1.00  0.00    -0.131 C  
HETATM   18  C   UNK A   0      -8.099  10.035  66.719  1.00  0.00    -0.118 A  
HETATM   19  C   UNK A   0      -7.012   9.169  66.936  1.00  0.00    -0.081 A  
HETATM   20  C   UNK A   0      -9.317   9.492  66.286  1.00  0.00    -0.242 A  
HETATM   21  C   UNK A   0      -8.005  11.528  67.048  1.00  0.00    -0.161 C  
HETATM   22  C   UNK A   0      -9.482   8.109  66.190  1.00  0.00    -0.217 A  
HETATM   23  C   UNK A   0      -7.174   7.784  66.838  1.00  0.00    -0.089 A  
HETATM   24  C   UNK A   0      -7.056  12.229  66.057  1.00  0.00     1.692 C  
HETATM   25  C   UNK A   0      -8.429   7.254  66.524  1.00  0.00    -0.125 A  
BRANCH  24  26
HETATM   26  C   UNK A   0      -6.979  13.690  66.240  1.00  0.00     3.498 C  
HETATM   27  C   UNK A   0      -6.881  14.884  66.324  1.00  0.00     3.406 C  
ENDBRANCH  24  26
BRANCH  25  28
HETATM   28  C   UNK A   0      -8.631   5.785  66.582  1.00  0.00    -0.118 C  
HETATM   29  O   UNK A   0      -8.754   5.123  65.559  1.00  0.00    -0.137 OA 
ATOM     30  N   GLU A   1      -8.614   5.222  67.856  1.00  0.00    -0.104 N  
ATOM     31  H   GLU A   1      -8.591   5.820  68.682  1.00  0.00     0.000 HD 
BRANCH  30  32
ATOM     32  CA  GLU A   1      -8.630   3.751  67.998  1.00  0.00    -0.097 C  
ATOM     33  O   GLU A   1      -7.811   4.353  70.192  1.00  0.00    -0.055 OA 
ATOM     34  C   GLU A   1      -8.441   3.382  69.483  1.00  0.00    -0.061 C  
ATOM     35  OXT GLU A   1      -8.682   2.281  69.956  1.00  0.00    -0.052 OA 
BRANCH  32  36
ATOM     36  CB  GLU A   1      -7.506   3.122  67.156  1.00  0.00    -0.070 C  
BRANCH  36  37
ATOM     37  CG  GLU A   1      -6.669   4.155  66.392  1.00  0.00    -0.050 C  
ATOM     38  CD  GLU A   1      -7.448   4.845  65.299  1.00  0.00    -0.077 C  
ATOM     39  OE2 GLU A   1      -8.614   4.626  65.018  1.00  0.00    -0.126 OA 
ATOM     40  OE1 GLU A   1      -6.705   5.768  64.647  1.00  0.00    -0.044 OA 
ENDBRANCH  36  37
ENDBRANCH  32  36
ENDBRANCH  30  32
ENDBRANCH  25  28
ENDBRANCH   9  17
TORSDOF 6
ENDMDL
MODEL      250
REMARK 921   NORMALIZED FREE ENERGY PREDICTED BY IDOCK:   28.37 KCAL/MOL
REMARK 922        TOTAL FREE ENERGY PREDICTED BY IDOCK:   36.91 KCAL/MOL
REMARK 923 INTER-LIGAND FREE ENERGY PREDICTED BY IDOCK:   38.17 KCAL/MOL
REMARK 924 INTRA-LIGAND FREE ENERGY PREDICTED BY IDOCK:   -1.27 KCAL/MOL
REMARK 927      BINDING AFFINITY PREDICTED BY RF-SCORE:    0.00 PKD
ROOT
HETATM    1  N   UNK A   0     -13.216  10.455  64.187  1.00  0.00     5.423 NA 
HETATM    2  C   UNK A   0     -12.049   9.761  64.396  1.00  0.00     9.401 A  
HETATM    3  H2  UNK A   0     -14.101  10.127  64.574  1.00  0.00     0.000 HD 
HETATM    4  H1  UNK A   0     -13.168  11.310  63.633  1.00  0.00     0.000 HD 
HETATM    5  N   UNK A   0     -12.112   8.647  65.119  1.00  0.00    12.456 NA 
HETATM    6  C   UNK A   0     -10.970   8.020  65.393  1.00  0.00     5.720 A  
HETATM    7  N   UNK A   0     -11.021   6.947  66.190  1.00  0.00     1.029 NA 
HETATM    8  C   UNK A   0      -9.854   6.366  66.557  1.00  0.00    -0.116 A  
HETATM    9  C   UNK A   0      -8.618   6.824  66.128  1.00  0.00    -0.143 A  
HETATM   10  H2  UNK A   0      -8.188   9.418  63.019  1.00  0.00     0.000 HD 
HETATM   11  N   UNK A   0      -8.544   7.871  65.278  1.00  0.00    -0.108 NA 
HETATM   12  H1  UNK A   0      -8.686  10.996  63.003  1.00  0.00     0.000 HD 
HETATM   13  C   UNK A   0      -9.728   8.465  64.930  1.00  0.00     1.486 A  
HETATM   14  C   UNK A   0      -9.798   9.616  64.155  1.00  0.00     0.557 A  
HETATM   15  N   UNK A   0      -8.635  10.150  63.572  1.00  0.00    -0.183 NA 
HETATM   16  N   UNK A   0     -10.935  10.271  63.882  1.00  0.00     1.434 NA 
ENDROOT
BRANCH   9  17
HETATM   17  C   UNK A   0      -7.322   6.276  66.678  1.00  0.00    -0.078 C  
HETATM   18  C   UNK A   0      -7.547   7.738  68.753  1.00  0.00    -0.101 A  
HETATM   19  C   UNK A   0      -6.801   8.848  68.319  1.00  0.00    -0.065 A  
HETATM   20  C   UNK A   0      -8.639   7.952  69.606  1.00  0.00    -0.133 A  
HETATM   21  C   UNK A   0      -7.254   6.328  68.231  1.00  0.00    -0.085 C  
HETATM   22  C   UNK A   0      -9.051   9.250  69.918  1.00  0.00    -0.203 A  
HETATM   23  C   UNK A   0      -7.209  10.147  68.631  1.00  0.00    -0.080 A  
HETATM   24  C   UNK A   0      -5.906   5.828  68.785  1.00  0.00    -0.019 C  
HETATM   25  C   UNK A   0      -8.372  10.347  69.381  1.00  0.00    -0.152 A  
BRANCH  24  26
HETATM   26  C   UNK A   0      -5.588   4.439  68.410  1.00  0.00    -0.016 C  
HETATM   27  C   UNK A   0      -5.342   3.287  68.175  1.00  0.00    -0.013 C  
ENDBRANCH  24  26
BRANCH  25  28
HETATM   28  C   UNK A   0      -8.887  11.726  69.570  1.00  0.00     1.156 C  
HETATM   29  O   UNK A   0      -8.347  12.501  70.349  1.00  0.00     3.670 OA 
ATOM     30  N   GLU A   1      -9.971  12.081  68.771  1.00  0.00    -0.395 N  
ATOM     31  H   GLU A   1     -10.439  11.379  68.197  1.00  0.00     0.000 HD 
BRANCH  30  32
ATOM     32  CA  GLU A   1     -10.436  13.483  68.762  1.00  0.00    -0.197 C  
ATOM     33  O   GLU A   1     -12.528  12.370  68.282  1.00  0.00    -0.003 OA 
ATOM     34  C   GLU A   1     -11.977  13.508  68.776  1.00  0.00    -0.339 C  
ATOM     35  OXT GLU A   1     -12.649  14.493  69.049  1.00  0.00    -0.047 OA 
BRANCH  32  36
ATOM     36  CB  GLU A   1      -9.912  14.212  67.512  1.00  0.00    -0.236 C  
BRANCH  36  37
ATOM     37  CG  GLU A   1     -10.868  14.127  66.316  1.00  0.00    -0.300 C  
ATOM     38  CD  GLU A   1     -10.642  15.227  65.308  1.00  0.00    -0.417 C  
ATOM     39  OE2 GLU A   1      -9.806  16.109  65.403  1.00  0.00    -0.474 OA 
ATOM     40  OE1 GLU A   1     -11.477  15.128  64.248  1.00  0.00    -0.261 OA 
ENDBRANCH  36  37
ENDBRANCH  32  36
ENDBRANCH  30  32
ENDBRANCH  25  28
ENDBRANCH   9  17
TORSDOF 6
ENDMDL
MODEL      251
REMARK 921   NORMALIZED FREE ENERGY PREDICTED BY IDOCK:   29.85 KCAL/MOL
REMARK 922        TOTAL FREE ENERGY PREDICTED BY IDOCK:   38.90 KCAL/MOL
REMARK 923 INTER-LIGAND FREE ENERGY PREDICTED BY IDOCK:   38.03 KCAL/MOL
REMARK 924 INTRA-LIGAND FREE ENERGY PREDICTED BY IDOCK:    0.88 KCAL/MOL
REMARK 927      BINDING AFFINITY PREDICTED BY RF-SCORE:    0.00 PKD
ROOT
HETATM    1  N   UNK A   0     -12.908  11.969  63.433  1.00  0.00    -0.784 NA 
HETATM    2  C   UNK A   0     -11.971  10.975  63.582  1.00  0.00     1.156 A  
HETATM    3  H2  UNK A   0     -12.752  12.901  63.814  1.00  0.00     0.000 HD 
HETATM    4  H1  UNK A   0     -13.764  11.743  62.927  1.00  0.00     0.000 HD 
HETATM    5  N   UNK A   0     -10.855  11.270  64.240  1.00  0.00    -0.351 NA 
HETATM    6  C   UNK A   0      -9.910  10.334  64.311  1.00  0.00    -0.288 A  
HETATM    7  N   UNK A   0      -8.753  10.656  64.900  1.00  0.00    -0.184 NA 
HETATM    8  C   UNK A   0      -7.752   9.745  64.884  1.00  0.00    -0.127 A  
HETATM    9  C   UNK A   0      -7.882   8.492  64.304  1.00  0.00    -0.142 A  
HETATM   10  H2  UNK A   0     -11.492   6.900  63.294  1.00  0.00     0.000 HD 
HETATM   11  N   UNK A   0      -9.060   8.124  63.754  1.00  0.00     0.935 NA 
HETATM   12  H1  UNK A   0     -12.497   7.464  62.108  1.00  0.00     0.000 HD 
HETATM   13  C   UNK A   0     -10.059   9.060  63.755  1.00  0.00     3.390 A  
HETATM   14  C   UNK A   0     -11.283   8.861  63.127  1.00  0.00    12.007 A  
HETATM   15  N   UNK A   0     -11.599   7.610  62.570  1.00  0.00    14.389 NA 
HETATM   16  N   UNK A   0     -12.239   9.796  63.030  1.00  0.00     8.155 NA 
ENDROOT
BRANCH   9  17
HETATM   17  C   UNK A   0      -6.710   7.554  64.144  1.00  0.00    -0.052 C  
HETATM   18  C   UNK A   0      -7.076   6.645  66.497  1.00  0.00    -0.068 A  
HETATM   19  C   UNK A   0      -6.199   7.493  67.196  1.00  0.00    -0.052 A  
HETATM   20  C   UNK A   0      -8.245   6.209  67.137  1.00  0.00    -0.106 A  
HETATM   21  C   UNK A   0      -6.831   6.280  65.030  1.00  0.00    -0.051 C  
HETATM   22  C   UNK A   0      -8.591   6.705  68.395  1.00  0.00    -0.124 A  
HETATM   23  C   UNK A   0      -6.542   7.990  68.457  1.00  0.00    -0.058 A  
HETATM   24  C   UNK A   0      -5.603   5.356  64.913  1.00  0.00    -0.017 C  
HETATM   25  C   UNK A   0      -7.770   7.641  69.028  1.00  0.00    -0.117 A  
BRANCH  24  26
HETATM   26  C   UNK A   0      -5.349   4.876  63.542  1.00  0.00    -0.010 C  
HETATM   27  C   UNK A   0      -5.194   4.532  62.402  1.00  0.00    -0.009 C  
ENDBRANCH  24  26
BRANCH  25  28
HETATM   28  C   UNK A   0      -8.196   8.299  70.288  1.00  0.00    -0.121 C  
HETATM   29  O   UNK A   0      -7.507   9.164  70.815  1.00  0.00    -0.097 OA 
ATOM     30  N   GLU A   1      -9.437   7.907  70.785  1.00  0.00    -0.158 N  
ATOM     31  H   GLU A   1      -9.938   7.126  70.360  1.00  0.00     0.000 HD 
BRANCH  30  32
ATOM     32  CA  GLU A   1     -10.020   8.632  71.932  1.00  0.00    -0.322 C  
ATOM     33  O   GLU A   1     -10.247  10.335  70.231  1.00  0.00    -0.203 OA 
ATOM     34  C   GLU A   1     -10.730   9.902  71.423  1.00  0.00     0.177 C  
ATOM     35  OXT GLU A   1     -11.532  10.554  72.077  1.00  0.00     0.933 OA 
BRANCH  32  36
ATOM     36  CB  GLU A   1      -8.919   9.015  72.936  1.00  0.00     0.898 C  
BRANCH  36  37
ATOM     37  CG  GLU A   1      -8.654   7.931  73.988  1.00  0.00    -0.322 C  
ATOM     38  CD  GLU A   1      -7.736   6.843  73.487  1.00  0.00    -0.082 C  
ATOM     39  OE2 GLU A   1      -7.247   6.792  72.372  1.00  0.00    -0.084 OA 
ATOM     40  OE1 GLU A   1      -7.494   5.905  74.431  1.00  0.00    -0.088 OA 
ENDBRANCH  36  37
ENDBRANCH  32  36
ENDBRANCH  30  32
ENDBRANCH  25  28
ENDBRANCH   9  17
TORSDOF 6
ENDMDL
MODEL      252
REMARK 921   NORMALIZED FREE ENERGY PREDICTED BY IDOCK:   32.51 KCAL/MOL
REMARK 922        TOTAL FREE ENERGY PREDICTED BY IDOCK:   42.50 KCAL/MOL
REMARK 923 INTER-LIGAND FREE ENERGY PREDICTED BY IDOCK:   39.83 KCAL/MOL
REMARK 924 INTRA-LIGAND FREE ENERGY PREDICTED BY IDOCK:    2.67 KCAL/MOL
REMARK 927      BINDING AFFINITY PREDICTED BY RF-SCORE:    0.00 PKD
ROOT
HETATM    1  N   UNK A   0     -13.697  10.086  64.082  1.00  0.00     8.553 NA 
HETATM    2  C   UNK A   0     -12.719   9.960  65.040  1.00  0.00    11.876 A  
HETATM    3  H2  UNK A   0     -13.874  10.980  63.624  1.00  0.00     0.000 HD 
HETATM    4  H1  UNK A   0     -14.240   9.256  63.845  1.00  0.00     0.000 HD 
HETATM    5  N   UNK A   0     -12.011  11.041  65.348  1.00  0.00     0.797 NA 
HETATM    6  C   UNK A   0     -11.008  10.900  66.212  1.00  0.00    -0.061 A  
HETATM    7  N   UNK A   0     -10.241  11.968  66.460  1.00  0.00    -0.203 NA 
HETATM    8  C   UNK A   0      -9.158  11.807  67.256  1.00  0.00    -0.171 A  
HETATM    9  C   UNK A   0      -8.824  10.594  67.837  1.00  0.00    -0.131 A  
HETATM   10  H2  UNK A   0     -11.419   7.461  68.038  1.00  0.00     0.000 HD 
HETATM   11  N   UNK A   0      -9.615   9.515  67.647  1.00  0.00    -0.134 NA 
HETATM   12  H1  UNK A   0     -11.987   6.596  66.748  1.00  0.00     0.000 HD 
HETATM   13  C   UNK A   0     -10.696   9.682  66.823  1.00  0.00    -0.078 A  
HETATM   14  C   UNK A   0     -11.531   8.636  66.448  1.00  0.00     3.438 A  
HETATM   15  N   UNK A   0     -11.374   7.363  67.023  1.00  0.00     0.317 NA 
HETATM   16  N   UNK A   0     -12.535   8.754  65.568  1.00  0.00    13.133 NA 
ENDROOT
BRANCH   9  17
HETATM   17  C   UNK A   0      -7.527  10.388  68.582  1.00  0.00    -0.088 C  
HETATM   18  C   UNK A   0      -7.678  12.737  69.560  1.00  0.00     0.842 A  
HETATM   19  C   UNK A   0      -6.923  13.424  68.593  1.00  0.00    -0.101 A  
HETATM   20  C   UNK A   0      -8.747  13.402  70.178  1.00  0.00     3.452 A  
HETATM   21  C   UNK A   0      -7.423  11.258  69.868  1.00  0.00     0.496 C  
HETATM   22  C   UNK A   0      -9.128  14.676  69.753  1.00  0.00     0.444 A  
HETATM   23  C   UNK A   0      -7.301  14.700  68.168  1.00  0.00    -0.127 A  
HETATM   24  C   UNK A   0      -6.071  11.094  70.589  1.00  0.00    -0.019 C  
HETATM   25  C   UNK A   0      -8.443  15.300  68.708  1.00  0.00    -0.181 A  
BRANCH  24  26
HETATM   26  C   UNK A   0      -5.787   9.710  71.010  1.00  0.00    -0.076 C  
HETATM   27  C   UNK A   0      -5.604   8.592  71.407  1.00  0.00    -0.036 C  
ENDBRANCH  24  26
BRANCH  25  28
HETATM   28  C   UNK A   0      -8.929  16.581  68.137  1.00  0.00    -0.207 C  
HETATM   29  O   UNK A   0      -9.908  16.615  67.402  1.00  0.00    -0.245 OA 
ATOM     30  N   GLU A   1      -8.236  17.721  68.536  1.00  0.00    -0.294 N  
ATOM     31  H   GLU A   1      -7.378  17.638  69.082  1.00  0.00     0.000 HD 
BRANCH  30  32
ATOM     32  CA  GLU A   1      -8.756  19.053  68.160  1.00  0.00    -0.316 C  
ATOM     33  O   GLU A   1     -10.662  18.216  69.390  1.00  0.00     0.267 OA 
ATOM     34  C   GLU A   1     -10.037  19.344  68.965  1.00  0.00    -0.343 C  
ATOM     35  OXT GLU A   1     -10.539  20.452  69.087  1.00  0.00    -0.061 OA 
BRANCH  32  36
ATOM     36  CB  GLU A   1      -9.063  19.099  66.653  1.00  0.00    -0.361 C  
BRANCH  36  37
ATOM     37  CG  GLU A   1      -7.832  18.846  65.775  1.00  0.00     0.022 C  
ATOM     38  CD  GLU A   1      -6.633  19.658  66.200  1.00  0.00    -0.212 C  
ATOM     39  OE2 GLU A   1      -6.610  20.447  67.129  1.00  0.00    -0.206 OA 
ATOM     40  OE1 GLU A   1      -5.549  19.410  65.430  1.00  0.00    -0.159 OA 
ENDBRANCH  36  37
ENDBRANCH  32  36
ENDBRANCH  30  32
ENDBRANCH  25  28
ENDBRANCH   9  17
TORSDOF 6
ENDMDL
MODEL      253
REMARK 921   NORMALIZED FREE ENERGY PREDICTED BY IDOCK:   32.91 KCAL/MOL
REMARK 922        TOTAL FREE ENERGY PREDICTED BY IDOCK:   43.04 KCAL/MOL
REMARK 923 INTER-LIGAND FREE ENERGY PREDICTED BY IDOCK:   40.04 KCAL/MOL
REMARK 924 INTRA-LIGAND FREE ENERGY PREDICTED BY IDOCK:    3.00 KCAL/MOL
REMARK 927      BINDING AFFINITY PREDICTED BY RF-SCORE:    0.00 PKD
ROOT
HETATM    1  N   UNK A   0      -6.313  14.076  63.757  1.00  0.00    20.546 NA 
HETATM    2  C   UNK A   0      -7.150  13.545  64.709  1.00  0.00    14.184 A  
HETATM    3  H2  UNK A   0      -6.684  14.497  62.905  1.00  0.00     0.000 HD 
HETATM    4  H1  UNK A   0      -5.309  14.037  63.932  1.00  0.00     0.000 HD 
HETATM    5  N   UNK A   0      -8.458  13.596  64.481  1.00  0.00     4.906 NA 
HETATM    6  C   UNK A   0      -9.272  13.159  65.440  1.00  0.00     0.608 A  
HETATM    7  N   UNK A   0     -10.590  13.288  65.249  1.00  0.00    -0.304 NA 
HETATM    8  C   UNK A   0     -11.420  12.942  66.261  1.00  0.00    -0.348 A  
HETATM    9  C   UNK A   0     -10.965  12.444  67.472  1.00  0.00    -0.252 A  
HETATM   10  H2  UNK A   0      -7.165  11.080  68.002  1.00  0.00     0.000 HD 
HETATM   11  N   UNK A   0      -9.642  12.253  67.667  1.00  0.00    -0.186 NA 
HETATM   12  H1  UNK A   0      -5.793  12.004  67.958  1.00  0.00     0.000 HD 
HETATM   13  C   UNK A   0      -8.809  12.626  66.647  1.00  0.00    -0.126 A  
HETATM   14  C   UNK A   0      -7.424  12.591  66.749  1.00  0.00     0.244 A  
HETATM   15  N   UNK A   0      -6.810  12.029  67.883  1.00  0.00    -0.079 NA 
HETATM   16  N   UNK A   0      -6.588  13.041  65.803  1.00  0.00     4.293 NA 
ENDROOT
BRANCH   9  17
HETATM   17  C   UNK A   0     -11.885  12.223  68.648  1.00  0.00    -0.354 C  
HETATM   18  C   UNK A   0     -10.503  10.216  69.394  1.00  0.00    -0.254 A  
HETATM   19  C   UNK A   0     -11.223   9.201  68.740  1.00  0.00     0.228 A  
HETATM   20  C   UNK A   0      -9.117  10.067  69.546  1.00  0.00    -0.236 A  
HETATM   21  C   UNK A   0     -11.182  11.514  69.841  1.00  0.00    -0.183 C  
HETATM   22  C   UNK A   0      -8.450   8.993  68.953  1.00  0.00    -0.130 A  
HETATM   23  C   UNK A   0     -10.559   8.123  68.148  1.00  0.00    -0.168 A  
HETATM   24  C   UNK A   0     -12.140  11.231  71.014  1.00  0.00    -0.335 C  
HETATM   25  C   UNK A   0      -9.164   8.054  68.204  1.00  0.00    -0.134 A  
BRANCH  24  26
HETATM   26  C   UNK A   0     -12.768  12.442  71.573  1.00  0.00    -0.333 C  
HETATM   27  C   UNK A   0     -13.252  13.410  72.095  1.00  0.00    -0.557 C  
ENDBRANCH  24  26
BRANCH  25  28
HETATM   28  C   UNK A   0      -8.458   6.998  67.436  1.00  0.00    -0.122 C  
HETATM   29  O   UNK A   0      -7.419   7.240  66.835  1.00  0.00    -0.092 OA 
ATOM     30  N   GLU A   1      -9.025   5.727  67.496  1.00  0.00    -0.109 N  
ATOM     31  H   GLU A   1      -9.933   5.588  67.940  1.00  0.00     0.000 HD 
BRANCH  30  32
ATOM     32  CA  GLU A   1      -8.297   4.582  66.912  1.00  0.00    -0.105 C  
ATOM     33  O   GLU A   1      -9.757   3.391  68.426  1.00  0.00    -0.125 OA 
ATOM     34  C   GLU A   1      -9.015   3.273  67.296  1.00  0.00    -0.158 C  
ATOM     35  OXT GLU A   1      -8.826   2.196  66.749  1.00  0.00    -0.119 OA 
BRANCH  32  36
ATOM     36  CB  GLU A   1      -6.846   4.553  67.425  1.00  0.00    -0.059 C  
BRANCH  36  37
ATOM     37  CG  GLU A   1      -5.922   5.526  66.684  1.00  0.00    -0.019 C  
ATOM     38  CD  GLU A   1      -5.990   5.371  65.184  1.00  0.00    -0.022 C  
ATOM     39  OE2 GLU A   1      -6.685   4.565  64.590  1.00  0.00    -0.042 OA 
ATOM     40  OE1 GLU A   1      -5.185   6.249  64.543  1.00  0.00    -0.016 OA 
ENDBRANCH  36  37
ENDBRANCH  32  36
ENDBRANCH  30  32
ENDBRANCH  25  28
ENDBRANCH   9  17
TORSDOF 6
ENDMDL
MODEL      254
REMARK 921   NORMALIZED FREE ENERGY PREDICTED BY IDOCK:   33.82 KCAL/MOL
REMARK 922        TOTAL FREE ENERGY PREDICTED BY IDOCK:   44.27 KCAL/MOL
REMARK 923 INTER-LIGAND FREE ENERGY PREDICTED BY IDOCK:   45.73 KCAL/MOL
REMARK 924 INTRA-LIGAND FREE ENERGY PREDICTED BY IDOCK:   -1.46 KCAL/MOL
REMARK 927      BINDING AFFINITY PREDICTED BY RF-SCORE:    0.00 PKD
ROOT
HETATM    1  N   UNK A   0      -6.929   7.962  63.725  1.00  0.00    -0.069 NA 
HETATM    2  C   UNK A   0      -7.243   7.444  64.959  1.00  0.00    -0.067 A  
HETATM    3  H2  UNK A   0      -6.164   8.626  63.612  1.00  0.00     0.000 HD 
HETATM    4  H1  UNK A   0      -7.487   7.659  62.927  1.00  0.00     0.000 HD 
HETATM    5  N   UNK A   0      -6.515   7.839  65.999  1.00  0.00    -0.042 NA 
HETATM    6  C   UNK A   0      -6.762   7.273  67.179  1.00  0.00    -0.068 A  
HETATM    7  N   UNK A   0      -5.976   7.606  68.209  1.00  0.00    -0.034 NA 
HETATM    8  C   UNK A   0      -6.154   6.960  69.385  1.00  0.00    -0.033 A  
HETATM    9  C   UNK A   0      -7.125   5.987  69.571  1.00  0.00    -0.069 A  
HETATM   10  H2  UNK A   0     -10.215   5.439  66.975  1.00  0.00     0.000 HD 
HETATM   11  N   UNK A   0      -7.967   5.675  68.562  1.00  0.00    -0.099 NA 
HETATM   12  H1  UNK A   0     -10.082   4.895  65.419  1.00  0.00     0.000 HD 
HETATM   13  C   UNK A   0      -7.765   6.318  67.370  1.00  0.00    -0.097 A  
HETATM   14  C   UNK A   0      -8.480   6.018  66.217  1.00  0.00    -0.130 A  
HETATM   15  N   UNK A   0      -9.558   5.116  66.265  1.00  0.00    -0.154 NA 
HETATM   16  N   UNK A   0      -8.236   6.563  65.017  1.00  0.00    -0.135 NA 
ENDROOT
BRANCH   9  17
HETATM   17  C   UNK A   0      -7.202   5.157  70.830  1.00  0.00    -0.064 C  
HETATM   18  C   UNK A   0      -8.697   6.905  71.929  1.00  0.00    -0.126 A  
HETATM   19  C   UNK A   0      -7.706   7.659  72.581  1.00  0.00    -0.116 A  
HETATM   20  C   UNK A   0      -9.837   7.564  71.448  1.00  0.00    -0.191 A  
HETATM   21  C   UNK A   0      -8.504   5.413  71.643  1.00  0.00    -0.127 C  
HETATM   22  C   UNK A   0      -9.929   8.956  71.508  1.00  0.00    -0.391 A  
HETATM   23  C   UNK A   0      -7.796   9.053  72.644  1.00  0.00     0.525 A  
HETATM   24  C   UNK A   0      -8.550   4.613  72.959  1.00  0.00    -0.113 C  
HETATM   25  C   UNK A   0      -8.882   9.704  72.051  1.00  0.00     2.057 A  
BRANCH  24  26
HETATM   26  C   UNK A   0      -8.468   3.153  72.771  1.00  0.00    -0.080 C  
HETATM   27  C   UNK A   0      -8.353   1.961  72.673  1.00  0.00    -0.054 C  
ENDBRANCH  24  26
BRANCH  25  28
HETATM   28  C   UNK A   0      -8.888  11.186  71.981  1.00  0.00    13.136 C  
HETATM   29  O   UNK A   0      -7.850  11.828  72.072  1.00  0.00    10.116 OA 
ATOM     30  N   GLU A   1     -10.130  11.775  71.751  1.00  0.00     9.827 N  
ATOM     31  H   GLU A   1     -10.979  11.208  71.764  1.00  0.00     0.000 HD 
BRANCH  30  32
ATOM     32  CA  GLU A   1     -10.206  13.227  71.490  1.00  0.00     8.454 C  
ATOM     33  O   GLU A   1     -12.251  12.944  72.748  1.00  0.00     1.061 OA 
ATOM     34  C   GLU A   1     -11.309  13.845  72.372  1.00  0.00     2.738 C  
ATOM     35  OXT GLU A   1     -11.427  15.042  72.591  1.00  0.00    -0.337 OA 
BRANCH  32  36
ATOM     36  CB  GLU A   1     -10.516  13.487  70.006  1.00  0.00     1.154 C  
BRANCH  36  37
ATOM     37  CG  GLU A   1     -10.960  12.229  69.250  1.00  0.00    -0.155 C  
ATOM     38  CD  GLU A   1     -11.954  12.526  68.154  1.00  0.00    -0.219 C  
ATOM     39  OE2 GLU A   1     -12.386  13.631  67.875  1.00  0.00    -0.238 OA 
ATOM     40  OE1 GLU A   1     -12.321  11.411  67.482  1.00  0.00    -0.134 OA 
ENDBRANCH  36  37
ENDBRANCH  32  36
ENDBRANCH  30  32
ENDBRANCH  25  28
ENDBRANCH   9  17
TORSDOF 6
ENDMDL
MODEL      255
REMARK 921   NORMALIZED FREE ENERGY PREDICTED BY IDOCK:   34.11 KCAL/MOL
REMARK 922        TOTAL FREE ENERGY PREDICTED BY IDOCK:   44.66 KCAL/MOL
REMARK 923 INTER-LIGAND FREE ENERGY PREDICTED BY IDOCK:   36.44 KCAL/MOL
REMARK 924 INTRA-LIGAND FREE ENERGY PREDICTED BY IDOCK:    8.22 KCAL/MOL
REMARK 927      BINDING AFFINITY PREDICTED BY RF-SCORE:    0.00 PKD
ROOT
HETATM    1  N   UNK A   0     -13.029  15.227  63.183  1.00  0.00     0.846 NA 
HETATM    2  C   UNK A   0     -12.887  15.385  64.541  1.00  0.00     0.666 A  
HETATM    3  H2  UNK A   0     -12.989  14.303  62.753  1.00  0.00     0.000 HD 
HETATM    4  H1  UNK A   0     -13.175  16.064  62.620  1.00  0.00     0.000 HD 
HETATM    5  N   UNK A   0     -12.697  14.293  65.275  1.00  0.00    -0.597 NA 
HETATM    6  C   UNK A   0     -12.645  14.437  66.598  1.00  0.00     0.113 A  
HETATM    7  N   UNK A   0     -12.539  13.331  67.343  1.00  0.00     0.115 NA 
HETATM    8  C   UNK A   0     -12.590  13.459  68.690  1.00  0.00     0.646 A  
HETATM    9  C   UNK A   0     -12.727  14.684  69.325  1.00  0.00     0.308 A  
HETATM   10  H2  UNK A   0     -12.139  18.232  67.414  1.00  0.00     0.000 HD 
HETATM   11  N   UNK A   0     -12.780  15.820  68.595  1.00  0.00     0.852 NA 
HETATM   12  H1  UNK A   0     -13.086  18.844  66.204  1.00  0.00     0.000 HD 
HETATM   13  C   UNK A   0     -12.750  15.678  67.233  1.00  0.00     2.313 A  
HETATM   14  C   UNK A   0     -12.908  16.745  66.357  1.00  0.00     5.966 A  
HETATM   15  N   UNK A   0     -12.970  18.061  66.847  1.00  0.00     7.442 NA 
HETATM   16  N   UNK A   0     -12.979  16.619  65.025  1.00  0.00     3.737 NA 
ENDROOT
BRANCH   9  17
HETATM   17  C   UNK A   0     -12.953  14.798  70.813  1.00  0.00    -0.407 C  
HETATM   18  C   UNK A   0     -11.055  13.155  71.259  1.00  0.00     3.293 A  
HETATM   19  C   UNK A   0     -11.805  11.968  71.316  1.00  0.00     0.808 A  
HETATM   20  C   UNK A   0      -9.751  13.105  70.745  1.00  0.00     6.664 A  
HETATM   21  C   UNK A   0     -11.670  14.505  71.643  1.00  0.00    -0.146 C  
HETATM   22  C   UNK A   0      -9.254  11.925  70.190  1.00  0.00     3.458 A  
HETATM   23  C   UNK A   0     -11.309  10.784  70.763  1.00  0.00    -0.082 A  
HETATM   24  C   UNK A   0     -11.918  14.558  73.163  1.00  0.00    -0.007 C  
HETATM   25  C   UNK A   0     -10.055  10.781  70.145  1.00  0.00     0.496 A  
BRANCH  24  26
HETATM   26  C   UNK A   0     -12.421  15.860  73.637  1.00  0.00    -0.711 C  
HETATM   27  C   UNK A   0     -12.777  16.954  73.985  1.00  0.00     0.224 C  
ENDBRANCH  24  26
BRANCH  25  28
HETATM   28  C   UNK A   0      -9.606   9.566  69.420  1.00  0.00    -0.180 C  
HETATM   29  O   UNK A   0     -10.386   8.911  68.740  1.00  0.00    -0.206 OA 
ATOM     30  N   GLU A   1      -8.250   9.267  69.523  1.00  0.00    -0.113 N  
ATOM     31  H   GLU A   1      -7.654   9.791  70.165  1.00  0.00     0.000 HD 
BRANCH  30  32
ATOM     32  CA  GLU A   1      -7.682   8.183  68.695  1.00  0.00    -0.112 C  
ATOM     33  O   GLU A   1      -6.799  10.093  67.506  1.00  0.00    -0.075 OA 
ATOM     34  C   GLU A   1      -6.617   8.771  67.749  1.00  0.00    -0.061 C  
ATOM     35  OXT GLU A   1      -5.785   8.106  67.148  1.00  0.00    -0.036 OA 
BRANCH  32  36
ATOM     36  CB  GLU A   1      -8.792   7.501  67.875  1.00  0.00    -0.126 C  
BRANCH  36  37
ATOM     37  CG  GLU A   1     -10.170   7.574  68.542  1.00  0.00    -0.216 C  
ATOM     38  CD  GLU A   1     -11.162   6.607  67.943  1.00  0.00    -0.128 C  
ATOM     39  OE2 GLU A   1     -10.931   5.842  67.022  1.00  0.00    -0.274 OA 
ATOM     40  OE1 GLU A   1     -12.367   6.667  68.554  1.00  0.00     1.969 OA 
ENDBRANCH  36  37
ENDBRANCH  32  36
ENDBRANCH  30  32
ENDBRANCH  25  28
ENDBRANCH   9  17
TORSDOF 6
ENDMDL
MODEL      256
REMARK 921   NORMALIZED FREE ENERGY PREDICTED BY IDOCK:   38.30 KCAL/MOL
REMARK 922        TOTAL FREE ENERGY PREDICTED BY IDOCK:   50.32 KCAL/MOL
REMARK 923 INTER-LIGAND FREE ENERGY PREDICTED BY IDOCK:   49.43 KCAL/MOL
REMARK 924 INTRA-LIGAND FREE ENERGY PREDICTED BY IDOCK:    0.89 KCAL/MOL
REMARK 927      BINDING AFFINITY PREDICTED BY RF-SCORE:    0.00 PKD
ROOT
HETATM    1  N   UNK A   0     -10.131  15.887  65.595  1.00  0.00    -0.350 NA 
HETATM    2  C   UNK A   0     -10.075  14.683  66.257  1.00  0.00    -0.294 A  
HETATM    3  H2  UNK A   0     -10.562  15.962  64.674  1.00  0.00     0.000 HD 
HETATM    4  H1  UNK A   0      -9.727  16.701  66.056  1.00  0.00     0.000 HD 
HETATM    5  N   UNK A   0     -10.603  13.621  65.656  1.00  0.00    -0.286 NA 
HETATM    6  C   UNK A   0     -10.626  12.474  66.332  1.00  0.00    -0.247 A  
HETATM    7  N   UNK A   0     -11.231  11.426  65.763  1.00  0.00    -0.160 NA 
HETATM    8  C   UNK A   0     -11.350  10.287  66.485  1.00  0.00     0.711 A  
HETATM    9  C   UNK A   0     -10.856  10.157  67.774  1.00  0.00    -0.292 A  
HETATM   10  H2  UNK A   0      -8.199  12.787  69.388  1.00  0.00     0.000 HD 
HETATM   11  N   UNK A   0     -10.192  11.184  68.348  1.00  0.00    -0.181 NA 
HETATM   12  H1  UNK A   0      -8.510  14.370  69.753  1.00  0.00     0.000 HD 
HETATM   13  C   UNK A   0     -10.096  12.339  67.618  1.00  0.00    -0.200 A  
HETATM   14  C   UNK A   0      -9.540  13.508  68.122  1.00  0.00    -0.215 A  
HETATM   15  N   UNK A   0      -8.917  13.512  69.383  1.00  0.00     0.794 NA 
HETATM   16  N   UNK A   0      -9.522  14.676  67.465  1.00  0.00    -0.196 NA 
ENDROOT
BRANCH   9  17
HETATM   17  C   UNK A   0     -11.143   8.945  68.628  1.00  0.00     0.195 C  
HETATM   18  C   UNK A   0     -12.462  10.376  70.274  1.00  0.00    -0.296 A  
HETATM   19  C   UNK A   0     -11.429  10.672  71.181  1.00  0.00     0.037 A  
HETATM   20  C   UNK A   0     -13.460  11.336  70.054  1.00  0.00     1.440 A  
HETATM   21  C   UNK A   0     -12.455   9.083  69.453  1.00  0.00     2.265 C  
HETATM   22  C   UNK A   0     -13.364  12.604  70.631  1.00  0.00     0.716 A  
HETATM   23  C   UNK A   0     -11.331  11.940  71.761  1.00  0.00     4.136 A  
HETATM   24  C   UNK A   0     -12.711   7.873  70.371  1.00  0.00     0.686 C  
HETATM   25  C   UNK A   0     -12.268  12.924  71.435  1.00  0.00     0.119 A  
BRANCH  24  26
HETATM   26  C   UNK A   0     -12.817   6.592  69.649  1.00  0.00     3.098 C  
HETATM   27  C   UNK A   0     -12.965   5.534  69.099  1.00  0.00    11.110 C  
ENDBRANCH  24  26
BRANCH  25  28
HETATM   28  C   UNK A   0     -12.064  14.310  71.926  1.00  0.00    -0.079 C  
HETATM   29  O   UNK A   0     -11.299  15.077  71.356  1.00  0.00    -0.336 OA 
ATOM     30  N   GLU A   1     -12.835  14.680  73.026  1.00  0.00    -0.470 N  
ATOM     31  H   GLU A   1     -13.397  13.986  73.519  1.00  0.00     0.000 HD 
BRANCH  30  32
ATOM     32  CA  GLU A   1     -12.829  16.089  73.472  1.00  0.00    -0.590 C  
ATOM     33  O   GLU A   1     -13.775  16.376  71.266  1.00  0.00     0.964 OA 
ATOM     34  C   GLU A   1     -13.676  16.934  72.499  1.00  0.00     3.340 C  
ATOM     35  OXT GLU A   1     -14.089  18.058  72.742  1.00  0.00     8.314 OA 
BRANCH  32  36
ATOM     36  CB  GLU A   1     -11.389  16.629  73.517  1.00  0.00     1.131 C  
BRANCH  36  37
ATOM     37  CG  GLU A   1     -11.260  17.948  74.289  1.00  0.00     1.456 C  
ATOM     38  CD  GLU A   1     -11.109  19.144  73.382  1.00  0.00     3.979 C  
ATOM     39  OE2 GLU A   1     -11.080  19.106  72.164  1.00  0.00     3.188 OA 
ATOM     40  OE1 GLU A   1     -11.017  20.302  74.075  1.00  0.00     5.942 OA 
ENDBRANCH  36  37
ENDBRANCH  32  36
ENDBRANCH  30  32
ENDBRANCH  25  28
ENDBRANCH   9  17
TORSDOF 6
ENDMDL
MODEL      257
REMARK 921   NORMALIZED FREE ENERGY PREDICTED BY IDOCK:   39.61 KCAL/MOL
REMARK 922        TOTAL FREE ENERGY PREDICTED BY IDOCK:   52.09 KCAL/MOL
REMARK 923 INTER-LIGAND FREE ENERGY PREDICTED BY IDOCK:   50.73 KCAL/MOL
REMARK 924 INTRA-LIGAND FREE ENERGY PREDICTED BY IDOCK:    1.37 KCAL/MOL
REMARK 927      BINDING AFFINITY PREDICTED BY RF-SCORE:    0.00 PKD
ROOT
HETATM    1  N   UNK A   0     -13.277   9.121  63.689  1.00  0.00    14.076 NA 
HETATM    2  C   UNK A   0     -12.320   8.942  64.659  1.00  0.00    17.226 A  
HETATM    3  H2  UNK A   0     -13.435  10.035  63.268  1.00  0.00     0.000 HD 
HETATM    4  H1  UNK A   0     -13.824   8.308  63.406  1.00  0.00     0.000 HD 
HETATM    5  N   UNK A   0     -11.607  10.001  65.028  1.00  0.00     3.326 NA 
HETATM    6  C   UNK A   0     -10.622   9.811  65.904  1.00  0.00     0.197 A  
HETATM    7  N   UNK A   0      -9.850  10.859  66.213  1.00  0.00    -0.209 NA 
HETATM    8  C   UNK A   0      -8.784  10.651  67.023  1.00  0.00    -0.128 A  
HETATM    9  C   UNK A   0      -8.475   9.410  67.556  1.00  0.00    -0.122 A  
HETATM   10  H2  UNK A   0     -11.105   6.301  67.569  1.00  0.00     0.000 HD 
HETATM   11  N   UNK A   0      -9.272   8.350  67.304  1.00  0.00    -0.135 NA 
HETATM   12  H1  UNK A   0     -11.656   5.499  66.232  1.00  0.00     0.000 HD 
HETATM   13  C   UNK A   0     -10.335   8.564  66.467  1.00  0.00    -0.145 A  
HETATM   14  C   UNK A   0     -11.173   7.545  66.031  1.00  0.00     3.387 A  
HETATM   15  N   UNK A   0     -11.041   6.246  66.552  1.00  0.00    -0.071 NA 
HETATM   16  N   UNK A   0     -12.158   7.712  65.138  1.00  0.00    12.451 NA 
ENDROOT
BRANCH   9  17
HETATM   17  C   UNK A   0      -7.194   9.157  68.316  1.00  0.00    -0.078 C  
HETATM   18  C   UNK A   0      -7.061  11.617  68.972  1.00  0.00    -0.108 A  
HETATM   19  C   UNK A   0      -6.252  12.079  67.919  1.00  0.00    -0.073 A  
HETATM   20  C   UNK A   0      -8.035  12.476  69.499  1.00  0.00     1.076 A  
HETATM   21  C   UNK A   0      -6.967  10.172  69.473  1.00  0.00    -0.086 C  
HETATM   22  C   UNK A   0      -8.279  13.718  68.910  1.00  0.00     0.089 A  
HETATM   23  C   UNK A   0      -6.492  13.323  67.328  1.00  0.00     0.118 A  
HETATM   24  C   UNK A   0      -5.629   9.952  70.204  1.00  0.00    -0.044 C  
HETATM   25  C   UNK A   0      -7.548  14.115  67.788  1.00  0.00    -0.175 A  
BRANCH  24  26
HETATM   26  C   UNK A   0      -5.494   8.613  70.805  1.00  0.00    -0.028 C  
HETATM   27  C   UNK A   0      -5.449   7.533  71.329  1.00  0.00    -0.034 C  
ENDBRANCH  24  26
BRANCH  25  28
HETATM   28  C   UNK A   0      -7.898  15.356  67.053  1.00  0.00    -0.209 C  
HETATM   29  O   UNK A   0      -8.414  15.310  65.943  1.00  0.00     0.231 OA 
ATOM     30  N   GLU A   1      -7.651  16.549  67.729  1.00  0.00    -0.145 N  
ATOM     31  H   GLU A   1      -7.145  16.543  68.615  1.00  0.00     0.000 HD 
BRANCH  30  32
ATOM     32  CA  GLU A   1      -8.129  17.822  67.150  1.00  0.00    -0.214 C  
ATOM     33  O   GLU A   1      -5.753  18.268  67.182  1.00  0.00    -0.137 OA 
ATOM     34  C   GLU A   1      -6.927  18.609  66.592  1.00  0.00    -0.209 C  
ATOM     35  OXT GLU A   1      -7.018  19.551  65.818  1.00  0.00    -0.259 OA 
BRANCH  32  36
ATOM     36  CB  GLU A   1      -8.850  18.658  68.222  1.00  0.00    -0.353 C  
BRANCH  36  37
ATOM     37  CG  GLU A   1     -10.329  18.288  68.385  1.00  0.00    -0.366 C  
ATOM     38  CD  GLU A   1     -10.939  17.741  67.118  1.00  0.00     0.016 C  
ATOM     39  OE2 GLU A   1     -10.354  17.602  66.058  1.00  0.00    -0.432 OA 
ATOM     40  OE1 GLU A   1     -12.238  17.400  67.282  1.00  0.00     2.294 OA 
ENDBRANCH  36  37
ENDBRANCH  32  36
ENDBRANCH  30  32
ENDBRANCH  25  28
ENDBRANCH   9  17
TORSDOF 6
ENDMDL
MODEL      258
REMARK 921   NORMALIZED FREE ENERGY PREDICTED BY IDOCK:   40.74 KCAL/MOL
REMARK 922        TOTAL FREE ENERGY PREDICTED BY IDOCK:   53.62 KCAL/MOL
REMARK 923 INTER-LIGAND FREE ENERGY PREDICTED BY IDOCK:   48.79 KCAL/MOL
REMARK 924 INTRA-LIGAND FREE ENERGY PREDICTED BY IDOCK:    4.83 KCAL/MOL
REMARK 927      BINDING AFFINITY PREDICTED BY RF-SCORE:    0.00 PKD
ROOT
HETATM    1  N   UNK A   0      -9.548  20.082  62.599  1.00  0.00    14.644 NA 
HETATM    2  C   UNK A   0      -9.526  19.537  63.861  1.00  0.00    10.078 A  
HETATM    3  H2  UNK A   0     -10.291  19.852  61.940  1.00  0.00     0.000 HD 
HETATM    4  H1  UNK A   0      -8.798  20.724  62.346  1.00  0.00     0.000 HD 
HETATM    5  N   UNK A   0     -10.504  18.700  64.192  1.00  0.00     4.374 NA 
HETATM    6  C   UNK A   0     -10.531  18.239  65.441  1.00  0.00     0.274 A  
HETATM    7  N   UNK A   0     -11.561  17.465  65.800  1.00  0.00     1.334 NA 
HETATM    8  C   UNK A   0     -11.649  17.078  67.094  1.00  0.00     0.994 A  
HETATM    9  C   UNK A   0     -10.712  17.432  68.052  1.00  0.00    -0.359 A  
HETATM   10  H2  UNK A   0      -7.056  18.952  67.097  1.00  0.00     0.000 HD 
HETATM   11  N   UNK A   0      -9.634  18.166  67.701  1.00  0.00    -0.274 NA 
HETATM   12  H1  UNK A   0      -6.776  20.423  66.396  1.00  0.00     0.000 HD 
HETATM   13  C   UNK A   0      -9.564  18.572  66.395  1.00  0.00    -0.316 A  
HETATM   14  C   UNK A   0      -8.574  19.422  65.917  1.00  0.00    -0.026 A  
HETATM   15  N   UNK A   0      -7.503  19.799  66.746  1.00  0.00    -0.240 NA 
HETATM   16  N   UNK A   0      -8.539  19.910  64.670  1.00  0.00     1.813 NA 
ENDROOT
BRANCH   9  17
HETATM   17  C   UNK A   0     -10.910  17.138  69.520  1.00  0.00     0.081 C  
HETATM   18  C   UNK A   0      -9.029  15.419  69.462  1.00  0.00    -0.229 A  
HETATM   19  C   UNK A   0      -9.795  14.267  69.209  1.00  0.00     0.100 A  
HETATM   20  C   UNK A   0      -7.735  15.498  68.928  1.00  0.00    -0.175 A  
HETATM   21  C   UNK A   0      -9.617  16.618  70.212  1.00  0.00     1.483 C  
HETATM   22  C   UNK A   0      -7.264  14.509  68.062  1.00  0.00    -0.148 A  
HETATM   23  C   UNK A   0      -9.325  13.275  68.344  1.00  0.00    -0.157 A  
HETATM   24  C   UNK A   0      -9.839  16.257  71.693  1.00  0.00     4.293 C  
HETATM   25  C   UNK A   0      -8.082  13.429  67.723  1.00  0.00    -0.173 A  
BRANCH  24  26
HETATM   26  C   UNK A   0     -10.315  17.385  72.515  1.00  0.00     5.710 C  
HETATM   27  C   UNK A   0     -10.764  18.266  73.197  1.00  0.00     3.173 C  
ENDBRANCH  24  26
BRANCH  25  28
HETATM   28  C   UNK A   0      -7.663  12.454  66.686  1.00  0.00     0.251 C  
HETATM   29  O   UNK A   0      -7.168  12.827  65.630  1.00  0.00     2.775 OA 
ATOM     30  N   GLU A   1      -7.821  11.111  67.020  1.00  0.00    -0.135 N  
ATOM     31  H   GLU A   1      -8.312  10.847  67.875  1.00  0.00     0.000 HD 
BRANCH  30  32
ATOM     32  CA  GLU A   1      -7.269  10.072  66.125  1.00  0.00    -0.109 C  
ATOM     33  O   GLU A   1      -5.940  11.960  65.408  1.00  0.00     1.001 OA 
ATOM     34  C   GLU A   1      -5.985  10.605  65.460  1.00  0.00    -0.117 C  
ATOM     35  OXT GLU A   1      -5.159   9.903  64.894  1.00  0.00    -0.047 OA 
BRANCH  32  36
ATOM     36  CB  GLU A   1      -8.300   9.696  65.046  1.00  0.00    -0.146 C  
BRANCH  36  37
ATOM     37  CG  GLU A   1      -9.468  10.685  64.953  1.00  0.00    -0.293 C  
ATOM     38  CD  GLU A   1     -10.160  10.648  63.612  1.00  0.00    -0.245 C  
ATOM     39  OE2 GLU A   1      -9.848   9.930  62.678  1.00  0.00     0.013 OA 
ATOM     40  OE1 GLU A   1     -11.202  11.509  63.551  1.00  0.00    -0.413 OA 
ENDBRANCH  36  37
ENDBRANCH  32  36
ENDBRANCH  30  32
ENDBRANCH  25  28
ENDBRANCH   9  17
TORSDOF 6
ENDMDL
MODEL      259
REMARK 921   NORMALIZED FREE ENERGY PREDICTED BY IDOCK:   40.85 KCAL/MOL
REMARK 922        TOTAL FREE ENERGY PREDICTED BY IDOCK:   53.77 KCAL/MOL
REMARK 923 INTER-LIGAND FREE ENERGY PREDICTED BY IDOCK:   37.43 KCAL/MOL
REMARK 924 INTRA-LIGAND FREE ENERGY PREDICTED BY IDOCK:   16.34 KCAL/MOL
REMARK 927      BINDING AFFINITY PREDICTED BY RF-SCORE:    0.00 PKD
ROOT
HETATM    1  N   UNK A   0     -12.192  12.181  63.471  1.00  0.00    -0.618 NA 
HETATM    2  C   UNK A   0     -11.290  11.419  64.174  1.00  0.00    -0.183 A  
HETATM    3  H2  UNK A   0     -12.130  12.267  62.457  1.00  0.00     0.000 HD 
HETATM    4  H1  UNK A   0     -12.925  12.656  63.997  1.00  0.00     0.000 HD 
HETATM    5  N   UNK A   0     -10.336  10.798  63.489  1.00  0.00    -0.256 NA 
HETATM    6  C   UNK A   0      -9.514   9.992  64.159  1.00  0.00    -0.252 A  
HETATM    7  N   UNK A   0      -8.607   9.302  63.459  1.00  0.00    -0.203 NA 
HETATM    8  C   UNK A   0      -7.839   8.403  64.119  1.00  0.00    -0.145 A  
HETATM    9  C   UNK A   0      -7.939   8.185  65.485  1.00  0.00    -0.112 A  
HETATM   10  H2  UNK A   0      -9.893  10.740  67.983  1.00  0.00     0.000 HD 
HETATM   11  N   UNK A   0      -8.809   8.911  66.221  1.00  0.00    -0.149 NA 
HETATM   12  H1  UNK A   0     -11.523  11.024  67.990  1.00  0.00     0.000 HD 
HETATM   13  C   UNK A   0      -9.597   9.801  65.542  1.00  0.00    -0.282 A  
HETATM   14  C   UNK A   0     -10.610  10.533  66.149  1.00  0.00    -0.112 A  
HETATM   15  N   UNK A   0     -10.779  10.487  67.544  1.00  0.00    -0.256 NA 
HETATM   16  N   UNK A   0     -11.457  11.336  65.491  1.00  0.00     0.027 NA 
ENDROOT
BRANCH   9  17
HETATM   17  C   UNK A   0      -7.199   7.066  66.178  1.00  0.00    -0.074 C  
HETATM   18  C   UNK A   0      -8.811   7.179  68.150  1.00  0.00    -0.126 A  
HETATM   19  C   UNK A   0      -8.087   8.060  68.972  1.00  0.00    -0.123 A  
HETATM   20  C   UNK A   0     -10.212   7.224  68.183  1.00  0.00    -0.222 A  
HETATM   21  C   UNK A   0      -8.103   6.256  67.152  1.00  0.00    -0.109 C  
HETATM   22  C   UNK A   0     -10.871   8.206  68.925  1.00  0.00     0.004 A  
HETATM   23  C   UNK A   0      -8.744   9.042  69.717  1.00  0.00    -0.148 A  
HETATM   24  C   UNK A   0      -7.330   5.157  67.906  1.00  0.00    -0.075 C  
HETATM   25  C   UNK A   0     -10.136   9.151  69.643  1.00  0.00    -0.206 A  
BRANCH  24  26
HETATM   26  C   UNK A   0      -6.694   4.165  67.020  1.00  0.00    -0.047 C  
HETATM   27  C   UNK A   0      -6.151   3.412  66.258  1.00  0.00    -0.024 C  
ENDBRANCH  24  26
BRANCH  25  28
HETATM   28  C   UNK A   0     -10.810  10.295  70.307  1.00  0.00    -0.286 C  
HETATM   29  O   UNK A   0     -11.086  10.261  71.500  1.00  0.00     0.084 OA 
ATOM     30  N   GLU A   1     -11.050  11.406  69.501  1.00  0.00    -0.375 N  
ATOM     31  H   GLU A   1     -10.879  11.359  68.496  1.00  0.00     0.000 HD 
BRANCH  30  32
ATOM     32  CA  GLU A   1     -11.554  12.651  70.116  1.00  0.00    -0.062 C  
ATOM     33  O   GLU A   1      -9.275  12.705  70.922  1.00  0.00     7.591 OA 
ATOM     34  C   GLU A   1     -10.364  13.470  70.654  1.00  0.00     3.280 C  
ATOM     35  OXT GLU A   1     -10.422  14.652  70.962  1.00  0.00     0.496 OA 
BRANCH  32  36
ATOM     36  CB  GLU A   1     -12.526  12.325  71.264  1.00  0.00    -0.281 C  
BRANCH  36  37
ATOM     37  CG  GLU A   1     -11.849  12.287  72.639  1.00  0.00     5.030 C  
ATOM     38  CD  GLU A   1     -11.488  10.889  73.075  1.00  0.00     8.362 C  
ATOM     39  OE2 GLU A   1     -11.702   9.873  72.436  1.00  0.00     0.522 OA 
ATOM     40  OE1 GLU A   1     -10.873  10.872  74.280  1.00  0.00    16.758 OA 
ENDBRANCH  36  37
ENDBRANCH  32  36
ENDBRANCH  30  32
ENDBRANCH  25  28
ENDBRANCH   9  17
TORSDOF 6
ENDMDL
MODEL      260
REMARK 921   NORMALIZED FREE ENERGY PREDICTED BY IDOCK:   48.23 KCAL/MOL
REMARK 922        TOTAL FREE ENERGY PREDICTED BY IDOCK:   63.74 KCAL/MOL
REMARK 923 INTER-LIGAND FREE ENERGY PREDICTED BY IDOCK:   63.14 KCAL/MOL
REMARK 924 INTRA-LIGAND FREE ENERGY PREDICTED BY IDOCK:    0.60 KCAL/MOL
REMARK 927      BINDING AFFINITY PREDICTED BY RF-SCORE:    0.00 PKD
ROOT
HETATM    1  N   UNK A   0     -12.948  11.033  62.906  1.00  0.00     0.347 NA 
HETATM    2  C   UNK A   0     -12.039  10.028  63.138  1.00  0.00     7.259 A  
HETATM    3  H2  UNK A   0     -12.767  11.987  63.216  1.00  0.00     0.000 HD 
HETATM    4  H1  UNK A   0     -13.808  10.792  62.414  1.00  0.00     0.000 HD 
HETATM    5  N   UNK A   0     -10.918  10.342  63.779  1.00  0.00     1.496 NA 
HETATM    6  C   UNK A   0     -10.001   9.388  63.928  1.00  0.00     1.661 A  
HETATM    7  N   UNK A   0      -8.837   9.723  64.497  1.00  0.00    -0.200 NA 
HETATM    8  C   UNK A   0      -7.862   8.786  64.558  1.00  0.00    -0.129 A  
HETATM    9  C   UNK A   0      -8.025   7.496  64.075  1.00  0.00    -0.091 A  
HETATM   10  H2  UNK A   0     -11.674   5.931  63.169  1.00  0.00     0.000 HD 
HETATM   11  N   UNK A   0      -9.210   7.119  63.548  1.00  0.00     1.765 NA 
HETATM   12  H1  UNK A   0     -12.658   6.430  61.937  1.00  0.00     0.000 HD 
HETATM   13  C   UNK A   0     -10.183   8.079  63.470  1.00  0.00     7.478 A  
HETATM   14  C   UNK A   0     -11.409   7.867  62.852  1.00  0.00    16.873 A  
HETATM   15  N   UNK A   0     -11.758   6.586  62.391  1.00  0.00     8.219 NA 
HETATM   16  N   UNK A   0     -12.338   8.817  62.678  1.00  0.00    17.148 NA 
ENDROOT
BRANCH   9  17
HETATM   17  C   UNK A   0      -6.880   6.516  63.995  1.00  0.00    -0.045 C  
HETATM   18  C   UNK A   0      -7.223   5.867  66.437  1.00  0.00    -0.077 A  
HETATM   19  C   UNK A   0      -6.313   6.761  67.029  1.00  0.00    -0.041 A  
HETATM   20  C   UNK A   0      -8.390   5.531  67.137  1.00  0.00    -0.104 A  
HETATM   21  C   UNK A   0      -7.014   5.345  65.011  1.00  0.00    -0.053 C  
HETATM   22  C   UNK A   0      -8.700   6.165  68.342  1.00  0.00    -0.115 A  
HETATM   23  C   UNK A   0      -6.620   7.395  68.236  1.00  0.00    -0.050 A  
HETATM   24  C   UNK A   0      -5.812   4.383  64.973  1.00  0.00    -0.018 C  
HETATM   25  C   UNK A   0      -7.845   7.140  68.860  1.00  0.00    -0.115 A  
BRANCH  24  26
HETATM   26  C   UNK A   0      -5.595   3.756  63.656  1.00  0.00    -0.013 C  
HETATM   27  C   UNK A   0      -5.488   3.220  62.586  1.00  0.00    -0.008 C  
ENDBRANCH  24  26
BRANCH  25  28
HETATM   28  C   UNK A   0      -8.231   7.936  70.051  1.00  0.00    -0.119 C  
HETATM   29  O   UNK A   0      -7.424   8.664  70.615  1.00  0.00    -0.059 OA 
ATOM     30  N   GLU A   1      -9.567   7.839  70.436  1.00  0.00    -0.175 N  
ATOM     31  H   GLU A   1     -10.183   7.159  69.989  1.00  0.00     0.000 HD 
BRANCH  30  32
ATOM     32  CA  GLU A   1     -10.081   8.729  71.497  1.00  0.00    -0.301 C  
ATOM     33  O   GLU A   1      -8.406   7.529  72.763  1.00  0.00    -0.107 OA 
ATOM     34  C   GLU A   1      -9.131   8.676  72.710  1.00  0.00    -0.006 C  
ATOM     35  OXT GLU A   1      -9.127   9.492  73.619  1.00  0.00     2.491 OA 
BRANCH  32  36
ATOM     36  CB  GLU A   1     -11.494   8.292  71.921  1.00  0.00    -0.372 C  
BRANCH  36  37
ATOM     37  CG  GLU A   1     -11.535   6.890  72.541  1.00  0.00    -0.268 C  
ATOM     38  CD  GLU A   1     -11.754   5.804  71.516  1.00  0.00     0.145 C  
ATOM     39  OE2 GLU A   1     -11.896   5.983  70.319  1.00  0.00    -0.103 OA 
ATOM     40  OE1 GLU A   1     -11.767   4.571  72.073  1.00  0.00     0.829 OA 
ENDBRANCH  36  37
ENDBRANCH  32  36
ENDBRANCH  30  32
ENDBRANCH  25  28
ENDBRANCH   9  17
TORSDOF 6
ENDMDL
MODEL      261
REMARK 921   NORMALIZED FREE ENERGY PREDICTED BY IDOCK:   51.49 KCAL/MOL
REMARK 922        TOTAL FREE ENERGY PREDICTED BY IDOCK:   68.14 KCAL/MOL
REMARK 923 INTER-LIGAND FREE ENERGY PREDICTED BY IDOCK:   66.93 KCAL/MOL
REMARK 924 INTRA-LIGAND FREE ENERGY PREDICTED BY IDOCK:    1.21 KCAL/MOL
REMARK 927      BINDING AFFINITY PREDICTED BY RF-SCORE:    0.00 PKD
ROOT
HETATM    1  N   UNK A   0     -12.748  10.096  62.880  1.00  0.00     4.971 NA 
HETATM    2  C   UNK A   0     -11.837   9.097  63.125  1.00  0.00    14.377 A  
HETATM    3  H2  UNK A   0     -12.578  11.052  63.191  1.00  0.00     0.000 HD 
HETATM    4  H1  UNK A   0     -13.599   9.850  62.374  1.00  0.00     0.000 HD 
HETATM    5  N   UNK A   0     -10.727   9.419  63.783  1.00  0.00     4.389 NA 
HETATM    6  C   UNK A   0      -9.806   8.471  63.946  1.00  0.00     3.418 A  
HETATM    7  N   UNK A   0      -8.654   8.814  64.533  1.00  0.00    -0.142 NA 
HETATM    8  C   UNK A   0      -7.673   7.883  64.609  1.00  0.00    -0.120 A  
HETATM    9  C   UNK A   0      -7.821   6.592  64.124  1.00  0.00    -0.108 A  
HETATM   10  H2  UNK A   0     -11.445   5.003  63.163  1.00  0.00     0.000 HD 
HETATM   11  N   UNK A   0      -8.995   6.207  63.579  1.00  0.00     0.631 NA 
HETATM   12  H1  UNK A   0     -12.414   5.495  61.916  1.00  0.00     0.000 HD 
HETATM   13  C   UNK A   0      -9.973   7.161  63.486  1.00  0.00     5.960 A  
HETATM   14  C   UNK A   0     -11.188   6.941  62.849  1.00  0.00    13.335 A  
HETATM   15  N   UNK A   0     -11.522   5.657  62.384  1.00  0.00     3.112 NA 
HETATM   16  N   UNK A   0     -12.120   7.885  62.661  1.00  0.00    18.098 NA 
ENDROOT
BRANCH   9  17
HETATM   17  C   UNK A   0      -6.668   5.619  64.062  1.00  0.00    -0.045 C  
HETATM   18  C   UNK A   0      -7.044   4.969  66.498  1.00  0.00    -0.069 A  
HETATM   19  C   UNK A   0      -6.149   5.868  67.103  1.00  0.00    -0.022 A  
HETATM   20  C   UNK A   0      -8.219   4.626  67.181  1.00  0.00    -0.105 A  
HETATM   21  C   UNK A   0      -6.810   4.448  65.076  1.00  0.00    -0.050 C  
HETATM   22  C   UNK A   0      -8.552   5.257  68.380  1.00  0.00    -0.095 A  
HETATM   23  C   UNK A   0      -6.478   6.501  68.306  1.00  0.00    -0.049 A  
HETATM   24  C   UNK A   0      -5.601   3.493  65.056  1.00  0.00    -0.010 C  
HETATM   25  C   UNK A   0      -7.711   6.238  68.911  1.00  0.00    -0.097 A  
BRANCH  24  26
HETATM   26  C   UNK A   0      -5.360   2.868  63.743  1.00  0.00    -0.009 C  
HETATM   27  C   UNK A   0      -5.237   2.357  62.663  1.00  0.00    -0.004 C  
ENDBRANCH  24  26
BRANCH  25  28
HETATM   28  C   UNK A   0      -8.121   7.032  70.096  1.00  0.00    -0.130 C  
HETATM   29  O   UNK A   0      -8.348   8.232  70.005  1.00  0.00    -0.117 OA 
ATOM     30  N   GLU A   1      -8.277   6.315  71.280  1.00  0.00    -0.121 N  
ATOM     31  H   GLU A   1      -7.998   5.335  71.328  1.00  0.00     0.000 HD 
BRANCH  30  32
ATOM     32  CA  GLU A   1      -8.852   6.987  72.463  1.00  0.00    -0.124 C  
ATOM     33  O   GLU A   1      -7.007   8.484  72.014  1.00  0.00    -0.090 OA 
ATOM     34  C   GLU A   1      -8.224   8.388  72.607  1.00  0.00    -0.126 C  
ATOM     35  OXT GLU A   1      -8.681   9.281  73.306  1.00  0.00     0.694 OA 
BRANCH  32  36
ATOM     36  CB  GLU A   1      -8.579   6.160  73.732  1.00  0.00    -0.123 C  
BRANCH  36  37
ATOM     37  CG  GLU A   1      -9.145   4.736  73.660  1.00  0.00    -0.109 C  
ATOM     38  CD  GLU A   1      -8.082   3.676  73.815  1.00  0.00    -0.083 C  
ATOM     39  OE2 GLU A   1      -6.892   3.889  73.973  1.00  0.00    -0.050 OA 
ATOM     40  OE1 GLU A   1      -8.597   2.426  73.771  1.00  0.00    -0.063 OA 
ENDBRANCH  36  37
ENDBRANCH  32  36
ENDBRANCH  30  32
ENDBRANCH  25  28
ENDBRANCH   9  17
TORSDOF 6
ENDMDL
MODEL      262
REMARK 921   NORMALIZED FREE ENERGY PREDICTED BY IDOCK:   51.84 KCAL/MOL
REMARK 922        TOTAL FREE ENERGY PREDICTED BY IDOCK:   68.61 KCAL/MOL
REMARK 923 INTER-LIGAND FREE ENERGY PREDICTED BY IDOCK:   67.69 KCAL/MOL
REMARK 924 INTRA-LIGAND FREE ENERGY PREDICTED BY IDOCK:    0.93 KCAL/MOL
REMARK 927      BINDING AFFINITY PREDICTED BY RF-SCORE:    0.00 PKD
ROOT
HETATM    1  N   UNK A   0     -12.748  10.096  62.880  1.00  0.00     4.971 NA 
HETATM    2  C   UNK A   0     -11.837   9.097  63.125  1.00  0.00    14.377 A  
HETATM    3  H2  UNK A   0     -12.578  11.052  63.191  1.00  0.00     0.000 HD 
HETATM    4  H1  UNK A   0     -13.599   9.850  62.374  1.00  0.00     0.000 HD 
HETATM    5  N   UNK A   0     -10.727   9.419  63.783  1.00  0.00     4.389 NA 
HETATM    6  C   UNK A   0      -9.806   8.471  63.946  1.00  0.00     3.418 A  
HETATM    7  N   UNK A   0      -8.654   8.814  64.533  1.00  0.00    -0.142 NA 
HETATM    8  C   UNK A   0      -7.673   7.883  64.609  1.00  0.00    -0.120 A  
HETATM    9  C   UNK A   0      -7.821   6.592  64.124  1.00  0.00    -0.108 A  
HETATM   10  H2  UNK A   0     -11.445   5.003  63.163  1.00  0.00     0.000 HD 
HETATM   11  N   UNK A   0      -8.995   6.207  63.579  1.00  0.00     0.631 NA 
HETATM   12  H1  UNK A   0     -12.414   5.495  61.916  1.00  0.00     0.000 HD 
HETATM   13  C   UNK A   0      -9.973   7.161  63.486  1.00  0.00     5.960 A  
HETATM   14  C   UNK A   0     -11.188   6.941  62.849  1.00  0.00    13.335 A  
HETATM   15  N   UNK A   0     -11.522   5.657  62.384  1.00  0.00     3.112 NA 
HETATM   16  N   UNK A   0     -12.120   7.885  62.661  1.00  0.00    18.098 NA 
ENDROOT
BRANCH   9  17
HETATM   17  C   UNK A   0      -6.668   5.619  64.062  1.00  0.00    -0.045 C  
HETATM   18  C   UNK A   0      -7.044   4.969  66.498  1.00  0.00    -0.069 A  
HETATM   19  C   UNK A   0      -6.149   5.868  67.103  1.00  0.00    -0.022 A  
HETATM   20  C   UNK A   0      -8.219   4.626  67.181  1.00  0.00    -0.105 A  
HETATM   21  C   UNK A   0      -6.810   4.448  65.076  1.00  0.00    -0.050 C  
HETATM   22  C   UNK A   0      -8.552   5.257  68.380  1.00  0.00    -0.095 A  
HETATM   23  C   UNK A   0      -6.478   6.501  68.306  1.00  0.00    -0.049 A  
HETATM   24  C   UNK A   0      -5.601   3.493  65.056  1.00  0.00    -0.010 C  
HETATM   25  C   UNK A   0      -7.711   6.238  68.911  1.00  0.00    -0.097 A  
BRANCH  24  26
HETATM   26  C   UNK A   0      -5.360   2.868  63.743  1.00  0.00    -0.009 C  
HETATM   27  C   UNK A   0      -5.237   2.357  62.663  1.00  0.00    -0.004 C  
ENDBRANCH  24  26
BRANCH  25  28
HETATM   28  C   UNK A   0      -8.121   7.032  70.096  1.00  0.00    -0.130 C  
HETATM   29  O   UNK A   0      -8.112   6.544  71.219  1.00  0.00    -0.110 OA 
ATOM     30  N   GLU A   1      -8.455   8.362  69.846  1.00  0.00    -0.124 N  
ATOM     31  H   GLU A   1      -8.527   8.703  68.888  1.00  0.00     0.000 HD 
BRANCH  30  32
ATOM     32  CA  GLU A   1      -8.703   9.272  70.984  1.00  0.00    -0.116 C  
ATOM     33  O   GLU A   1     -10.308   7.540  71.504  1.00  0.00    -0.196 OA 
ATOM     34  C   GLU A   1      -9.570   8.548  72.034  1.00  0.00    -0.301 C  
ATOM     35  OXT GLU A   1      -9.712   8.924  73.188  1.00  0.00     0.228 OA 
BRANCH  32  36
ATOM     36  CB  GLU A   1      -9.419  10.545  70.502  1.00  0.00     1.220 C  
BRANCH  36  37
ATOM     37  CG  GLU A   1      -8.636  11.312  69.429  1.00  0.00     0.376 C  
ATOM     38  CD  GLU A   1      -9.405  11.462  68.140  1.00  0.00    -0.181 C  
ATOM     39  OE2 GLU A   1     -10.525  11.027  67.932  1.00  0.00    -0.178 OA 
ATOM     40  OE1 GLU A   1      -8.712  12.157  67.209  1.00  0.00    -0.167 OA 
ENDBRANCH  36  37
ENDBRANCH  32  36
ENDBRANCH  30  32
ENDBRANCH  25  28
ENDBRANCH   9  17
TORSDOF 6
ENDMDL
MODEL      263
REMARK 921   NORMALIZED FREE ENERGY PREDICTED BY IDOCK:   62.65 KCAL/MOL
REMARK 922        TOTAL FREE ENERGY PREDICTED BY IDOCK:   83.21 KCAL/MOL
REMARK 923 INTER-LIGAND FREE ENERGY PREDICTED BY IDOCK:   66.71 KCAL/MOL
REMARK 924 INTRA-LIGAND FREE ENERGY PREDICTED BY IDOCK:   16.49 KCAL/MOL
REMARK 927      BINDING AFFINITY PREDICTED BY RF-SCORE:    0.00 PKD
ROOT
HETATM    1  N   UNK A   0      -6.031  14.365  63.384  1.00  0.00    19.456 NA 
HETATM    2  C   UNK A   0      -6.874  14.174  64.452  1.00  0.00    21.153 A  
HETATM    3  H2  UNK A   0      -6.376  14.736  62.499  1.00  0.00     0.000 HD 
HETATM    4  H1  UNK A   0      -5.047  14.124  63.506  1.00  0.00     0.000 HD 
HETATM    5  N   UNK A   0      -8.156  14.489  64.292  1.00  0.00     9.972 NA 
HETATM    6  C   UNK A   0      -8.956  14.386  65.351  1.00  0.00     1.384 A  
HETATM    7  N   UNK A   0     -10.227  14.782  65.216  1.00  0.00    -0.379 NA 
HETATM    8  C   UNK A   0     -11.019  14.777  66.314  1.00  0.00    -0.330 A  
HETATM    9  C   UNK A   0     -10.575  14.363  67.561  1.00  0.00    -0.265 A  
HETATM   10  H2  UNK A   0      -7.128  12.260  68.083  1.00  0.00     0.000 HD 
HETATM   11  N   UNK A   0      -9.313  13.905  67.709  1.00  0.00    -0.196 NA 
HETATM   12  H1  UNK A   0      -5.599  12.833  67.820  1.00  0.00     0.000 HD 
HETATM   13  C   UNK A   0      -8.513  13.934  66.598  1.00  0.00     0.158 A  
HETATM   14  C   UNK A   0      -7.165  13.601  66.628  1.00  0.00     1.530 A  
HETATM   15  N   UNK A   0      -6.589  13.078  67.799  1.00  0.00    -0.130 NA 
HETATM   16  N   UNK A   0      -6.339  13.714  65.578  1.00  0.00     8.280 NA 
ENDROOT
BRANCH   9  17
HETATM   17  C   UNK A   0     -11.414  14.522  68.807  1.00  0.00    -0.322 C  
HETATM   18  C   UNK A   0     -10.388  12.413  69.805  1.00  0.00     1.121 A  
HETATM   19  C   UNK A   0     -11.347  11.480  69.374  1.00  0.00    -0.355 A  
HETATM   20  C   UNK A   0      -9.049  12.006  69.903  1.00  0.00     2.590 A  
HETATM   21  C   UNK A   0     -10.759  13.877  70.062  1.00  0.00     0.472 C  
HETATM   22  C   UNK A   0      -8.660  10.739  69.466  1.00  0.00     0.114 A  
HETATM   23  C   UNK A   0     -10.960  10.210  68.938  1.00  0.00    -0.261 A  
HETATM   24  C   UNK A   0     -11.646  13.984  71.317  1.00  0.00     0.361 C  
HETATM   25  C   UNK A   0      -9.606   9.863  68.927  1.00  0.00    -0.172 A  
BRANCH  24  26
HETATM   26  C   UNK A   0     -11.974  15.370  71.696  1.00  0.00    -0.454 C  
HETATM   27  C   UNK A   0     -12.177  16.502  72.042  1.00  0.00    -0.033 C  
ENDBRANCH  24  26
BRANCH  25  28
HETATM   28  C   UNK A   0      -9.190   8.578  68.313  1.00  0.00    -0.138 C  
HETATM   29  O   UNK A   0      -8.300   7.899  68.808  1.00  0.00    -0.125 OA 
ATOM     30  N   GLU A   1      -9.911   8.186  67.187  1.00  0.00    -0.195 N  
ATOM     31  H   GLU A   1     -10.587   8.821  66.761  1.00  0.00     0.000 HD 
BRANCH  30  32
ATOM     32  CA  GLU A   1      -9.686   6.842  66.615  1.00  0.00    -0.158 C  
ATOM     33  O   GLU A   1      -9.498   8.165  64.601  1.00  0.00     0.976 OA 
ATOM     34  C   GLU A   1      -9.155   6.984  65.175  1.00  0.00     0.548 C  
ATOM     35  OXT GLU A   1      -8.619   6.084  64.545  1.00  0.00    -0.037 OA 
BRANCH  32  36
ATOM     36  CB  GLU A   1     -10.997   6.037  66.613  1.00  0.00    -0.229 C  
BRANCH  36  37
ATOM     37  CG  GLU A   1     -10.981   4.855  65.636  1.00  0.00     0.011 C  
ATOM     38  CD  GLU A   1     -10.188   5.141  64.385  1.00  0.00     1.067 C  
ATOM     39  OE2 GLU A   1      -9.614   6.189  64.138  1.00  0.00     1.479 OA 
ATOM     40  OE1 GLU A   1     -10.165   4.084  63.541  1.00  0.00    -0.178 OA 
ENDBRANCH  36  37
ENDBRANCH  32  36
ENDBRANCH  30  32
ENDBRANCH  25  28
ENDBRANCH   9  17
TORSDOF 6
ENDMDL
MODEL      264
REMARK 921   NORMALIZED FREE ENERGY PREDICTED BY IDOCK:   64.28 KCAL/MOL
REMARK 922        TOTAL FREE ENERGY PREDICTED BY IDOCK:   85.41 KCAL/MOL
REMARK 923 INTER-LIGAND FREE ENERGY PREDICTED BY IDOCK:   85.64 KCAL/MOL
REMARK 924 INTRA-LIGAND FREE ENERGY PREDICTED BY IDOCK:   -0.22 KCAL/MOL
REMARK 927      BINDING AFFINITY PREDICTED BY RF-SCORE:    0.00 PKD
ROOT
HETATM    1  N   UNK A   0      -5.282  16.295  63.023  1.00  0.00     7.356 NA 
HETATM    2  C   UNK A   0      -5.769  16.838  64.187  1.00  0.00     7.296 A  
HETATM    3  H2  UNK A   0      -5.103  15.294  62.942  1.00  0.00     0.000 HD 
HETATM    4  H1  UNK A   0      -5.105  16.926  62.241  1.00  0.00     0.000 HD 
HETATM    5  N   UNK A   0      -5.999  16.015  65.205  1.00  0.00     5.565 NA 
HETATM    6  C   UNK A   0      -6.551  16.526  66.304  1.00  0.00     0.547 A  
HETATM    7  N   UNK A   0      -6.861  15.686  67.298  1.00  0.00    -0.207 NA 
HETATM    8  C   UNK A   0      -7.516  16.182  68.374  1.00  0.00    -0.153 A  
HETATM    9  C   UNK A   0      -7.858  17.520  68.497  1.00  0.00    -0.274 A  
HETATM   10  H2  UNK A   0      -6.258  20.427  66.137  1.00  0.00     0.000 HD 
HETATM   11  N   UNK A   0      -7.505  18.397  67.532  1.00  0.00    -0.218 NA 
HETATM   12  H1  UNK A   0      -6.508  20.595  64.510  1.00  0.00     0.000 HD 
HETATM   13  C   UNK A   0      -6.863  17.883  66.438  1.00  0.00    -0.242 A  
HETATM   14  C   UNK A   0      -6.541  18.645  65.321  1.00  0.00    -0.187 A  
HETATM   15  N   UNK A   0      -6.744  20.036  65.330  1.00  0.00    -0.295 NA 
HETATM   16  N   UNK A   0      -6.001  18.146  64.201  1.00  0.00     0.523 NA 
ENDROOT
BRANCH   9  17
HETATM   17  C   UNK A   0      -8.734  18.026  69.618  1.00  0.00     0.975 C  
HETATM   18  C   UNK A   0     -10.088  15.867  69.579  1.00  0.00    -0.277 A  
HETATM   19  C   UNK A   0     -11.112  16.269  68.704  1.00  0.00    -0.356 A  
HETATM   20  C   UNK A   0      -9.672  14.528  69.560  1.00  0.00     0.193 A  
HETATM   21  C   UNK A   0      -9.355  16.879  70.466  1.00  0.00     2.952 C  
HETATM   22  C   UNK A   0     -10.180  13.643  68.608  1.00  0.00    -0.199 A  
HETATM   23  C   UNK A   0     -11.624  15.384  67.751  1.00  0.00    -0.237 A  
HETATM   24  C   UNK A   0     -10.299  17.397  71.568  1.00  0.00     3.634 C  
HETATM   25  C   UNK A   0     -11.110  14.087  67.665  1.00  0.00    -0.298 A  
BRANCH  24  26
HETATM   26  C   UNK A   0      -9.647  18.307  72.528  1.00  0.00     9.424 C  
HETATM   27  C   UNK A   0      -9.124  18.995  73.362  1.00  0.00     6.618 C  
ENDBRANCH  24  26
BRANCH  25  28
HETATM   28  C   UNK A   0     -11.541  13.208  66.549  1.00  0.00    -0.356 C  
HETATM   29  O   UNK A   0     -11.664  13.645  65.412  1.00  0.00    -0.316 OA 
ATOM     30  N   GLU A   1     -11.737  11.868  66.876  1.00  0.00    -0.281 N  
ATOM     31  H   GLU A   1     -11.703  11.566  67.850  1.00  0.00     0.000 HD 
BRANCH  30  32
ATOM     32  CA  GLU A   1     -11.994  10.890  65.799  1.00  0.00     2.049 C  
ATOM     33  O   GLU A   1     -14.016  10.595  67.091  1.00  0.00    14.356 OA 
ATOM     34  C   GLU A   1     -13.468  10.443  65.859  1.00  0.00    14.960 C  
ATOM     35  OXT GLU A   1     -14.051   9.866  64.952  1.00  0.00    12.338 OA 
BRANCH  32  36
ATOM     36  CB  GLU A   1     -11.070   9.669  65.955  1.00  0.00     1.394 C  
BRANCH  36  37
ATOM     37  CG  GLU A   1      -9.765   9.987  66.695  1.00  0.00    -0.246 C  
ATOM     38  CD  GLU A   1      -8.554   9.926  65.798  1.00  0.00    -0.139 C  
ATOM     39  OE2 GLU A   1      -8.569   9.649  64.611  1.00  0.00    -0.157 OA 
ATOM     40  OE1 GLU A   1      -7.413  10.228  66.459  1.00  0.00    -0.104 OA 
ENDBRANCH  36  37
ENDBRANCH  32  36
ENDBRANCH  30  32
ENDBRANCH  25  28
ENDBRANCH   9  17
TORSDOF 6
ENDMDL
MODEL      265
REMARK 921   NORMALIZED FREE ENERGY PREDICTED BY IDOCK:   75.38 KCAL/MOL
REMARK 922        TOTAL FREE ENERGY PREDICTED BY IDOCK:  100.40 KCAL/MOL
REMARK 923 INTER-LIGAND FREE ENERGY PREDICTED BY IDOCK:   82.67 KCAL/MOL
REMARK 924 INTRA-LIGAND FREE ENERGY PREDICTED BY IDOCK:   17.73 KCAL/MOL
REMARK 927      BINDING AFFINITY PREDICTED BY RF-SCORE:    0.00 PKD
ROOT
HETATM    1  N   UNK A   0      -6.003  14.383  63.356  1.00  0.00    19.456 NA 
HETATM    2  C   UNK A   0      -6.819  14.499  64.456  1.00  0.00    19.979 A  
HETATM    3  H2  UNK A   0      -6.359  14.551  62.416  1.00  0.00     0.000 HD 
HETATM    4  H1  UNK A   0      -5.029  14.124  63.513  1.00  0.00     0.000 HD 
HETATM    5  N   UNK A   0      -8.088  14.838  64.252  1.00  0.00    10.098 NA 
HETATM    6  C   UNK A   0      -8.857  15.034  65.321  1.00  0.00     1.939 A  
HETATM    7  N   UNK A   0     -10.111  15.456  65.121  1.00  0.00    -0.314 NA 
HETATM    8  C   UNK A   0     -10.865  15.757  66.204  1.00  0.00    -0.240 A  
HETATM    9  C   UNK A   0     -10.402  15.627  67.505  1.00  0.00    -0.277 A  
HETATM   10  H2  UNK A   0      -7.046  13.520  68.444  1.00  0.00     0.000 HD 
HETATM   11  N   UNK A   0      -9.159  15.148  67.732  1.00  0.00    -0.178 NA 
HETATM   12  H1  UNK A   0      -5.501  13.928  68.020  1.00  0.00     0.000 HD 
HETATM   13  C   UNK A   0      -8.396  14.868  66.631  1.00  0.00    -0.024 A  
HETATM   14  C   UNK A   0      -7.065  14.476  66.711  1.00  0.00     1.196 A  
HETATM   15  N   UNK A   0      -6.478  14.215  67.961  1.00  0.00    -0.133 NA 
HETATM   16  N   UNK A   0      -6.271  14.290  65.648  1.00  0.00     8.323 NA 
ENDROOT
BRANCH   9  17
HETATM   17  C   UNK A   0     -11.190  16.124  68.693  1.00  0.00    -0.369 C  
HETATM   18  C   UNK A   0     -10.036  14.428  70.207  1.00  0.00     1.080 A  
HETATM   19  C   UNK A   0     -10.975  13.386  70.121  1.00  0.00     0.609 A  
HETATM   20  C   UNK A   0      -8.679  14.103  70.347  1.00  0.00     2.621 A  
HETATM   21  C   UNK A   0     -10.455  15.893  70.045  1.00  0.00    -0.295 C  
HETATM   22  C   UNK A   0      -8.259  12.773  70.279  1.00  0.00     4.188 A  
HETATM   23  C   UNK A   0     -10.557  12.053  70.055  1.00  0.00     1.095 A  
HETATM   24  C   UNK A   0     -11.289  16.342  71.260  1.00  0.00    -0.272 C  
HETATM   25  C   UNK A   0      -9.192  11.754  70.072  1.00  0.00     2.680 A  
BRANCH  24  26
HETATM   26  C   UNK A   0     -11.655  17.769  71.234  1.00  0.00     3.611 C  
HETATM   27  C   UNK A   0     -11.888  18.948  71.244  1.00  0.00     9.619 C  
ENDBRANCH  24  26
BRANCH  25  28
HETATM   28  C   UNK A   0      -8.752  10.356  69.839  1.00  0.00     0.170 C  
HETATM   29  O   UNK A   0      -7.814   9.875  70.463  1.00  0.00    -0.246 OA 
ATOM     30  N   GLU A   1      -9.505   9.632  68.917  1.00  0.00    -0.153 N  
ATOM     31  H   GLU A   1     -10.224  10.096  68.361  1.00  0.00     0.000 HD 
BRANCH  30  32
ATOM     32  CA  GLU A   1      -9.251   8.186  68.752  1.00  0.00    -0.144 C  
ATOM     33  O   GLU A   1      -9.209   8.862  66.432  1.00  0.00    -0.161 OA 
ATOM     34  C   GLU A   1      -8.793   7.911  67.306  1.00  0.00    -0.127 C  
ATOM     35  OXT GLU A   1      -8.250   6.880  66.939  1.00  0.00    -0.111 OA 
BRANCH  32  36
ATOM     36  CB  GLU A   1     -10.528   7.382  69.058  1.00  0.00    -0.217 C  
BRANCH  36  37
ATOM     37  CG  GLU A   1     -10.519   5.976  68.447  1.00  0.00    -0.290 C  
ATOM     38  CD  GLU A   1      -9.753   5.906  67.150  1.00  0.00    -0.132 C  
ATOM     39  OE2 GLU A   1      -9.194   6.845  66.609  1.00  0.00    -0.147 OA 
ATOM     40  OE1 GLU A   1      -9.735   4.656  66.633  1.00  0.00    -0.164 OA 
ENDBRANCH  36  37
ENDBRANCH  32  36
ENDBRANCH  30  32
ENDBRANCH  25  28
ENDBRANCH   9  17
TORSDOF 6
ENDMDL
MODEL      266
REMARK 921   NORMALIZED FREE ENERGY PREDICTED BY IDOCK:   75.65 KCAL/MOL
REMARK 922        TOTAL FREE ENERGY PREDICTED BY IDOCK:  100.77 KCAL/MOL
REMARK 923 INTER-LIGAND FREE ENERGY PREDICTED BY IDOCK:   90.68 KCAL/MOL
REMARK 924 INTRA-LIGAND FREE ENERGY PREDICTED BY IDOCK:   10.09 KCAL/MOL
REMARK 927      BINDING AFFINITY PREDICTED BY RF-SCORE:    0.00 PKD
ROOT
HETATM    1  N   UNK A   0     -10.551  15.661  66.309  1.00  0.00    -0.303 NA 
HETATM    2  C   UNK A   0     -10.430  14.622  67.200  1.00  0.00    -0.268 A  
HETATM    3  H2  UNK A   0     -11.044  15.540  65.424  1.00  0.00     0.000 HD 
HETATM    4  H1  UNK A   0     -10.133  16.556  66.562  1.00  0.00     0.000 HD 
HETATM    5  N   UNK A   0     -10.976  13.456  66.871  1.00  0.00    -0.281 NA 
HETATM    6  C   UNK A   0     -10.933  12.475  67.770  1.00  0.00    -0.234 A  
HETATM    7  N   UNK A   0     -11.555  11.328  67.474  1.00  0.00    -0.559 NA 
HETATM    8  C   UNK A   0     -11.605  10.364  68.424  1.00  0.00    -0.052 A  
HETATM    9  C   UNK A   0     -11.025  10.508  69.675  1.00  0.00    -0.283 A  
HETATM   10  H2  UNK A   0      -8.316  13.429  70.521  1.00  0.00     0.000 HD 
HETATM   11  N   UNK A   0     -10.343  11.635  69.976  1.00  0.00     0.934 NA 
HETATM   12  H1  UNK A   0      -8.632  15.052  70.570  1.00  0.00     0.000 HD 
HETATM   13  C   UNK A   0     -10.317  12.613  69.018  1.00  0.00     0.065 A  
HETATM   14  C   UNK A   0      -9.751  13.864  69.228  1.00  0.00     0.362 A  
HETATM   15  N   UNK A   0      -9.047  14.133  70.415  1.00  0.00     2.279 NA 
HETATM   16  N   UNK A   0      -9.798  14.869  68.343  1.00  0.00    -0.210 NA 
ENDROOT
BRANCH   9  17
HETATM   17  C   UNK A   0     -11.232   9.499  70.779  1.00  0.00    -0.383 C  
HETATM   18  C   UNK A   0     -12.392  11.259  72.213  1.00  0.00     1.214 A  
HETATM   19  C   UNK A   0     -11.280  11.712  72.943  1.00  0.00    10.977 A  
HETATM   20  C   UNK A   0     -13.406  12.173  71.894  1.00  0.00    -0.421 A  
HETATM   21  C   UNK A   0     -12.462   9.826  71.674  1.00  0.00    -0.500 C  
HETATM   22  C   UNK A   0     -13.256  13.529  72.190  1.00  0.00    -0.551 A  
HETATM   23  C   UNK A   0     -11.128  13.069  73.242  1.00  0.00     9.972 A  
HETATM   24  C   UNK A   0     -12.633   8.832  72.838  1.00  0.00     0.114 C  
HETATM   25  C   UNK A   0     -12.091  13.985  72.810  1.00  0.00     0.418 A  
BRANCH  24  26
HETATM   26  C   UNK A   0     -12.805   7.434  72.404  1.00  0.00     0.133 C  
HETATM   27  C   UNK A   0     -12.876   6.282  72.070  1.00  0.00     0.123 C  
ENDBRANCH  24  26
BRANCH  25  28
HETATM   28  C   UNK A   0     -11.842  15.437  72.989  1.00  0.00    -0.422 C  
HETATM   29  O   UNK A   0     -11.088  16.047  72.241  1.00  0.00     0.089 OA 
ATOM     30  N   GLU A   1     -12.559  16.051  74.013  1.00  0.00    -0.613 N  
ATOM     31  H   GLU A   1     -13.112  15.491  74.662  1.00  0.00     0.000 HD 
BRANCH  30  32
ATOM     32  CA  GLU A   1     -12.510  17.522  74.151  1.00  0.00     1.133 C  
ATOM     33  O   GLU A   1     -13.470  17.363  71.938  1.00  0.00     6.259 OA 
ATOM     34  C   GLU A   1     -13.342  18.166  73.025  1.00  0.00     9.951 C  
ATOM     35  OXT GLU A   1     -13.721  19.328  73.025  1.00  0.00    17.378 OA 
BRANCH  32  36
ATOM     36  CB  GLU A   1     -11.055  18.017  74.074  1.00  0.00     1.828 C  
BRANCH  36  37
ATOM     37  CG  GLU A   1     -10.464  17.947  72.661  1.00  0.00     4.731 C  
ATOM     38  CD  GLU A   1      -9.506  16.796  72.483  1.00  0.00    11.280 C  
ATOM     39  OE2 GLU A   1      -9.201  15.993  73.348  1.00  0.00    10.989 OA 
ATOM     40  OE1 GLU A   1      -9.008  16.734  71.227  1.00  0.00     5.532 OA 
ENDBRANCH  36  37
ENDBRANCH  32  36
ENDBRANCH  30  32
ENDBRANCH  25  28
ENDBRANCH   9  17
TORSDOF 6
ENDMDL
