MODEL        1
REMARK 921   NORMALIZED FREE ENERGY PREDICTED BY IDOCK:   -5.36 KCAL/MOL
REMARK 922        TOTAL FREE ENERGY PREDICTED BY IDOCK:   -9.02 KCAL/MOL
REMARK 923 INTER-LIGAND FREE ENERGY PREDICTED BY IDOCK:   -8.18 KCAL/MOL
REMARK 924 INTRA-LIGAND FREE ENERGY PREDICTED BY IDOCK:   -0.84 KCAL/MOL
REMARK 927      BINDING AFFINITY PREDICTED BY RF-SCORE:    0.00 PKD
ROOT
HETATM    1  C   UNL     1     -12.341  16.466  74.558  1.00  0.00    -0.516 C  
HETATM    2  C   UNL     1     -12.692  15.349  73.597  1.00  0.00    -0.713 C  
ENDROOT
BRANCH   2   3
HETATM    3  C   UNL     1     -14.028  15.598  72.890  1.00  0.00    -0.477 C  
BRANCH   3   4
HETATM    4  C   UNL     1     -14.303  14.431  71.960  1.00  0.00    -0.553 C  
BRANCH   4   5
HETATM    5  O   UNL     1     -13.985  13.163  72.542  1.00  0.00    -0.676 OA 
BRANCH   5   6
HETATM    6  C   UNL     1     -13.220  12.370  71.713  1.00  0.00    -0.334 A  
HETATM    7  C   UNL     1     -13.091  10.990  71.869  1.00  0.00    -0.525 A  
HETATM    8  C   UNL     1     -12.287  10.246  71.022  1.00  0.00    -0.483 A  
HETATM    9  C   UNL     1     -11.584  10.854  69.986  1.00  0.00    -0.341 A  
HETATM   10  C   UNL     1     -12.537  12.991  70.666  1.00  0.00    -0.270 A  
HETATM   11  C   UNL     1     -11.721  12.232  69.806  1.00  0.00    -0.368 A  
BRANCH   9  12
HETATM   12  O   UNL     1     -10.754  10.172  69.125  1.00  0.00    -0.203 OA 
BRANCH  12  13
HETATM   13  C   UNL     1      -9.528  10.864  68.833  1.00  0.00    -0.172 C  
BRANCH  13  14
HETATM   14  C   UNL     1      -9.220  10.827  67.344  1.00  0.00    -0.156 C  
BRANCH  14  15
HETATM   15  C   UNL     1      -9.902  11.985  66.590  1.00  0.00    -0.204 C  
BRANCH  15  16
HETATM   16  N   UNL     1     -11.100  11.601  65.824  1.00  0.00    -0.287 NA 
HETATM   17  C   UNL     1     -12.131  12.661  65.755  1.00  0.00    -0.423 C  
HETATM   18  C   UNL     1     -11.782  13.811  64.798  1.00  0.00    -0.381 C  
HETATM   19  O   UNL     1     -11.545  13.322  63.473  1.00  0.00    -0.393 OA 
HETATM   20  C   UNL     1     -10.480  12.364  63.475  1.00  0.00    -0.393 C  
HETATM   21  C   UNL     1     -10.765  11.195  64.438  1.00  0.00    -0.318 C  
ENDBRANCH  15  16
ENDBRANCH  14  15
ENDBRANCH  13  14
ENDBRANCH  12  13
ENDBRANCH   9  12
ENDBRANCH   5   6
ENDBRANCH   4   5
ENDBRANCH   3   4
ENDBRANCH   2   3
TORSDOF 9
ENDMDL
MODEL        2
REMARK 921   NORMALIZED FREE ENERGY PREDICTED BY IDOCK:   -5.35 KCAL/MOL
REMARK 922        TOTAL FREE ENERGY PREDICTED BY IDOCK:   -9.00 KCAL/MOL
REMARK 923 INTER-LIGAND FREE ENERGY PREDICTED BY IDOCK:   -8.33 KCAL/MOL
REMARK 924 INTRA-LIGAND FREE ENERGY PREDICTED BY IDOCK:   -0.67 KCAL/MOL
REMARK 927      BINDING AFFINITY PREDICTED BY RF-SCORE:    0.00 PKD
ROOT
HETATM    1  C   UNL     1     -10.030   8.941  70.797  1.00  0.00    -0.282 C  
HETATM    2  C   UNL     1     -10.389   8.372  72.153  1.00  0.00    -0.397 C  
ENDROOT
BRANCH   2   3
HETATM    3  C   UNL     1     -11.902   8.376  72.396  1.00  0.00    -0.452 C  
BRANCH   3   4
HETATM    4  C   UNL     1     -12.533   9.402  71.472  1.00  0.00    -0.366 C  
BRANCH   4   5
HETATM    5  O   UNL     1     -13.225  10.439  72.176  1.00  0.00    -0.452 OA 
BRANCH   5   6
HETATM    6  C   UNL     1     -13.007  11.689  71.636  1.00  0.00    -0.378 A  
HETATM    7  C   UNL     1     -12.249  11.910  70.485  1.00  0.00    -0.426 A  
HETATM    8  C   UNL     1     -12.040  13.190  70.001  1.00  0.00    -0.375 A  
HETATM    9  C   UNL     1     -12.584  14.297  70.647  1.00  0.00    -0.355 A  
HETATM   10  C   UNL     1     -13.574  12.787  72.283  1.00  0.00    -0.563 A  
HETATM   11  C   UNL     1     -13.361  14.087  71.787  1.00  0.00    -0.465 A  
BRANCH   9  12
HETATM   12  O   UNL     1     -12.394  15.594  70.226  1.00  0.00    -0.400 OA 
BRANCH  12  13
HETATM   13  C   UNL     1     -11.691  15.700  68.978  1.00  0.00    -0.395 C  
BRANCH  13  14
HETATM   14  C   UNL     1     -10.672  16.830  69.018  1.00  0.00    -0.331 C  
BRANCH  14  15
HETATM   15  C   UNL     1     -10.604  17.586  67.677  1.00  0.00    -0.355 C  
BRANCH  15  16
HETATM   16  N   UNL     1     -10.650  19.054  67.795  1.00  0.00    -0.421 NA 
HETATM   17  C   UNL     1      -9.877  19.586  68.940  1.00  0.00    -0.445 C  
HETATM   18  C   UNL     1      -8.355  19.564  68.732  1.00  0.00    -0.311 C  
HETATM   19  O   UNL     1      -7.988  20.295  67.557  1.00  0.00    -0.308 OA 
HETATM   20  C   UNL     1      -8.635  19.749  66.401  1.00  0.00    -0.360 C  
HETATM   21  C   UNL     1     -10.167  19.724  66.564  1.00  0.00    -0.492 C  
ENDBRANCH  15  16
ENDBRANCH  14  15
ENDBRANCH  13  14
ENDBRANCH  12  13
ENDBRANCH   9  12
ENDBRANCH   5   6
ENDBRANCH   4   5
ENDBRANCH   3   4
ENDBRANCH   2   3
TORSDOF 9
ENDMDL
MODEL        3
REMARK 921   NORMALIZED FREE ENERGY PREDICTED BY IDOCK:   -5.33 KCAL/MOL
REMARK 922        TOTAL FREE ENERGY PREDICTED BY IDOCK:   -8.96 KCAL/MOL
REMARK 923 INTER-LIGAND FREE ENERGY PREDICTED BY IDOCK:   -8.11 KCAL/MOL
REMARK 924 INTRA-LIGAND FREE ENERGY PREDICTED BY IDOCK:   -0.85 KCAL/MOL
REMARK 927      BINDING AFFINITY PREDICTED BY RF-SCORE:    0.00 PKD
ROOT
HETATM    1  C   UNL     1      -9.165   9.969  63.430  1.00  0.00    -0.317 C  
HETATM    2  C   UNL     1     -10.128  10.907  64.126  1.00  0.00    -0.416 C  
ENDROOT
BRANCH   2   3
HETATM    3  C   UNL     1     -10.784  11.886  63.146  1.00  0.00    -0.309 C  
BRANCH   3   4
HETATM    4  C   UNL     1     -12.235  12.071  63.553  1.00  0.00    -0.547 C  
BRANCH   4   5
HETATM    5  O   UNL     1     -12.633  13.446  63.602  1.00  0.00    -0.718 OA 
BRANCH   5   6
HETATM    6  C   UNL     1     -12.060  14.131  64.653  1.00  0.00    -0.452 A  
HETATM    7  C   UNL     1     -12.138  13.711  65.981  1.00  0.00    -0.480 A  
HETATM    8  C   UNL     1     -11.566  14.452  67.001  1.00  0.00    -0.402 A  
HETATM    9  C   UNL     1     -10.893  15.640  66.731  1.00  0.00    -0.277 A  
HETATM   10  C   UNL     1     -11.371  15.309  64.364  1.00  0.00    -0.224 A  
HETATM   11  C   UNL     1     -10.789  16.060  65.403  1.00  0.00    -0.340 A  
BRANCH   9  12
HETATM   12  O   UNL     1     -10.322  16.431  67.703  1.00  0.00    -0.270 OA 
BRANCH  12  13
HETATM   13  C   UNL     1     -11.059  16.453  68.936  1.00  0.00    -0.328 C  
BRANCH  13  14
HETATM   14  C   UNL     1     -10.308  15.716  70.036  1.00  0.00    -0.309 C  
BRANCH  14  15
HETATM   15  C   UNL     1     -11.267  15.122  71.085  1.00  0.00    -0.281 C  
BRANCH  15  16
HETATM   16  N   UNL     1     -12.537  14.611  70.539  1.00  0.00    -0.341 NA 
HETATM   17  C   UNL     1     -12.727  13.156  70.728  1.00  0.00    -0.184 C  
HETATM   18  C   UNL     1     -13.084  12.754  72.167  1.00  0.00    -0.349 C  
HETATM   19  O   UNL     1     -14.268  13.427  72.609  1.00  0.00    -0.747 OA 
HETATM   20  C   UNL     1     -14.094  14.848  72.540  1.00  0.00    -0.381 C  
HETATM   21  C   UNL     1     -13.710  15.307  71.120  1.00  0.00    -0.443 C  
ENDBRANCH  15  16
ENDBRANCH  14  15
ENDBRANCH  13  14
ENDBRANCH  12  13
ENDBRANCH   9  12
ENDBRANCH   5   6
ENDBRANCH   4   5
ENDBRANCH   3   4
ENDBRANCH   2   3
TORSDOF 9
ENDMDL
MODEL        4
REMARK 921   NORMALIZED FREE ENERGY PREDICTED BY IDOCK:   -5.32 KCAL/MOL
REMARK 922        TOTAL FREE ENERGY PREDICTED BY IDOCK:   -8.95 KCAL/MOL
REMARK 923 INTER-LIGAND FREE ENERGY PREDICTED BY IDOCK:   -8.05 KCAL/MOL
REMARK 924 INTRA-LIGAND FREE ENERGY PREDICTED BY IDOCK:   -0.90 KCAL/MOL
REMARK 927      BINDING AFFINITY PREDICTED BY RF-SCORE:    0.00 PKD
ROOT
HETATM    1  C   UNL     1     -10.686   7.559  70.179  1.00  0.00    -0.248 C  
HETATM    2  C   UNL     1     -11.869   6.689  70.550  1.00  0.00    -0.430 C  
ENDROOT
BRANCH   2   3
HETATM    3  C   UNL     1     -12.716   7.315  71.663  1.00  0.00    -0.410 C  
BRANCH   3   4
HETATM    4  C   UNL     1     -12.116   8.662  72.022  1.00  0.00    -0.375 C  
BRANCH   4   5
HETATM    5  O   UNL     1     -13.085   9.716  72.054  1.00  0.00    -0.397 OA 
BRANCH   5   6
HETATM    6  C   UNL     1     -12.707  10.812  71.309  1.00  0.00    -0.441 A  
HETATM    7  C   UNL     1     -11.951  10.727  70.139  1.00  0.00    -0.432 A  
HETATM    8  C   UNL     1     -11.577  11.864  69.443  1.00  0.00    -0.388 A  
HETATM    9  C   UNL     1     -11.948  13.129  69.890  1.00  0.00    -0.317 A  
HETATM   10  C   UNL     1     -13.102  12.073  71.757  1.00  0.00    -0.460 A  
HETATM   11  C   UNL     1     -12.722  13.227  71.047  1.00  0.00    -0.374 A  
BRANCH   9  12
HETATM   12  O   UNL     1     -11.589  14.296  69.253  1.00  0.00    -0.267 OA 
BRANCH  12  13
HETATM   13  C   UNL     1     -10.273  14.260  68.677  1.00  0.00    -0.246 C  
BRANCH  13  14
HETATM   14  C   UNL     1     -10.316  14.592  67.193  1.00  0.00    -0.265 C  
BRANCH  14  15
HETATM   15  C   UNL     1     -10.436  13.324  66.326  1.00  0.00    -0.287 C  
BRANCH  15  16
HETATM   16  N   UNL     1     -11.814  12.956  65.959  1.00  0.00    -0.409 NA 
HETATM   17  C   UNL     1     -12.681  14.116  65.651  1.00  0.00    -0.441 C  
HETATM   18  C   UNL     1     -12.398  14.763  64.286  1.00  0.00    -0.320 C  
HETATM   19  O   UNL     1     -12.527  13.806  63.229  1.00  0.00    -0.819 OA 
HETATM   20  C   UNL     1     -11.629  12.708  63.432  1.00  0.00    -0.469 C  
HETATM   21  C   UNL     1     -11.852  12.034  64.799  1.00  0.00    -0.254 C  
ENDBRANCH  15  16
ENDBRANCH  14  15
ENDBRANCH  13  14
ENDBRANCH  12  13
ENDBRANCH   9  12
ENDBRANCH   5   6
ENDBRANCH   4   5
ENDBRANCH   3   4
ENDBRANCH   2   3
TORSDOF 9
ENDMDL
MODEL        5
REMARK 921   NORMALIZED FREE ENERGY PREDICTED BY IDOCK:   -5.31 KCAL/MOL
REMARK 922        TOTAL FREE ENERGY PREDICTED BY IDOCK:   -8.94 KCAL/MOL
REMARK 923 INTER-LIGAND FREE ENERGY PREDICTED BY IDOCK:   -8.00 KCAL/MOL
REMARK 924 INTRA-LIGAND FREE ENERGY PREDICTED BY IDOCK:   -0.94 KCAL/MOL
REMARK 927      BINDING AFFINITY PREDICTED BY RF-SCORE:    0.00 PKD
ROOT
HETATM    1  C   UNL     1     -10.799  11.634  63.895  1.00  0.00    -0.471 C  
HETATM    2  C   UNL     1     -12.037  12.461  63.624  1.00  0.00    -0.648 C  
ENDROOT
BRANCH   2   3
HETATM    3  C   UNL     1     -11.941  13.860  64.242  1.00  0.00    -0.477 C  
BRANCH   3   4
HETATM    4  C   UNL     1     -12.594  13.824  65.612  1.00  0.00    -0.509 C  
BRANCH   4   5
HETATM    5  O   UNL     1     -11.720  14.256  66.660  1.00  0.00    -0.367 OA 
BRANCH   5   6
HETATM    6  C   UNL     1     -11.792  13.455  67.781  1.00  0.00    -0.358 A  
HETATM    7  C   UNL     1     -12.000  13.949  69.069  1.00  0.00    -0.402 A  
HETATM    8  C   UNL     1     -12.038  13.100  70.163  1.00  0.00    -0.392 A  
HETATM    9  C   UNL     1     -11.873  11.727  70.009  1.00  0.00    -0.342 A  
HETATM   10  C   UNL     1     -11.645  12.078  67.608  1.00  0.00    -0.392 A  
HETATM   11  C   UNL     1     -11.686  11.219  68.722  1.00  0.00    -0.405 A  
BRANCH   9  12
HETATM   12  O   UNL     1     -11.880  10.836  71.059  1.00  0.00    -0.323 OA 
BRANCH  12  13
HETATM   13  C   UNL     1     -13.158  10.714  71.705  1.00  0.00    -0.466 C  
BRANCH  13  14
HETATM   14  C   UNL     1     -13.353   9.316  72.273  1.00  0.00    -0.547 C  
BRANCH  14  15
HETATM   15  C   UNL     1     -12.736   8.238  71.362  1.00  0.00    -0.263 C  
BRANCH  15  16
HETATM   16  N   UNL     1     -11.932   7.223  72.065  1.00  0.00    -0.295 NA 
HETATM   17  C   UNL     1     -11.244   6.274  71.162  1.00  0.00    -0.305 C  
HETATM   18  C   UNL     1     -10.023   6.867  70.443  1.00  0.00    -0.179 C  
HETATM   19  O   UNL     1      -9.068   7.371  71.384  1.00  0.00    -0.141 OA 
HETATM   20  C   UNL     1      -9.665   8.373  72.218  1.00  0.00    -0.316 C  
HETATM   21  C   UNL     1     -10.912   7.838  72.948  1.00  0.00    -0.407 C  
ENDBRANCH  15  16
ENDBRANCH  14  15
ENDBRANCH  13  14
ENDBRANCH  12  13
ENDBRANCH   9  12
ENDBRANCH   5   6
ENDBRANCH   4   5
ENDBRANCH   3   4
ENDBRANCH   2   3
TORSDOF 9
ENDMDL
MODEL        6
REMARK 921   NORMALIZED FREE ENERGY PREDICTED BY IDOCK:   -5.28 KCAL/MOL
REMARK 922        TOTAL FREE ENERGY PREDICTED BY IDOCK:   -8.89 KCAL/MOL
REMARK 923 INTER-LIGAND FREE ENERGY PREDICTED BY IDOCK:   -7.89 KCAL/MOL
REMARK 924 INTRA-LIGAND FREE ENERGY PREDICTED BY IDOCK:   -1.00 KCAL/MOL
REMARK 927      BINDING AFFINITY PREDICTED BY RF-SCORE:    0.00 PKD
ROOT
HETATM    1  C   UNL     1     -11.238   6.216  69.496  1.00  0.00    -0.482 C  
HETATM    2  C   UNL     1     -10.757   5.408  70.682  1.00  0.00    -0.257 C  
ENDROOT
BRANCH   2   3
HETATM    3  C   UNL     1     -11.453   5.825  71.982  1.00  0.00    -0.260 C  
BRANCH   3   4
HETATM    4  C   UNL     1     -10.622   6.910  72.643  1.00  0.00    -0.233 C  
BRANCH   4   5
HETATM    5  O   UNL     1     -11.393   8.058  73.014  1.00  0.00    -0.386 OA 
BRANCH   5   6
HETATM    6  C   UNL     1     -11.517   8.973  71.990  1.00  0.00    -0.338 A  
HETATM    7  C   UNL     1     -12.712   9.620  71.674  1.00  0.00    -0.499 A  
HETATM    8  C   UNL     1     -12.786  10.511  70.617  1.00  0.00    -0.441 A  
HETATM    9  C   UNL     1     -11.667  10.791  69.838  1.00  0.00    -0.333 A  
HETATM   10  C   UNL     1     -10.382   9.258  71.230  1.00  0.00    -0.397 A  
HETATM   11  C   UNL     1     -10.460  10.166  70.157  1.00  0.00    -0.311 A  
BRANCH   9  12
HETATM   12  O   UNL     1     -11.683  11.651  68.762  1.00  0.00    -0.281 OA 
BRANCH  12  13
HETATM   13  C   UNL     1     -11.276  11.039  67.527  1.00  0.00    -0.302 C  
BRANCH  13  14
HETATM   14  C   UNL     1     -10.137  11.815  66.882  1.00  0.00    -0.231 C  
BRANCH  14  15
HETATM   15  C   UNL     1     -10.526  13.280  66.608  1.00  0.00    -0.279 C  
BRANCH  15  16
HETATM   16  N   UNL     1     -10.171  13.770  65.265  1.00  0.00    -0.341 NA 
HETATM   17  C   UNL     1     -10.417  12.789  64.185  1.00  0.00    -0.413 C  
HETATM   18  C   UNL     1     -11.900  12.615  63.823  1.00  0.00    -0.498 C  
HETATM   19  O   UNL     1     -12.484  13.866  63.442  1.00  0.00    -0.833 OA 
HETATM   20  C   UNL     1     -12.360  14.822  64.501  1.00  0.00    -0.366 C  
HETATM   21  C   UNL     1     -10.892  15.020  64.922  1.00  0.00    -0.411 C  
ENDBRANCH  15  16
ENDBRANCH  14  15
ENDBRANCH  13  14
ENDBRANCH  12  13
ENDBRANCH   9  12
ENDBRANCH   5   6
ENDBRANCH   4   5
ENDBRANCH   3   4
ENDBRANCH   2   3
TORSDOF 9
ENDMDL
MODEL        7
REMARK 921   NORMALIZED FREE ENERGY PREDICTED BY IDOCK:   -5.26 KCAL/MOL
REMARK 922        TOTAL FREE ENERGY PREDICTED BY IDOCK:   -8.87 KCAL/MOL
REMARK 923 INTER-LIGAND FREE ENERGY PREDICTED BY IDOCK:   -8.20 KCAL/MOL
REMARK 924 INTRA-LIGAND FREE ENERGY PREDICTED BY IDOCK:   -0.67 KCAL/MOL
REMARK 927      BINDING AFFINITY PREDICTED BY RF-SCORE:    0.00 PKD
ROOT
HETATM    1  C   UNL     1      -9.678  18.950  68.282  1.00  0.00    -0.412 C  
HETATM    2  C   UNL     1     -10.687  19.536  67.318  1.00  0.00    -0.604 C  
ENDROOT
BRANCH   2   3
HETATM    3  C   UNL     1     -10.538  18.958  65.907  1.00  0.00    -0.438 C  
BRANCH   3   4
HETATM    4  C   UNL     1     -10.053  17.524  66.025  1.00  0.00    -0.260 C  
BRANCH   4   5
HETATM    5  O   UNL     1     -10.771  16.618  65.182  1.00  0.00    -0.621 OA 
BRANCH   5   6
HETATM    6  C   UNL     1     -11.144  15.461  65.834  1.00  0.00    -0.247 A  
HETATM    7  C   UNL     1     -10.969  15.257  67.203  1.00  0.00    -0.331 A  
HETATM    8  C   UNL     1     -11.338  14.065  67.802  1.00  0.00    -0.328 A  
HETATM    9  C   UNL     1     -11.898  13.033  67.055  1.00  0.00    -0.377 A  
HETATM   10  C   UNL     1     -11.723  14.443  65.076  1.00  0.00    -0.389 A  
HETATM   11  C   UNL     1     -12.098  13.232  65.688  1.00  0.00    -0.488 A  
BRANCH   9  12
HETATM   12  O   UNL     1     -12.265  11.818  67.589  1.00  0.00    -0.534 OA 
BRANCH  12  13
HETATM   13  C   UNL     1     -11.323  11.296  68.540  1.00  0.00    -0.276 C  
BRANCH  13  14
HETATM   14  C   UNL     1     -12.010  10.929  69.847  1.00  0.00    -0.430 C  
BRANCH  14  15
HETATM   15  C   UNL     1     -11.427   9.641  70.459  1.00  0.00    -0.285 C  
BRANCH  15  16
HETATM   16  N   UNL     1     -11.879   9.350  71.830  1.00  0.00    -0.368 NA 
HETATM   17  C   UNL     1     -13.336   9.515  72.028  1.00  0.00    -0.452 C  
HETATM   18  C   UNL     1     -14.182   8.386  71.418  1.00  0.00    -0.325 C  
HETATM   19  O   UNL     1     -13.793   7.113  71.946  1.00  0.00    -0.307 OA 
HETATM   20  C   UNL     1     -12.406   6.864  71.687  1.00  0.00    -0.371 C  
HETATM   21  C   UNL     1     -11.510   7.979  72.257  1.00  0.00    -0.360 C  
ENDBRANCH  15  16
ENDBRANCH  14  15
ENDBRANCH  13  14
ENDBRANCH  12  13
ENDBRANCH   9  12
ENDBRANCH   5   6
ENDBRANCH   4   5
ENDBRANCH   3   4
ENDBRANCH   2   3
TORSDOF 9
ENDMDL
MODEL        8
REMARK 921   NORMALIZED FREE ENERGY PREDICTED BY IDOCK:   -5.25 KCAL/MOL
REMARK 922        TOTAL FREE ENERGY PREDICTED BY IDOCK:   -8.85 KCAL/MOL
REMARK 923 INTER-LIGAND FREE ENERGY PREDICTED BY IDOCK:   -7.94 KCAL/MOL
REMARK 924 INTRA-LIGAND FREE ENERGY PREDICTED BY IDOCK:   -0.92 KCAL/MOL
REMARK 927      BINDING AFFINITY PREDICTED BY RF-SCORE:    0.00 PKD
ROOT
HETATM    1  C   UNL     1     -10.900  11.834  63.555  1.00  0.00    -0.496 C  
HETATM    2  C   UNL     1     -12.161  12.672  63.536  1.00  0.00    -0.648 C  
ENDROOT
BRANCH   2   3
HETATM    3  C   UNL     1     -11.981  13.998  64.282  1.00  0.00    -0.463 C  
BRANCH   3   4
HETATM    4  C   UNL     1     -12.750  13.921  65.588  1.00  0.00    -0.495 C  
BRANCH   4   5
HETATM    5  O   UNL     1     -11.995  14.387  66.712  1.00  0.00    -0.411 OA 
BRANCH   5   6
HETATM    6  C   UNL     1     -11.907  13.452  67.721  1.00  0.00    -0.358 A  
HETATM    7  C   UNL     1     -11.664  12.097  67.498  1.00  0.00    -0.385 A  
HETATM    8  C   UNL     1     -11.611  11.196  68.548  1.00  0.00    -0.385 A  
HETATM    9  C   UNL     1     -11.796  11.618  69.862  1.00  0.00    -0.358 A  
HETATM   10  C   UNL     1     -12.074  13.893  69.035  1.00  0.00    -0.365 A  
HETATM   11  C   UNL     1     -12.019  12.976  70.100  1.00  0.00    -0.374 A  
BRANCH   9  12
HETATM   12  O   UNL     1     -11.775  10.768  70.945  1.00  0.00    -0.320 OA 
BRANCH  12  13
HETATM   13  C   UNL     1     -13.012  10.733  71.675  1.00  0.00    -0.476 C  
BRANCH  13  14
HETATM   14  C   UNL     1     -13.265   9.349  72.256  1.00  0.00    -0.528 C  
BRANCH  14  15
HETATM   15  C   UNL     1     -12.739   8.236  71.330  1.00  0.00    -0.263 C  
BRANCH  15  16
HETATM   16  N   UNL     1     -11.991   7.167  72.015  1.00  0.00    -0.296 NA 
HETATM   17  C   UNL     1     -11.295   6.240  71.095  1.00  0.00    -0.303 C  
HETATM   18  C   UNL     1     -10.031   6.829  70.451  1.00  0.00    -0.179 C  
HETATM   19  O   UNL     1      -9.100   7.262  71.449  1.00  0.00    -0.142 OA 
HETATM   20  C   UNL     1      -9.701   8.242  72.305  1.00  0.00    -0.292 C  
HETATM   21  C   UNL     1     -10.989   7.712  72.963  1.00  0.00    -0.400 C  
ENDBRANCH  15  16
ENDBRANCH  14  15
ENDBRANCH  13  14
ENDBRANCH  12  13
ENDBRANCH   9  12
ENDBRANCH   5   6
ENDBRANCH   4   5
ENDBRANCH   3   4
ENDBRANCH   2   3
TORSDOF 9
ENDMDL
MODEL        9
REMARK 921   NORMALIZED FREE ENERGY PREDICTED BY IDOCK:   -5.20 KCAL/MOL
REMARK 922        TOTAL FREE ENERGY PREDICTED BY IDOCK:   -8.77 KCAL/MOL
REMARK 923 INTER-LIGAND FREE ENERGY PREDICTED BY IDOCK:   -7.88 KCAL/MOL
REMARK 924 INTRA-LIGAND FREE ENERGY PREDICTED BY IDOCK:   -0.89 KCAL/MOL
REMARK 927      BINDING AFFINITY PREDICTED BY RF-SCORE:    0.00 PKD
ROOT
HETATM    1  C   UNL     1     -10.324   7.148  70.414  1.00  0.00    -0.216 C  
HETATM    2  C   UNL     1     -11.788   6.765  70.480  1.00  0.00    -0.418 C  
ENDROOT
BRANCH   2   3
HETATM    3  C   UNL     1     -12.392   7.043  71.860  1.00  0.00    -0.358 C  
BRANCH   3   4
HETATM    4  C   UNL     1     -11.988   8.443  72.287  1.00  0.00    -0.389 C  
BRANCH   4   5
HETATM    5  O   UNL     1     -13.066   9.383  72.221  1.00  0.00    -0.415 OA 
BRANCH   5   6
HETATM    6  C   UNL     1     -12.741  10.519  71.510  1.00  0.00    -0.452 A  
HETATM    7  C   UNL     1     -11.917  10.516  70.384  1.00  0.00    -0.425 A  
HETATM    8  C   UNL     1     -11.602  11.691  69.724  1.00  0.00    -0.389 A  
HETATM    9  C   UNL     1     -12.103  12.913  70.162  1.00  0.00    -0.302 A  
HETATM   10  C   UNL     1     -13.266  11.735  71.950  1.00  0.00    -0.468 A  
HETATM   11  C   UNL     1     -12.946  12.928  71.275  1.00  0.00    -0.317 A  
BRANCH   9  12
HETATM   12  O   UNL     1     -11.810  14.117  69.561  1.00  0.00    -0.280 OA 
BRANCH  12  13
HETATM   13  C   UNL     1     -10.476  14.189  69.032  1.00  0.00    -0.183 C  
BRANCH  13  14
HETATM   14  C   UNL     1     -10.484  14.672  67.589  1.00  0.00    -0.243 C  
BRANCH  14  15
HETATM   15  C   UNL     1     -10.597  13.501  66.594  1.00  0.00    -0.280 C  
BRANCH  15  16
HETATM   16  N   UNL     1     -10.205  13.827  65.212  1.00  0.00    -0.341 NA 
HETATM   17  C   UNL     1     -10.557  12.779  64.228  1.00  0.00    -0.400 C  
HETATM   18  C   UNL     1     -12.053  12.724  63.881  1.00  0.00    -0.486 C  
HETATM   19  O   UNL     1     -12.511  13.986  63.384  1.00  0.00    -0.826 OA 
HETATM   20  C   UNL     1     -12.283  15.020  64.351  1.00  0.00    -0.337 C  
HETATM   21  C   UNL     1     -10.799  15.106  64.754  1.00  0.00    -0.357 C  
ENDBRANCH  15  16
ENDBRANCH  14  15
ENDBRANCH  13  14
ENDBRANCH  12  13
ENDBRANCH   9  12
ENDBRANCH   5   6
ENDBRANCH   4   5
ENDBRANCH   3   4
ENDBRANCH   2   3
TORSDOF 9
ENDMDL
MODEL       10
REMARK 921   NORMALIZED FREE ENERGY PREDICTED BY IDOCK:   -5.20 KCAL/MOL
REMARK 922        TOTAL FREE ENERGY PREDICTED BY IDOCK:   -8.77 KCAL/MOL
REMARK 923 INTER-LIGAND FREE ENERGY PREDICTED BY IDOCK:   -7.97 KCAL/MOL
REMARK 924 INTRA-LIGAND FREE ENERGY PREDICTED BY IDOCK:   -0.80 KCAL/MOL
REMARK 927      BINDING AFFINITY PREDICTED BY RF-SCORE:    0.00 PKD
ROOT
HETATM    1  C   UNL     1     -12.598   7.077  71.129  1.00  0.00    -0.387 C  
HETATM    2  C   UNL     1     -14.016   7.418  71.536  1.00  0.00    -0.517 C  
ENDROOT
BRANCH   2   3
HETATM    3  C   UNL     1     -14.108   8.798  72.194  1.00  0.00    -0.519 C  
BRANCH   3   4
HETATM    4  C   UNL     1     -13.036   9.689  71.593  1.00  0.00    -0.412 C  
BRANCH   4   5
HETATM    5  O   UNL     1     -13.092  11.036  72.073  1.00  0.00    -0.496 OA 
BRANCH   5   6
HETATM    6  C   UNL     1     -12.699  11.958  71.126  1.00  0.00    -0.284 A  
HETATM    7  C   UNL     1     -12.842  13.337  71.286  1.00  0.00    -0.398 A  
HETATM    8  C   UNL     1     -12.453  14.217  70.290  1.00  0.00    -0.422 A  
HETATM    9  C   UNL     1     -11.903  13.752  69.100  1.00  0.00    -0.354 A  
HETATM   10  C   UNL     1     -12.130  11.478  69.946  1.00  0.00    -0.389 A  
HETATM   11  C   UNL     1     -11.734  12.375  68.936  1.00  0.00    -0.372 A  
BRANCH   9  12
HETATM   12  O   UNL     1     -11.516  14.575  68.066  1.00  0.00    -0.290 OA 
BRANCH  12  13
HETATM   13  C   UNL     1     -11.916  14.102  66.769  1.00  0.00    -0.447 C  
BRANCH  13  14
HETATM   14  C   UNL     1     -11.176  14.842  65.664  1.00  0.00    -0.343 C  
BRANCH  14  15
HETATM   15  C   UNL     1      -9.763  15.266  66.108  1.00  0.00    -0.314 C  
BRANCH  15  16
HETATM   16  N   UNL     1      -9.402  16.654  65.771  1.00  0.00    -0.512 NA 
HETATM   17  C   UNL     1     -10.423  17.650  66.166  1.00  0.00    -0.295 C  
HETATM   18  C   UNL     1     -10.467  17.936  67.675  1.00  0.00    -0.397 C  
HETATM   19  O   UNL     1      -9.192  18.381  68.150  1.00  0.00    -0.294 OA 
HETATM   20  C   UNL     1      -8.184  17.399  67.879  1.00  0.00    -0.225 C  
HETATM   21  C   UNL     1      -8.111  17.055  66.380  1.00  0.00    -0.300 C  
ENDBRANCH  15  16
ENDBRANCH  14  15
ENDBRANCH  13  14
ENDBRANCH  12  13
ENDBRANCH   9  12
ENDBRANCH   5   6
ENDBRANCH   4   5
ENDBRANCH   3   4
ENDBRANCH   2   3
TORSDOF 9
ENDMDL
MODEL       11
REMARK 921   NORMALIZED FREE ENERGY PREDICTED BY IDOCK:   -5.20 KCAL/MOL
REMARK 922        TOTAL FREE ENERGY PREDICTED BY IDOCK:   -8.77 KCAL/MOL
REMARK 923 INTER-LIGAND FREE ENERGY PREDICTED BY IDOCK:   -7.99 KCAL/MOL
REMARK 924 INTRA-LIGAND FREE ENERGY PREDICTED BY IDOCK:   -0.78 KCAL/MOL
REMARK 927      BINDING AFFINITY PREDICTED BY RF-SCORE:    0.00 PKD
ROOT
HETATM    1  C   UNL     1     -11.700   6.605  70.458  1.00  0.00    -0.453 C  
HETATM    2  C   UNL     1     -11.487   6.628  71.957  1.00  0.00    -0.329 C  
ENDROOT
BRANCH   2   3
HETATM    3  C   UNL     1     -11.632   8.040  72.536  1.00  0.00    -0.464 C  
BRANCH   3   4
HETATM    4  C   UNL     1     -12.201   8.944  71.457  1.00  0.00    -0.327 C  
BRANCH   4   5
HETATM    5  O   UNL     1     -13.070   9.956  71.976  1.00  0.00    -0.423 OA 
BRANCH   5   6
HETATM    6  C   UNL     1     -12.817  11.202  71.441  1.00  0.00    -0.439 A  
HETATM    7  C   UNL     1     -12.042  11.410  70.301  1.00  0.00    -0.459 A  
HETATM    8  C   UNL     1     -11.799  12.686  69.822  1.00  0.00    -0.379 A  
HETATM    9  C   UNL     1     -12.325  13.803  70.465  1.00  0.00    -0.359 A  
HETATM   10  C   UNL     1     -13.368  12.311  72.085  1.00  0.00    -0.473 A  
HETATM   11  C   UNL     1     -13.121  13.607  71.596  1.00  0.00    -0.455 A  
BRANCH   9  12
HETATM   12  O   UNL     1     -12.102  15.097  70.050  1.00  0.00    -0.308 OA 
BRANCH  12  13
HETATM   13  C   UNL     1     -10.712  15.419  69.883  1.00  0.00    -0.303 C  
BRANCH  13  14
HETATM   14  C   UNL     1     -10.464  16.097  68.543  1.00  0.00    -0.269 C  
BRANCH  14  15
HETATM   15  C   UNL     1     -11.281  15.444  67.412  1.00  0.00    -0.287 C  
BRANCH  15  16
HETATM   16  N   UNL     1     -10.473  14.830  66.344  1.00  0.00    -0.286 NA 
HETATM   17  C   UNL     1     -10.427  13.352  66.403  1.00  0.00    -0.286 C  
HETATM   18  C   UNL     1     -11.720  12.667  65.936  1.00  0.00    -0.420 C  
HETATM   19  O   UNL     1     -12.054  13.058  64.600  1.00  0.00    -0.366 OA 
HETATM   20  C   UNL     1     -12.211  14.480  64.516  1.00  0.00    -0.465 C  
HETATM   21  C   UNL     1     -10.948  15.221  64.995  1.00  0.00    -0.437 C  
ENDBRANCH  15  16
ENDBRANCH  14  15
ENDBRANCH  13  14
ENDBRANCH  12  13
ENDBRANCH   9  12
ENDBRANCH   5   6
ENDBRANCH   4   5
ENDBRANCH   3   4
ENDBRANCH   2   3
TORSDOF 9
ENDMDL
MODEL       12
REMARK 921   NORMALIZED FREE ENERGY PREDICTED BY IDOCK:   -5.15 KCAL/MOL
REMARK 922        TOTAL FREE ENERGY PREDICTED BY IDOCK:   -8.69 KCAL/MOL
REMARK 923 INTER-LIGAND FREE ENERGY PREDICTED BY IDOCK:   -8.01 KCAL/MOL
REMARK 924 INTRA-LIGAND FREE ENERGY PREDICTED BY IDOCK:   -0.68 KCAL/MOL
REMARK 927      BINDING AFFINITY PREDICTED BY RF-SCORE:    0.00 PKD
ROOT
HETATM    1  C   UNL     1     -12.268   7.192  71.704  1.00  0.00    -0.385 C  
HETATM    2  C   UNL     1     -12.003   8.652  72.005  1.00  0.00    -0.442 C  
ENDROOT
BRANCH   2   3
HETATM    3  C   UNL     1     -13.298   9.468  72.079  1.00  0.00    -0.535 C  
BRANCH   3   4
HETATM    4  C   UNL     1     -13.022  10.856  71.528  1.00  0.00    -0.451 C  
BRANCH   4   5
HETATM    5  O   UNL     1     -11.772  10.946  70.837  1.00  0.00    -0.306 OA 
BRANCH   5   6
HETATM    6  C   UNL     1     -11.798  11.857  69.802  1.00  0.00    -0.340 A  
HETATM    7  C   UNL     1     -11.892  13.236  69.990  1.00  0.00    -0.365 A  
HETATM    8  C   UNL     1     -11.941  14.104  68.913  1.00  0.00    -0.376 A  
HETATM    9  C   UNL     1     -11.893  13.625  67.607  1.00  0.00    -0.369 A  
HETATM   10  C   UNL     1     -11.730  11.363  68.499  1.00  0.00    -0.386 A  
HETATM   11  C   UNL     1     -11.778  12.249  67.405  1.00  0.00    -0.405 A  
BRANCH   9  12
HETATM   12  O   UNL     1     -11.958  14.436  66.495  1.00  0.00    -0.404 OA 
BRANCH  12  13
HETATM   13  C   UNL     1     -10.720  14.526  65.772  1.00  0.00    -0.315 C  
BRANCH  13  14
HETATM   14  C   UNL     1     -10.417  15.965  65.383  1.00  0.00    -0.429 C  
BRANCH  14  15
HETATM   15  C   UNL     1     -10.270  16.873  66.619  1.00  0.00    -0.312 C  
BRANCH  15  16
HETATM   16  N   UNL     1      -9.826  18.247  66.326  1.00  0.00    -0.444 NA 
HETATM   17  C   UNL     1     -10.459  19.276  67.181  1.00  0.00    -0.457 C  
HETATM   18  C   UNL     1      -9.917  19.315  68.618  1.00  0.00    -0.431 C  
HETATM   19  O   UNL     1      -8.500  19.528  68.625  1.00  0.00    -0.357 OA 
HETATM   20  C   UNL     1      -7.833  18.493  67.891  1.00  0.00    -0.253 C  
HETATM   21  C   UNL     1      -8.356  18.392  66.446  1.00  0.00    -0.251 C  
ENDBRANCH  15  16
ENDBRANCH  14  15
ENDBRANCH  13  14
ENDBRANCH  12  13
ENDBRANCH   9  12
ENDBRANCH   5   6
ENDBRANCH   4   5
ENDBRANCH   3   4
ENDBRANCH   2   3
TORSDOF 9
ENDMDL
MODEL       13
REMARK 921   NORMALIZED FREE ENERGY PREDICTED BY IDOCK:   -5.14 KCAL/MOL
REMARK 922        TOTAL FREE ENERGY PREDICTED BY IDOCK:   -8.68 KCAL/MOL
REMARK 923 INTER-LIGAND FREE ENERGY PREDICTED BY IDOCK:   -7.80 KCAL/MOL
REMARK 924 INTRA-LIGAND FREE ENERGY PREDICTED BY IDOCK:   -0.88 KCAL/MOL
REMARK 927      BINDING AFFINITY PREDICTED BY RF-SCORE:    0.00 PKD
ROOT
HETATM    1  C   UNL     1     -12.619  15.848  74.019  1.00  0.00    -0.755 C  
HETATM    2  C   UNL     1     -13.220  14.843  73.059  1.00  0.00    -0.596 C  
ENDROOT
BRANCH   2   3
HETATM    3  C   UNL     1     -13.439  15.440  71.665  1.00  0.00    -0.593 C  
BRANCH   3   4
HETATM    4  C   UNL     1     -12.303  14.989  70.766  1.00  0.00    -0.343 C  
BRANCH   4   5
HETATM    5  O   UNL     1     -11.752  16.053  69.982  1.00  0.00    -0.330 OA 
BRANCH   5   6
HETATM    6  C   UNL     1     -11.473  15.673  68.687  1.00  0.00    -0.375 A  
HETATM    7  C   UNL     1     -10.699  16.433  67.810  1.00  0.00    -0.328 A  
HETATM    8  C   UNL     1     -10.471  16.015  66.509  1.00  0.00    -0.303 A  
HETATM    9  C   UNL     1     -11.007  14.820  66.039  1.00  0.00    -0.328 A  
HETATM   10  C   UNL     1     -12.000  14.462  68.234  1.00  0.00    -0.323 A  
HETATM   11  C   UNL     1     -11.766  14.040  66.913  1.00  0.00    -0.435 A  
BRANCH   9  12
HETATM   12  O   UNL     1     -10.834  14.362  64.751  1.00  0.00    -0.395 OA 
BRANCH  12  13
HETATM   13  C   UNL     1     -12.012  13.764  64.187  1.00  0.00    -0.432 C  
BRANCH  13  14
HETATM   14  C   UNL     1     -11.669  12.491  63.427  1.00  0.00    -0.567 C  
BRANCH  14  15
HETATM   15  C   UNL     1     -10.270  11.963  63.798  1.00  0.00    -0.413 C  
BRANCH  15  16
HETATM   16  N   UNL     1     -10.267  10.682  64.526  1.00  0.00    -0.349 NA 
HETATM   17  C   UNL     1      -9.077   9.844  64.258  1.00  0.00    -0.253 C  
HETATM   18  C   UNL     1      -7.796  10.338  64.949  1.00  0.00    -0.134 C  
HETATM   19  O   UNL     1      -7.980  10.425  66.366  1.00  0.00    -0.120 OA 
HETATM   20  C   UNL     1      -9.063  11.311  66.679  1.00  0.00    -0.179 C  
HETATM   21  C   UNL     1     -10.371  10.876  65.992  1.00  0.00    -0.245 C  
ENDBRANCH  15  16
ENDBRANCH  14  15
ENDBRANCH  13  14
ENDBRANCH  12  13
ENDBRANCH   9  12
ENDBRANCH   5   6
ENDBRANCH   4   5
ENDBRANCH   3   4
ENDBRANCH   2   3
TORSDOF 9
ENDMDL
MODEL       14
REMARK 921   NORMALIZED FREE ENERGY PREDICTED BY IDOCK:   -5.12 KCAL/MOL
REMARK 922        TOTAL FREE ENERGY PREDICTED BY IDOCK:   -8.65 KCAL/MOL
REMARK 923 INTER-LIGAND FREE ENERGY PREDICTED BY IDOCK:   -8.06 KCAL/MOL
REMARK 924 INTRA-LIGAND FREE ENERGY PREDICTED BY IDOCK:   -0.59 KCAL/MOL
REMARK 927      BINDING AFFINITY PREDICTED BY RF-SCORE:    0.00 PKD
ROOT
HETATM    1  C   UNL     1     -11.776   6.817  70.355  1.00  0.00    -0.418 C  
HETATM    2  C   UNL     1     -12.144   6.769  71.823  1.00  0.00    -0.393 C  
ENDROOT
BRANCH   2   3
HETATM    3  C   UNL     1     -11.810   8.081  72.542  1.00  0.00    -0.419 C  
BRANCH   3   4
HETATM    4  C   UNL     1     -12.021   9.227  71.570  1.00  0.00    -0.368 C  
BRANCH   4   5
HETATM    5  O   UNL     1     -12.986  10.181  72.028  1.00  0.00    -0.424 OA 
BRANCH   5   6
HETATM    6  C   UNL     1     -12.811  11.429  71.469  1.00  0.00    -0.403 A  
HETATM    7  C   UNL     1     -12.119  11.651  70.279  1.00  0.00    -0.443 A  
HETATM    8  C   UNL     1     -11.951  12.930  69.776  1.00  0.00    -0.365 A  
HETATM    9  C   UNL     1     -12.472  14.034  70.443  1.00  0.00    -0.350 A  
HETATM   10  C   UNL     1     -13.356  12.525  72.139  1.00  0.00    -0.540 A  
HETATM   11  C   UNL     1     -13.185  13.824  71.625  1.00  0.00    -0.450 A  
BRANCH   9  12
HETATM   12  O   UNL     1     -12.320  15.331  70.005  1.00  0.00    -0.344 OA 
BRANCH  12  13
HETATM   13  C   UNL     1     -11.108  15.957  70.457  1.00  0.00    -0.364 C  
BRANCH  13  14
HETATM   14  C   UNL     1     -10.100  16.081  69.324  1.00  0.00    -0.249 C  
BRANCH  14  15
HETATM   15  C   UNL     1     -10.201  17.445  68.616  1.00  0.00    -0.361 C  
BRANCH  15  16
HETATM   16  N   UNL     1     -10.357  17.370  67.153  1.00  0.00    -0.326 NA 
HETATM   17  C   UNL     1     -10.415  18.691  66.489  1.00  0.00    -0.420 C  
HETATM   18  C   UNL     1      -9.057  19.404  66.394  1.00  0.00    -0.360 C  
HETATM   19  O   UNL     1      -8.099  18.591  65.706  1.00  0.00    -0.490 OA 
HETATM   20  C   UNL     1      -7.933  17.335  66.374  1.00  0.00    -0.303 C  
HETATM   21  C   UNL     1      -9.271  16.585  66.519  1.00  0.00    -0.272 C  
ENDBRANCH  15  16
ENDBRANCH  14  15
ENDBRANCH  13  14
ENDBRANCH  12  13
ENDBRANCH   9  12
ENDBRANCH   5   6
ENDBRANCH   4   5
ENDBRANCH   3   4
ENDBRANCH   2   3
TORSDOF 9
ENDMDL
MODEL       15
REMARK 921   NORMALIZED FREE ENERGY PREDICTED BY IDOCK:   -5.08 KCAL/MOL
REMARK 922        TOTAL FREE ENERGY PREDICTED BY IDOCK:   -8.59 KCAL/MOL
REMARK 923 INTER-LIGAND FREE ENERGY PREDICTED BY IDOCK:   -7.79 KCAL/MOL
REMARK 924 INTRA-LIGAND FREE ENERGY PREDICTED BY IDOCK:   -0.79 KCAL/MOL
REMARK 927      BINDING AFFINITY PREDICTED BY RF-SCORE:    0.00 PKD
ROOT
HETATM    1  C   UNL     1      -8.933  10.287  64.435  1.00  0.00    -0.255 C  
HETATM    2  C   UNL     1     -10.214  11.072  64.625  1.00  0.00    -0.392 C  
ENDROOT
BRANCH   2   3
HETATM    3  C   UNL     1     -10.629  11.811  63.348  1.00  0.00    -0.479 C  
BRANCH   3   4
HETATM    4  C   UNL     1     -12.124  12.068  63.408  1.00  0.00    -0.493 C  
BRANCH   4   5
HETATM    5  O   UNL     1     -12.450  13.458  63.503  1.00  0.00    -0.738 OA 
BRANCH   5   6
HETATM    6  C   UNL     1     -12.007  14.033  64.675  1.00  0.00    -0.430 A  
HETATM    7  C   UNL     1     -12.456  13.652  65.939  1.00  0.00    -0.502 A  
HETATM    8  C   UNL     1     -11.995  14.282  67.083  1.00  0.00    -0.449 A  
HETATM    9  C   UNL     1     -11.066  15.315  67.005  1.00  0.00    -0.305 A  
HETATM   10  C   UNL     1     -11.059  15.054  64.582  1.00  0.00    -0.335 A  
HETATM   11  C   UNL     1     -10.592  15.692  65.747  1.00  0.00    -0.374 A  
BRANCH   9  12
HETATM   12  O   UNL     1     -10.586  15.993  68.103  1.00  0.00    -0.265 OA 
BRANCH  12  13
HETATM   13  C   UNL     1     -10.764  17.417  68.027  1.00  0.00    -0.359 C  
BRANCH  13  14
HETATM   14  C   UNL     1      -9.732  18.144  68.876  1.00  0.00    -0.283 C  
BRANCH  14  15
HETATM   15  C   UNL     1      -9.132  19.354  68.136  1.00  0.00    -0.333 C  
BRANCH  15  16
HETATM   16  N   UNL     1      -7.665  19.331  68.005  1.00  0.00    -0.278 NA 
HETATM   17  C   UNL     1      -7.121  18.016  67.597  1.00  0.00    -0.198 C  
HETATM   18  C   UNL     1      -7.345  17.679  66.114  1.00  0.00    -0.309 C  
HETATM   19  O   UNL     1      -6.779  18.687  65.269  1.00  0.00    -0.473 OA 
HETATM   20  C   UNL     1      -7.352  19.967  65.559  1.00  0.00    -0.247 C  
HETATM   21  C   UNL     1      -7.178  20.348  67.042  1.00  0.00    -0.299 C  
ENDBRANCH  15  16
ENDBRANCH  14  15
ENDBRANCH  13  14
ENDBRANCH  12  13
ENDBRANCH   9  12
ENDBRANCH   5   6
ENDBRANCH   4   5
ENDBRANCH   3   4
ENDBRANCH   2   3
TORSDOF 9
ENDMDL
MODEL       16
REMARK 921   NORMALIZED FREE ENERGY PREDICTED BY IDOCK:   -5.04 KCAL/MOL
REMARK 922        TOTAL FREE ENERGY PREDICTED BY IDOCK:   -8.53 KCAL/MOL
REMARK 923 INTER-LIGAND FREE ENERGY PREDICTED BY IDOCK:   -8.04 KCAL/MOL
REMARK 924 INTRA-LIGAND FREE ENERGY PREDICTED BY IDOCK:   -0.49 KCAL/MOL
REMARK 927      BINDING AFFINITY PREDICTED BY RF-SCORE:    0.00 PKD
ROOT
HETATM    1  C   UNL     1     -11.357   6.475  70.187  1.00  0.00    -0.463 C  
HETATM    2  C   UNL     1     -10.870   7.344  71.327  1.00  0.00    -0.258 C  
ENDROOT
BRANCH   2   3
HETATM    3  C   UNL     1     -12.020   8.089  72.013  1.00  0.00    -0.375 C  
BRANCH   3   4
HETATM    4  C   UNL     1     -11.941   9.554  71.624  1.00  0.00    -0.401 C  
BRANCH   4   5
HETATM    5  O   UNL     1     -13.119  10.290  71.970  1.00  0.00    -0.447 OA 
BRANCH   5   6
HETATM    6  C   UNL     1     -13.029  11.627  71.645  1.00  0.00    -0.378 A  
HETATM    7  C   UNL     1     -13.717  12.634  72.322  1.00  0.00    -0.429 A  
HETATM    8  C   UNL     1     -13.610  13.959  71.936  1.00  0.00    -0.516 A  
HETATM    9  C   UNL     1     -12.809  14.327  70.860  1.00  0.00    -0.347 A  
HETATM   10  C   UNL     1     -12.206  11.984  70.575  1.00  0.00    -0.414 A  
HETATM   11  C   UNL     1     -12.099  13.332  70.186  1.00  0.00    -0.403 A  
BRANCH   9  12
HETATM   12  O   UNL     1     -12.678  15.625  70.416  1.00  0.00    -0.425 OA 
BRANCH  12  13
HETATM   13  C   UNL     1     -11.774  15.768  69.308  1.00  0.00    -0.374 C  
BRANCH  13  14
HETATM   14  C   UNL     1     -10.563  16.605  69.695  1.00  0.00    -0.274 C  
BRANCH  14  15
HETATM   15  C   UNL     1      -9.978  17.356  68.484  1.00  0.00    -0.331 C  
BRANCH  15  16
HETATM   16  N   UNL     1      -9.726  18.790  68.712  1.00  0.00    -0.385 NA 
HETATM   17  C   UNL     1      -8.305  19.178  68.571  1.00  0.00    -0.364 C  
HETATM   18  C   UNL     1      -7.814  19.236  67.116  1.00  0.00    -0.251 C  
HETATM   19  O   UNL     1      -8.611  20.139  66.342  1.00  0.00    -0.302 OA 
HETATM   20  C   UNL     1      -9.987  19.742  66.365  1.00  0.00    -0.470 C  
HETATM   21  C   UNL     1     -10.528  19.645  67.804  1.00  0.00    -0.439 C  
ENDBRANCH  15  16
ENDBRANCH  14  15
ENDBRANCH  13  14
ENDBRANCH  12  13
ENDBRANCH   9  12
ENDBRANCH   5   6
ENDBRANCH   4   5
ENDBRANCH   3   4
ENDBRANCH   2   3
TORSDOF 9
ENDMDL
MODEL       17
REMARK 921   NORMALIZED FREE ENERGY PREDICTED BY IDOCK:   -5.00 KCAL/MOL
REMARK 922        TOTAL FREE ENERGY PREDICTED BY IDOCK:   -8.46 KCAL/MOL
REMARK 923 INTER-LIGAND FREE ENERGY PREDICTED BY IDOCK:   -7.34 KCAL/MOL
REMARK 924 INTRA-LIGAND FREE ENERGY PREDICTED BY IDOCK:   -1.12 KCAL/MOL
REMARK 927      BINDING AFFINITY PREDICTED BY RF-SCORE:    0.00 PKD
ROOT
HETATM    1  C   UNL     1     -10.340  19.756  66.089  1.00  0.00    -0.627 C  
HETATM    2  C   UNL     1     -10.849  19.287  67.435  1.00  0.00    -0.554 C  
ENDROOT
BRANCH   2   3
HETATM    3  C   UNL     1      -9.715  18.791  68.338  1.00  0.00    -0.421 C  
BRANCH   3   4
HETATM    4  C   UNL     1      -9.086  17.571  67.691  1.00  0.00    -0.243 C  
BRANCH   4   5
HETATM    5  O   UNL     1      -9.629  16.338  68.174  1.00  0.00    -0.214 OA 
BRANCH   5   6
HETATM    6  C   UNL     1     -10.425  15.703  67.244  1.00  0.00    -0.292 A  
HETATM    7  C   UNL     1     -11.474  14.847  67.582  1.00  0.00    -0.366 A  
HETATM    8  C   UNL     1     -12.225  14.215  66.605  1.00  0.00    -0.450 A  
HETATM    9  C   UNL     1     -11.957  14.418  65.255  1.00  0.00    -0.382 A  
HETATM   10  C   UNL     1     -10.158  15.931  65.893  1.00  0.00    -0.376 A  
HETATM   11  C   UNL     1     -10.924  15.288  64.903  1.00  0.00    -0.445 A  
BRANCH   9  12
HETATM   12  O   UNL     1     -12.655  13.803  64.239  1.00  0.00    -0.654 OA 
BRANCH  12  13
HETATM   13  C   UNL     1     -11.836  12.984  63.388  1.00  0.00    -0.476 C  
BRANCH  13  14
HETATM   14  C   UNL     1     -11.654  11.593  63.978  1.00  0.00    -0.371 C  
BRANCH  14  15
HETATM   15  C   UNL     1     -10.203  11.096  63.832  1.00  0.00    -0.362 C  
BRANCH  15  16
HETATM   16  N   UNL     1      -9.373  11.257  65.039  1.00  0.00    -0.208 NA 
HETATM   17  C   UNL     1     -10.074  10.917  66.297  1.00  0.00    -0.233 C  
HETATM   18  C   UNL     1     -10.258   9.408  66.522  1.00  0.00    -0.238 C  
HETATM   19  O   UNL     1      -8.998   8.729  66.506  1.00  0.00    -0.133 OA 
HETATM   20  C   UNL     1      -8.325   8.947  65.260  1.00  0.00    -0.160 C  
HETATM   21  C   UNL     1      -8.132  10.448  64.971  1.00  0.00    -0.136 C  
ENDBRANCH  15  16
ENDBRANCH  14  15
ENDBRANCH  13  14
ENDBRANCH  12  13
ENDBRANCH   9  12
ENDBRANCH   5   6
ENDBRANCH   4   5
ENDBRANCH   3   4
ENDBRANCH   2   3
TORSDOF 9
ENDMDL
MODEL       18
REMARK 921   NORMALIZED FREE ENERGY PREDICTED BY IDOCK:   -4.96 KCAL/MOL
REMARK 922        TOTAL FREE ENERGY PREDICTED BY IDOCK:   -8.41 KCAL/MOL
REMARK 923 INTER-LIGAND FREE ENERGY PREDICTED BY IDOCK:   -7.60 KCAL/MOL
REMARK 924 INTRA-LIGAND FREE ENERGY PREDICTED BY IDOCK:   -0.81 KCAL/MOL
REMARK 927      BINDING AFFINITY PREDICTED BY RF-SCORE:    0.00 PKD
ROOT
HETATM    1  C   UNL     1     -13.276  10.707  71.927  1.00  0.00    -0.528 C  
HETATM    2  C   UNL     1     -12.991   9.220  71.937  1.00  0.00    -0.489 C  
ENDROOT
BRANCH   2   3
HETATM    3  C   UNL     1     -11.602   8.898  71.377  1.00  0.00    -0.382 C  
BRANCH   3   4
HETATM    4  C   UNL     1     -11.108  10.102  70.596  1.00  0.00    -0.322 C  
BRANCH   4   5
HETATM    5  O   UNL     1     -11.017   9.858  69.189  1.00  0.00    -0.224 OA 
BRANCH   5   6
HETATM    6  C   UNL     1     -11.282  10.981  68.433  1.00  0.00    -0.274 A  
HETATM    7  C   UNL     1     -11.160  11.023  67.044  1.00  0.00    -0.311 A  
HETATM    8  C   UNL     1     -11.415  12.186  66.338  1.00  0.00    -0.430 A  
HETATM    9  C   UNL     1     -11.803  13.350  66.994  1.00  0.00    -0.394 A  
HETATM   10  C   UNL     1     -11.691  12.135  69.103  1.00  0.00    -0.384 A  
HETATM   11  C   UNL     1     -11.950  13.316  68.381  1.00  0.00    -0.336 A  
BRANCH   9  12
HETATM   12  O   UNL     1     -12.050  14.542  66.349  1.00  0.00    -0.385 OA 
BRANCH  12  13
HETATM   13  C   UNL     1     -11.303  14.707  65.133  1.00  0.00    -0.375 C  
BRANCH  13  14
HETATM   14  C   UNL     1     -10.157  15.690  65.324  1.00  0.00    -0.305 C  
BRANCH  14  15
HETATM   15  C   UNL     1     -10.485  16.749  66.393  1.00  0.00    -0.269 C  
BRANCH  15  16
HETATM   16  N   UNL     1      -9.924  18.086  66.127  1.00  0.00    -0.500 NA 
HETATM   17  C   UNL     1     -10.549  19.166  66.924  1.00  0.00    -0.448 C  
HETATM   18  C   UNL     1     -10.119  19.183  68.399  1.00  0.00    -0.418 C  
HETATM   19  O   UNL     1      -8.697  19.297  68.517  1.00  0.00    -0.347 OA 
HETATM   20  C   UNL     1      -8.048  18.211  67.844  1.00  0.00    -0.247 C  
HETATM   21  C   UNL     1      -8.461  18.130  66.362  1.00  0.00    -0.238 C  
ENDBRANCH  15  16
ENDBRANCH  14  15
ENDBRANCH  13  14
ENDBRANCH  12  13
ENDBRANCH   9  12
ENDBRANCH   5   6
ENDBRANCH   4   5
ENDBRANCH   3   4
ENDBRANCH   2   3
TORSDOF 9
ENDMDL
MODEL       19
REMARK 921   NORMALIZED FREE ENERGY PREDICTED BY IDOCK:   -4.94 KCAL/MOL
REMARK 922        TOTAL FREE ENERGY PREDICTED BY IDOCK:   -8.38 KCAL/MOL
REMARK 923 INTER-LIGAND FREE ENERGY PREDICTED BY IDOCK:   -7.68 KCAL/MOL
REMARK 924 INTRA-LIGAND FREE ENERGY PREDICTED BY IDOCK:   -0.70 KCAL/MOL
REMARK 927      BINDING AFFINITY PREDICTED BY RF-SCORE:    0.00 PKD
ROOT
HETATM    1  C   UNL     1     -10.997   7.386  72.936  1.00  0.00    -0.408 C  
HETATM    2  C   UNL     1     -11.470   8.564  72.112  1.00  0.00    -0.446 C  
ENDROOT
BRANCH   2   3
HETATM    3  C   UNL     1     -12.957   8.858  72.329  1.00  0.00    -0.479 C  
BRANCH   3   4
HETATM    4  C   UNL     1     -13.385   9.927  71.340  1.00  0.00    -0.365 C  
BRANCH   4   5
HETATM    5  O   UNL     1     -12.662  11.153  71.492  1.00  0.00    -0.403 OA 
BRANCH   5   6
HETATM    6  C   UNL     1     -12.276  11.700  70.286  1.00  0.00    -0.318 A  
HETATM    7  C   UNL     1     -11.880  10.939  69.186  1.00  0.00    -0.389 A  
HETATM    8  C   UNL     1     -11.477  11.542  68.006  1.00  0.00    -0.381 A  
HETATM    9  C   UNL     1     -11.459  12.928  67.882  1.00  0.00    -0.318 A  
HETATM   10  C   UNL     1     -12.282  13.090  70.169  1.00  0.00    -0.342 A  
HETATM   11  C   UNL     1     -11.874  13.700  68.968  1.00  0.00    -0.393 A  
BRANCH   9  12
HETATM   12  O   UNL     1     -11.050  13.585  66.743  1.00  0.00    -0.292 OA 
BRANCH  12  13
HETATM   13  C   UNL     1     -11.288  15.002  66.776  1.00  0.00    -0.293 C  
BRANCH  13  14
HETATM   14  C   UNL     1     -10.031  15.777  66.408  1.00  0.00    -0.294 C  
BRANCH  14  15
HETATM   15  C   UNL     1     -10.318  17.280  66.231  1.00  0.00    -0.322 C  
BRANCH  15  16
HETATM   16  N   UNL     1     -10.660  17.993  67.475  1.00  0.00    -0.403 NA 
HETATM   17  C   UNL     1      -9.716  17.741  68.587  1.00  0.00    -0.346 C  
HETATM   18  C   UNL     1      -8.369  18.465  68.441  1.00  0.00    -0.308 C  
HETATM   19  O   UNL     1      -8.559  19.879  68.317  1.00  0.00    -0.302 OA 
HETATM   20  C   UNL     1      -9.387  20.179  67.187  1.00  0.00    -0.393 C  
HETATM   21  C   UNL     1     -10.746  19.458  67.269  1.00  0.00    -0.490 C  
ENDBRANCH  15  16
ENDBRANCH  14  15
ENDBRANCH  13  14
ENDBRANCH  12  13
ENDBRANCH   9  12
ENDBRANCH   5   6
ENDBRANCH   4   5
ENDBRANCH   3   4
ENDBRANCH   2   3
TORSDOF 9
ENDMDL
MODEL       20
REMARK 921   NORMALIZED FREE ENERGY PREDICTED BY IDOCK:   -4.94 KCAL/MOL
REMARK 922        TOTAL FREE ENERGY PREDICTED BY IDOCK:   -8.38 KCAL/MOL
REMARK 923 INTER-LIGAND FREE ENERGY PREDICTED BY IDOCK:   -7.50 KCAL/MOL
REMARK 924 INTRA-LIGAND FREE ENERGY PREDICTED BY IDOCK:   -0.88 KCAL/MOL
REMARK 927      BINDING AFFINITY PREDICTED BY RF-SCORE:    0.00 PKD
ROOT
HETATM    1  C   UNL     1     -10.631   5.477  70.068  1.00  0.00    -0.384 C  
HETATM    2  C   UNL     1     -10.130   5.603  71.491  1.00  0.00    -0.253 C  
ENDROOT
BRANCH   2   3
HETATM    3  C   UNL     1     -11.267   5.890  72.478  1.00  0.00    -0.341 C  
BRANCH   3   4
HETATM    4  C   UNL     1     -12.226   6.873  71.832  1.00  0.00    -0.332 C  
BRANCH   4   5
HETATM    5  O   UNL     1     -12.208   8.163  72.452  1.00  0.00    -0.344 OA 
BRANCH   5   6
HETATM    6  C   UNL     1     -12.074   9.192  71.544  1.00  0.00    -0.351 A  
HETATM    7  C   UNL     1     -12.795  10.384  71.616  1.00  0.00    -0.579 A  
HETATM    8  C   UNL     1     -12.639  11.374  70.661  1.00  0.00    -0.360 A  
HETATM    9  C   UNL     1     -11.755  11.210  69.599  1.00  0.00    -0.339 A  
HETATM   10  C   UNL     1     -11.169   9.022  70.495  1.00  0.00    -0.301 A  
HETATM   11  C   UNL     1     -11.012  10.031  69.527  1.00  0.00    -0.289 A  
BRANCH   9  12
HETATM   12  O   UNL     1     -11.572  12.149  68.608  1.00  0.00    -0.273 OA 
BRANCH  12  13
HETATM   13  C   UNL     1     -11.858  13.494  69.026  1.00  0.00    -0.343 C  
BRANCH  13  14
HETATM   14  C   UNL     1     -11.866  14.445  67.838  1.00  0.00    -0.384 C  
BRANCH  14  15
HETATM   15  C   UNL     1     -12.342  13.747  66.550  1.00  0.00    -0.386 C  
BRANCH  15  16
HETATM   16  N   UNL     1     -11.418  13.863  65.409  1.00  0.00    -0.306 NA 
HETATM   17  C   UNL     1     -10.260  12.944  65.481  1.00  0.00    -0.287 C  
HETATM   18  C   UNL     1     -10.602  11.480  65.166  1.00  0.00    -0.293 C  
HETATM   19  O   UNL     1     -11.196  11.361  63.868  1.00  0.00    -0.386 OA 
HETATM   20  C   UNL     1     -12.384  12.158  63.784  1.00  0.00    -0.532 C  
HETATM   21  C   UNL     1     -12.104  13.636  64.114  1.00  0.00    -0.435 C  
ENDBRANCH  15  16
ENDBRANCH  14  15
ENDBRANCH  13  14
ENDBRANCH  12  13
ENDBRANCH   9  12
ENDBRANCH   5   6
ENDBRANCH   4   5
ENDBRANCH   3   4
ENDBRANCH   2   3
TORSDOF 9
ENDMDL
MODEL       21
REMARK 921   NORMALIZED FREE ENERGY PREDICTED BY IDOCK:   -4.93 KCAL/MOL
REMARK 922        TOTAL FREE ENERGY PREDICTED BY IDOCK:   -8.36 KCAL/MOL
REMARK 923 INTER-LIGAND FREE ENERGY PREDICTED BY IDOCK:   -7.34 KCAL/MOL
REMARK 924 INTRA-LIGAND FREE ENERGY PREDICTED BY IDOCK:   -1.02 KCAL/MOL
REMARK 927      BINDING AFFINITY PREDICTED BY RF-SCORE:    0.00 PKD
ROOT
HETATM    1  C   UNL     1      -9.742  10.305  64.434  1.00  0.00    -0.381 C  
HETATM    2  C   UNL     1     -10.284  11.194  63.335  1.00  0.00    -0.435 C  
ENDROOT
BRANCH   2   3
HETATM    3  C   UNL     1     -10.614  12.601  63.844  1.00  0.00    -0.460 C  
BRANCH   3   4
HETATM    4  C   UNL     1     -12.096  12.657  64.167  1.00  0.00    -0.439 C  
BRANCH   4   5
HETATM    5  O   UNL     1     -12.392  12.264  65.512  1.00  0.00    -0.602 OA 
BRANCH   5   6
HETATM    6  C   UNL     1     -11.733  13.029  66.450  1.00  0.00    -0.390 A  
HETATM    7  C   UNL     1     -11.912  14.406  66.587  1.00  0.00    -0.414 A  
HETATM    8  C   UNL     1     -11.204  15.130  67.531  1.00  0.00    -0.331 A  
HETATM    9  C   UNL     1     -10.292  14.504  68.375  1.00  0.00    -0.241 A  
HETATM   10  C   UNL     1     -10.837  12.384  67.304  1.00  0.00    -0.279 A  
HETATM   11  C   UNL     1     -10.119  13.123  68.263  1.00  0.00    -0.247 A  
BRANCH   9  12
HETATM   12  O   UNL     1      -9.544  15.172  69.319  1.00  0.00    -0.221 OA 
BRANCH  12  13
HETATM   13  C   UNL     1      -8.126  15.058  69.118  1.00  0.00    -0.192 C  
BRANCH  13  14
HETATM   14  C   UNL     1      -7.454  16.422  69.174  1.00  0.00    -0.228 C  
BRANCH  14  15
HETATM   15  C   UNL     1      -7.964  17.357  68.060  1.00  0.00    -0.224 C  
BRANCH  15  16
HETATM   16  N   UNL     1      -8.419  18.678  68.526  1.00  0.00    -0.335 NA 
HETATM   17  C   UNL     1      -8.052  19.790  67.620  1.00  0.00    -0.296 C  
HETATM   18  C   UNL     1      -8.895  19.856  66.337  1.00  0.00    -0.358 C  
HETATM   19  O   UNL     1     -10.290  19.962  66.645  1.00  0.00    -0.439 OA 
HETATM   20  C   UNL     1     -10.715  18.847  67.439  1.00  0.00    -0.444 C  
HETATM   21  C   UNL     1      -9.887  18.718  68.731  1.00  0.00    -0.384 C  
ENDBRANCH  15  16
ENDBRANCH  14  15
ENDBRANCH  13  14
ENDBRANCH  12  13
ENDBRANCH   9  12
ENDBRANCH   5   6
ENDBRANCH   4   5
ENDBRANCH   3   4
ENDBRANCH   2   3
TORSDOF 9
ENDMDL
MODEL       22
REMARK 921   NORMALIZED FREE ENERGY PREDICTED BY IDOCK:   -4.91 KCAL/MOL
REMARK 922        TOTAL FREE ENERGY PREDICTED BY IDOCK:   -8.32 KCAL/MOL
REMARK 923 INTER-LIGAND FREE ENERGY PREDICTED BY IDOCK:   -7.47 KCAL/MOL
REMARK 924 INTRA-LIGAND FREE ENERGY PREDICTED BY IDOCK:   -0.85 KCAL/MOL
REMARK 927      BINDING AFFINITY PREDICTED BY RF-SCORE:    0.00 PKD
ROOT
HETATM    1  C   UNL     1     -11.445  12.486  63.699  1.00  0.00    -0.568 C  
HETATM    2  C   UNL     1     -12.501  12.506  64.784  1.00  0.00    -0.532 C  
ENDROOT
BRANCH   2   3
HETATM    3  C   UNL     1     -12.370  13.734  65.690  1.00  0.00    -0.517 C  
BRANCH   3   4
HETATM    4  C   UNL     1     -11.212  13.505  66.644  1.00  0.00    -0.312 C  
BRANCH   4   5
HETATM    5  O   UNL     1     -11.371  14.185  67.894  1.00  0.00    -0.267 OA 
BRANCH   5   6
HETATM    6  C   UNL     1     -11.741  13.340  68.919  1.00  0.00    -0.327 A  
HETATM    7  C   UNL     1     -11.745  11.949  68.809  1.00  0.00    -0.379 A  
HETATM    8  C   UNL     1     -12.151  11.149  69.863  1.00  0.00    -0.418 A  
HETATM    9  C   UNL     1     -12.565  11.709  71.068  1.00  0.00    -0.331 A  
HETATM   10  C   UNL     1     -12.135  13.916  70.128  1.00  0.00    -0.418 A  
HETATM   11  C   UNL     1     -12.546  13.099  71.198  1.00  0.00    -0.403 A  
BRANCH   9  12
HETATM   12  O   UNL     1     -12.999  10.967  72.144  1.00  0.00    -0.409 OA 
BRANCH  12  13
HETATM   13  C   UNL     1     -13.362   9.618  71.807  1.00  0.00    -0.419 C  
BRANCH  13  14
HETATM   14  C   UNL     1     -12.461   8.617  72.516  1.00  0.00    -0.372 C  
BRANCH  14  15
HETATM   15  C   UNL     1     -12.260   7.338  71.680  1.00  0.00    -0.343 C  
BRANCH  15  16
HETATM   16  N   UNL     1     -11.457   7.521  70.458  1.00  0.00    -0.267 NA 
HETATM   17  C   UNL     1     -10.093   8.037  70.710  1.00  0.00    -0.192 C  
HETATM   18  C   UNL     1      -9.127   6.994  71.291  1.00  0.00    -0.152 C  
HETATM   19  O   UNL     1      -9.029   5.851  70.433  1.00  0.00    -0.144 OA 
HETATM   20  C   UNL     1     -10.318   5.254  70.242  1.00  0.00    -0.280 C  
HETATM   21  C   UNL     1     -11.336   6.264  69.681  1.00  0.00    -0.422 C  
ENDBRANCH  15  16
ENDBRANCH  14  15
ENDBRANCH  13  14
ENDBRANCH  12  13
ENDBRANCH   9  12
ENDBRANCH   5   6
ENDBRANCH   4   5
ENDBRANCH   3   4
ENDBRANCH   2   3
TORSDOF 9
ENDMDL
MODEL       23
REMARK 921   NORMALIZED FREE ENERGY PREDICTED BY IDOCK:   -4.90 KCAL/MOL
REMARK 922        TOTAL FREE ENERGY PREDICTED BY IDOCK:   -8.31 KCAL/MOL
REMARK 923 INTER-LIGAND FREE ENERGY PREDICTED BY IDOCK:   -7.50 KCAL/MOL
REMARK 924 INTRA-LIGAND FREE ENERGY PREDICTED BY IDOCK:   -0.81 KCAL/MOL
REMARK 927      BINDING AFFINITY PREDICTED BY RF-SCORE:    0.00 PKD
ROOT
HETATM    1  C   UNL     1     -12.319  15.015  74.204  1.00  0.00    -0.620 C  
HETATM    2  C   UNL     1     -12.618  16.136  73.231  1.00  0.00    -0.623 C  
ENDROOT
BRANCH   2   3
HETATM    3  C   UNL     1     -11.887  15.950  71.898  1.00  0.00    -0.595 C  
BRANCH   3   4
HETATM    4  C   UNL     1     -12.817  15.233  70.937  1.00  0.00    -0.449 C  
BRANCH   4   5
HETATM    5  O   UNL     1     -12.148  14.254  70.134  1.00  0.00    -0.297 OA 
BRANCH   5   6
HETATM    6  C   UNL     1     -12.379  12.964  70.561  1.00  0.00    -0.283 A  
HETATM    7  C   UNL     1     -13.153  12.648  71.679  1.00  0.00    -0.421 A  
HETATM    8  C   UNL     1     -13.331  11.334  72.078  1.00  0.00    -0.386 A  
HETATM    9  C   UNL     1     -12.744  10.287  71.374  1.00  0.00    -0.442 A  
HETATM   10  C   UNL     1     -11.801  11.923  69.833  1.00  0.00    -0.418 A  
HETATM   11  C   UNL     1     -11.985  10.588  70.242  1.00  0.00    -0.411 A  
BRANCH   9  12
HETATM   12  O   UNL     1     -12.867   8.963  71.734  1.00  0.00    -0.324 OA 
BRANCH  12  13
HETATM   13  C   UNL     1     -11.709   8.436  72.401  1.00  0.00    -0.382 C  
BRANCH  13  14
HETATM   14  C   UNL     1     -11.541   6.951  72.113  1.00  0.00    -0.322 C  
BRANCH  14  15
HETATM   15  C   UNL     1     -11.769   6.628  70.624  1.00  0.00    -0.394 C  
BRANCH  15  16
HETATM   16  N   UNL     1     -10.581   6.122  69.915  1.00  0.00    -0.237 NA 
HETATM   17  C   UNL     1     -10.643   6.293  68.446  1.00  0.00    -0.260 C  
HETATM   18  C   UNL     1     -10.414   7.738  67.975  1.00  0.00    -0.185 C  
HETATM   19  O   UNL     1      -9.153   8.234  68.438  1.00  0.00    -0.136 OA 
HETATM   20  C   UNL     1      -9.087   8.183  69.868  1.00  0.00    -0.151 C  
HETATM   21  C   UNL     1      -9.332   6.758  70.399  1.00  0.00    -0.163 C  
ENDBRANCH  15  16
ENDBRANCH  14  15
ENDBRANCH  13  14
ENDBRANCH  12  13
ENDBRANCH   9  12
ENDBRANCH   5   6
ENDBRANCH   4   5
ENDBRANCH   3   4
ENDBRANCH   2   3
TORSDOF 9
ENDMDL
MODEL       24
REMARK 921   NORMALIZED FREE ENERGY PREDICTED BY IDOCK:   -4.89 KCAL/MOL
REMARK 922        TOTAL FREE ENERGY PREDICTED BY IDOCK:   -8.29 KCAL/MOL
REMARK 923 INTER-LIGAND FREE ENERGY PREDICTED BY IDOCK:   -7.50 KCAL/MOL
REMARK 924 INTRA-LIGAND FREE ENERGY PREDICTED BY IDOCK:   -0.80 KCAL/MOL
REMARK 927      BINDING AFFINITY PREDICTED BY RF-SCORE:    0.00 PKD
ROOT
HETATM    1  C   UNL     1     -10.702   5.650  69.818  1.00  0.00    -0.401 C  
HETATM    2  C   UNL     1      -9.735   5.039  70.810  1.00  0.00    -0.263 C  
ENDROOT
BRANCH   2   3
HETATM    3  C   UNL     1     -10.270   5.099  72.245  1.00  0.00    -0.255 C  
BRANCH   3   4
HETATM    4  C   UNL     1     -11.515   5.967  72.256  1.00  0.00    -0.297 C  
BRANCH   4   5
HETATM    5  O   UNL     1     -11.335   7.196  72.967  1.00  0.00    -0.261 OA 
BRANCH   5   6
HETATM    6  C   UNL     1     -11.577   8.306  72.186  1.00  0.00    -0.364 A  
HETATM    7  C   UNL     1     -10.626   8.875  71.338  1.00  0.00    -0.374 A  
HETATM    8  C   UNL     1     -10.916  10.007  70.595  1.00  0.00    -0.392 A  
HETATM    9  C   UNL     1     -12.168  10.609  70.669  1.00  0.00    -0.365 A  
HETATM   10  C   UNL     1     -12.844   8.888  72.255  1.00  0.00    -0.475 A  
HETATM   11  C   UNL     1     -13.136  10.037  71.497  1.00  0.00    -0.531 A  
BRANCH   9  12
HETATM   12  O   UNL     1     -12.509  11.747  69.970  1.00  0.00    -0.177 OA 
BRANCH  12  13
HETATM   13  C   UNL     1     -11.408  12.345  69.268  1.00  0.00    -0.254 C  
BRANCH  13  14
HETATM   14  C   UNL     1     -11.831  13.639  68.587  1.00  0.00    -0.409 C  
BRANCH  14  15
HETATM   15  C   UNL     1     -11.419  13.666  67.103  1.00  0.00    -0.342 C  
BRANCH  15  16
HETATM   16  N   UNL     1     -12.041  12.620  66.272  1.00  0.00    -0.568 NA 
HETATM   17  C   UNL     1     -12.910  13.149  65.196  1.00  0.00    -0.300 C  
HETATM   18  C   UNL     1     -12.140  13.753  64.012  1.00  0.00    -0.403 C  
HETATM   19  O   UNL     1     -11.242  12.794  63.441  1.00  0.00    -0.439 OA 
HETATM   20  C   UNL     1     -10.312  12.328  64.426  1.00  0.00    -0.331 C  
HETATM   21  C   UNL     1     -11.031  11.731  65.651  1.00  0.00    -0.295 C  
ENDBRANCH  15  16
ENDBRANCH  14  15
ENDBRANCH  13  14
ENDBRANCH  12  13
ENDBRANCH   9  12
ENDBRANCH   5   6
ENDBRANCH   4   5
ENDBRANCH   3   4
ENDBRANCH   2   3
TORSDOF 9
ENDMDL
MODEL       25
REMARK 921   NORMALIZED FREE ENERGY PREDICTED BY IDOCK:   -4.89 KCAL/MOL
REMARK 922        TOTAL FREE ENERGY PREDICTED BY IDOCK:   -8.29 KCAL/MOL
REMARK 923 INTER-LIGAND FREE ENERGY PREDICTED BY IDOCK:   -7.42 KCAL/MOL
REMARK 924 INTRA-LIGAND FREE ENERGY PREDICTED BY IDOCK:   -0.88 KCAL/MOL
REMARK 927      BINDING AFFINITY PREDICTED BY RF-SCORE:    0.00 PKD
ROOT
HETATM    1  C   UNL     1      -9.998  11.443  63.191  1.00  0.00    -0.402 C  
HETATM    2  C   UNL     1     -11.197  11.370  64.114  1.00  0.00    -0.327 C  
ENDROOT
BRANCH   2   3
HETATM    3  C   UNL     1     -12.457  11.954  63.466  1.00  0.00    -0.609 C  
BRANCH   3   4
HETATM    4  C   UNL     1     -12.230  13.435  63.225  1.00  0.00    -0.243 C  
BRANCH   4   5
HETATM    5  O   UNL     1     -12.677  14.255  64.310  1.00  0.00    -0.660 OA 
BRANCH   5   6
HETATM    6  C   UNL     1     -11.778  14.295  65.355  1.00  0.00    -0.354 A  
HETATM    7  C   UNL     1     -10.435  14.644  65.204  1.00  0.00    -0.440 A  
HETATM    8  C   UNL     1      -9.570  14.643  66.285  1.00  0.00    -0.333 A  
HETATM    9  C   UNL     1     -10.015  14.296  67.557  1.00  0.00    -0.235 A  
HETATM   10  C   UNL     1     -12.243  13.964  66.629  1.00  0.00    -0.465 A  
HETATM   11  C   UNL     1     -11.361  13.965  67.725  1.00  0.00    -0.335 A  
BRANCH   9  12
HETATM   12  O   UNL     1      -9.198  14.256  68.666  1.00  0.00    -0.200 OA 
BRANCH  12  13
HETATM   13  C   UNL     1      -9.161  15.490  69.401  1.00  0.00    -0.280 C  
BRANCH  13  14
HETATM   14  C   UNL     1      -7.854  16.231  69.160  1.00  0.00    -0.231 C  
BRANCH  14  15
HETATM   15  C   UNL     1      -8.093  17.635  68.573  1.00  0.00    -0.283 C  
BRANCH  15  16
HETATM   16  N   UNL     1      -9.311  17.761  67.752  1.00  0.00    -0.254 NA 
HETATM   17  C   UNL     1     -10.378  18.567  68.386  1.00  0.00    -0.321 C  
HETATM   18  C   UNL     1     -10.110  20.080  68.374  1.00  0.00    -0.386 C  
HETATM   19  O   UNL     1      -9.915  20.555  67.037  1.00  0.00    -0.453 OA 
HETATM   20  C   UNL     1      -8.820  19.871  66.415  1.00  0.00    -0.358 C  
HETATM   21  C   UNL     1      -9.024  18.344  66.420  1.00  0.00    -0.249 C  
ENDBRANCH  15  16
ENDBRANCH  14  15
ENDBRANCH  13  14
ENDBRANCH  12  13
ENDBRANCH   9  12
ENDBRANCH   5   6
ENDBRANCH   4   5
ENDBRANCH   3   4
ENDBRANCH   2   3
TORSDOF 9
ENDMDL
MODEL       26
REMARK 921   NORMALIZED FREE ENERGY PREDICTED BY IDOCK:   -4.89 KCAL/MOL
REMARK 922        TOTAL FREE ENERGY PREDICTED BY IDOCK:   -8.29 KCAL/MOL
REMARK 923 INTER-LIGAND FREE ENERGY PREDICTED BY IDOCK:   -7.57 KCAL/MOL
REMARK 924 INTRA-LIGAND FREE ENERGY PREDICTED BY IDOCK:   -0.72 KCAL/MOL
REMARK 927      BINDING AFFINITY PREDICTED BY RF-SCORE:    0.00 PKD
ROOT
HETATM    1  C   UNL     1     -12.003  16.166  72.865  1.00  0.00    -0.623 C  
HETATM    2  C   UNL     1     -13.470  15.957  73.176  1.00  0.00    -0.650 C  
ENDROOT
BRANCH   2   3
HETATM    3  C   UNL     1     -14.186  15.174  72.070  1.00  0.00    -0.673 C  
BRANCH   3   4
HETATM    4  C   UNL     1     -13.732  13.727  72.136  1.00  0.00    -0.540 C  
BRANCH   4   5
HETATM    5  O   UNL     1     -12.871  13.359  71.053  1.00  0.00    -0.312 OA 
BRANCH   5   6
HETATM    6  C   UNL     1     -12.624  12.004  71.003  1.00  0.00    -0.273 A  
HETATM    7  C   UNL     1     -13.237  11.076  71.847  1.00  0.00    -0.503 A  
HETATM    8  C   UNL     1     -12.932   9.728  71.770  1.00  0.00    -0.536 A  
HETATM    9  C   UNL     1     -12.006   9.256  70.845  1.00  0.00    -0.257 A  
HETATM   10  C   UNL     1     -11.708  11.542  70.057  1.00  0.00    -0.414 A  
HETATM   11  C   UNL     1     -11.401  10.171  69.981  1.00  0.00    -0.351 A  
BRANCH   9  12
HETATM   12  O   UNL     1     -11.646   7.931  70.734  1.00  0.00    -0.285 OA 
BRANCH  12  13
HETATM   13  C   UNL     1     -12.477   7.041  71.498  1.00  0.00    -0.386 C  
BRANCH  13  14
HETATM   14  C   UNL     1     -11.651   5.931  72.131  1.00  0.00    -0.314 C  
BRANCH  14  15
HETATM   15  C   UNL     1     -10.709   6.471  73.224  1.00  0.00    -0.274 C  
BRANCH  15  16
HETATM   16  N   UNL     1      -9.277   6.229  72.977  1.00  0.00    -0.133 NA 
HETATM   17  C   UNL     1      -8.746   6.936  71.791  1.00  0.00    -0.120 C  
HETATM   18  C   UNL     1      -8.542   8.445  72.002  1.00  0.00    -0.191 C  
HETATM   19  O   UNL     1      -7.668   8.694  73.108  1.00  0.00    -0.373 OA 
HETATM   20  C   UNL     1      -8.195   8.112  74.306  1.00  0.00    -0.231 C  
HETATM   21  C   UNL     1      -8.442   6.600  74.145  1.00  0.00    -0.136 C  
ENDBRANCH  15  16
ENDBRANCH  14  15
ENDBRANCH  13  14
ENDBRANCH  12  13
ENDBRANCH   9  12
ENDBRANCH   5   6
ENDBRANCH   4   5
ENDBRANCH   3   4
ENDBRANCH   2   3
TORSDOF 9
ENDMDL
MODEL       27
REMARK 921   NORMALIZED FREE ENERGY PREDICTED BY IDOCK:   -4.88 KCAL/MOL
REMARK 922        TOTAL FREE ENERGY PREDICTED BY IDOCK:   -8.28 KCAL/MOL
REMARK 923 INTER-LIGAND FREE ENERGY PREDICTED BY IDOCK:   -7.70 KCAL/MOL
REMARK 924 INTRA-LIGAND FREE ENERGY PREDICTED BY IDOCK:   -0.58 KCAL/MOL
REMARK 927      BINDING AFFINITY PREDICTED BY RF-SCORE:    0.00 PKD
ROOT
HETATM    1  C   UNL     1     -10.932   3.269  73.504  1.00  0.00    -0.324 C  
HETATM    2  C   UNL     1     -11.383   4.707  73.366  1.00  0.00    -0.394 C  
ENDROOT
BRANCH   2   3
HETATM    3  C   UNL     1     -10.353   5.690  73.934  1.00  0.00    -0.284 C  
BRANCH   3   4
HETATM    4  C   UNL     1     -10.769   7.097  73.546  1.00  0.00    -0.333 C  
BRANCH   4   5
HETATM    5  O   UNL     1     -11.710   7.127  72.468  1.00  0.00    -0.257 OA 
BRANCH   5   6
HETATM    6  C   UNL     1     -11.936   8.400  71.990  1.00  0.00    -0.357 A  
HETATM    7  C   UNL     1     -13.072   9.150  72.299  1.00  0.00    -0.509 A  
HETATM    8  C   UNL     1     -13.260  10.415  71.769  1.00  0.00    -0.529 A  
HETATM    9  C   UNL     1     -12.319  10.979  70.914  1.00  0.00    -0.402 A  
HETATM   10  C   UNL     1     -10.974   8.961  71.149  1.00  0.00    -0.356 A  
HETATM   11  C   UNL     1     -11.168  10.248  70.614  1.00  0.00    -0.406 A  
BRANCH   9  12
HETATM   12  O   UNL     1     -12.459  12.224  70.340  1.00  0.00    -0.241 OA 
BRANCH  12  13
HETATM   13  C   UNL     1     -11.654  12.413  69.165  1.00  0.00    -0.314 C  
BRANCH  13  14
HETATM   14  C   UNL     1     -11.831  13.815  68.600  1.00  0.00    -0.409 C  
BRANCH  14  15
HETATM   15  C   UNL     1     -12.157  13.788  67.095  1.00  0.00    -0.378 C  
BRANCH  15  16
HETATM   16  N   UNL     1     -10.979  13.781  66.209  1.00  0.00    -0.296 NA 
HETATM   17  C   UNL     1     -11.309  13.936  64.775  1.00  0.00    -0.363 C  
HETATM   18  C   UNL     1     -11.706  15.366  64.376  1.00  0.00    -0.258 C  
HETATM   19  O   UNL     1     -10.670  16.298  64.709  1.00  0.00    -0.680 OA 
HETATM   20  C   UNL     1     -10.387  16.255  66.112  1.00  0.00    -0.341 C  
HETATM   21  C   UNL     1     -10.004  14.836  66.574  1.00  0.00    -0.271 C  
ENDBRANCH  15  16
ENDBRANCH  14  15
ENDBRANCH  13  14
ENDBRANCH  12  13
ENDBRANCH   9  12
ENDBRANCH   5   6
ENDBRANCH   4   5
ENDBRANCH   3   4
ENDBRANCH   2   3
TORSDOF 9
ENDMDL
MODEL       28
REMARK 921   NORMALIZED FREE ENERGY PREDICTED BY IDOCK:   -4.87 KCAL/MOL
REMARK 922        TOTAL FREE ENERGY PREDICTED BY IDOCK:   -8.28 KCAL/MOL
REMARK 923 INTER-LIGAND FREE ENERGY PREDICTED BY IDOCK:   -7.47 KCAL/MOL
REMARK 924 INTRA-LIGAND FREE ENERGY PREDICTED BY IDOCK:   -0.80 KCAL/MOL
REMARK 927      BINDING AFFINITY PREDICTED BY RF-SCORE:    0.00 PKD
ROOT
HETATM    1  C   UNL     1      -9.949  18.790  68.176  1.00  0.00    -0.412 C  
HETATM    2  C   UNL     1     -10.762  19.594  67.183  1.00  0.00    -0.587 C  
ENDROOT
BRANCH   2   3
HETATM    3  C   UNL     1     -10.694  19.001  65.772  1.00  0.00    -0.350 C  
BRANCH   3   4
HETATM    4  C   UNL     1     -10.118  17.600  65.867  1.00  0.00    -0.181 C  
BRANCH   4   5
HETATM    5  O   UNL     1     -10.724  16.681  64.953  1.00  0.00    -0.710 OA 
BRANCH   5   6
HETATM    6  C   UNL     1     -10.905  15.427  65.497  1.00  0.00    -0.374 A  
HETATM    7  C   UNL     1     -12.067  14.674  65.328  1.00  0.00    -0.276 A  
HETATM    8  C   UNL     1     -12.206  13.429  65.919  1.00  0.00    -0.502 A  
HETATM    9  C   UNL     1     -11.186  12.891  66.699  1.00  0.00    -0.304 A  
HETATM   10  C   UNL     1      -9.867  14.891  66.260  1.00  0.00    -0.315 A  
HETATM   11  C   UNL     1     -10.010  13.625  66.858  1.00  0.00    -0.260 A  
BRANCH   9  12
HETATM   12  O   UNL     1     -11.273  11.669  67.329  1.00  0.00    -0.271 OA 
BRANCH  12  13
HETATM   13  C   UNL     1     -11.071  11.736  68.750  1.00  0.00    -0.241 C  
BRANCH  13  14
HETATM   14  C   UNL     1     -12.199  12.498  69.428  1.00  0.00    -0.117 C  
BRANCH  14  15
HETATM   15  C   UNL     1     -11.698  13.799  70.084  1.00  0.00    -0.233 C  
BRANCH  15  16
HETATM   16  N   UNL     1     -12.762  14.695  70.568  1.00  0.00    -0.346 NA 
HETATM   17  C   UNL     1     -13.873  13.993  71.248  1.00  0.00    -0.105 C  
HETATM   18  C   UNL     1     -13.527  13.499  72.662  1.00  0.00    -0.462 C  
HETATM   19  O   UNL     1     -13.099  14.583  73.493  1.00  0.00    -0.564 OA 
HETATM   20  C   UNL     1     -11.956  15.233  72.923  1.00  0.00    -0.411 C  
HETATM   21  C   UNL     1     -12.238  15.730  71.492  1.00  0.00    -0.453 C  
ENDBRANCH  15  16
ENDBRANCH  14  15
ENDBRANCH  13  14
ENDBRANCH  12  13
ENDBRANCH   9  12
ENDBRANCH   5   6
ENDBRANCH   4   5
ENDBRANCH   3   4
ENDBRANCH   2   3
TORSDOF 9
ENDMDL
MODEL       29
REMARK 921   NORMALIZED FREE ENERGY PREDICTED BY IDOCK:   -4.87 KCAL/MOL
REMARK 922        TOTAL FREE ENERGY PREDICTED BY IDOCK:   -8.27 KCAL/MOL
REMARK 923 INTER-LIGAND FREE ENERGY PREDICTED BY IDOCK:   -7.31 KCAL/MOL
REMARK 924 INTRA-LIGAND FREE ENERGY PREDICTED BY IDOCK:   -0.97 KCAL/MOL
REMARK 927      BINDING AFFINITY PREDICTED BY RF-SCORE:    0.00 PKD
ROOT
HETATM    1  C   UNL     1     -14.095  14.239  71.938  1.00  0.00    -0.586 C  
HETATM    2  C   UNL     1     -13.129  14.524  73.068  1.00  0.00    -0.611 C  
ENDROOT
BRANCH   2   3
HETATM    3  C   UNL     1     -11.982  15.438  72.626  1.00  0.00    -0.553 C  
BRANCH   3   4
HETATM    4  C   UNL     1     -12.140  15.723  71.143  1.00  0.00    -0.427 C  
BRANCH   4   5
HETATM    5  O   UNL     1     -10.972  15.394  70.382  1.00  0.00    -0.290 OA 
BRANCH   5   6
HETATM    6  C   UNL     1     -11.269  14.750  69.200  1.00  0.00    -0.271 A  
HETATM    7  C   UNL     1     -11.313  15.392  67.962  1.00  0.00    -0.345 A  
HETATM    8  C   UNL     1     -11.642  14.701  66.808  1.00  0.00    -0.370 A  
HETATM    9  C   UNL     1     -11.937  13.341  66.849  1.00  0.00    -0.375 A  
HETATM   10  C   UNL     1     -11.543  13.383  69.253  1.00  0.00    -0.365 A  
HETATM   11  C   UNL     1     -11.876  12.683  68.078  1.00  0.00    -0.376 A  
BRANCH   9  12
HETATM   12  O   UNL     1     -12.291  12.604  65.741  1.00  0.00    -0.594 OA 
BRANCH  12  13
HETATM   13  C   UNL     1     -11.485  12.878  64.583  1.00  0.00    -0.327 C  
BRANCH  13  14
HETATM   14  C   UNL     1     -11.173  11.600  63.818  1.00  0.00    -0.498 C  
BRANCH  14  15
HETATM   15  C   UNL     1      -9.809  11.010  64.223  1.00  0.00    -0.303 C  
BRANCH  15  16
HETATM   16  N   UNL     1      -9.699  10.630  65.642  1.00  0.00    -0.215 NA 
HETATM   17  C   UNL     1      -9.593   9.170  65.864  1.00  0.00    -0.273 C  
HETATM   18  C   UNL     1      -8.219   8.582  65.511  1.00  0.00    -0.137 C  
HETATM   19  O   UNL     1      -7.178   9.230  66.251  1.00  0.00    -0.086 OA 
HETATM   20  C   UNL     1      -7.176  10.638  65.987  1.00  0.00    -0.131 C  
HETATM   21  C   UNL     1      -8.541  11.279  66.302  1.00  0.00    -0.172 C  
ENDBRANCH  15  16
ENDBRANCH  14  15
ENDBRANCH  13  14
ENDBRANCH  12  13
ENDBRANCH   9  12
ENDBRANCH   5   6
ENDBRANCH   4   5
ENDBRANCH   3   4
ENDBRANCH   2   3
TORSDOF 9
ENDMDL
MODEL       30
REMARK 921   NORMALIZED FREE ENERGY PREDICTED BY IDOCK:   -4.87 KCAL/MOL
REMARK 922        TOTAL FREE ENERGY PREDICTED BY IDOCK:   -8.27 KCAL/MOL
REMARK 923 INTER-LIGAND FREE ENERGY PREDICTED BY IDOCK:   -7.43 KCAL/MOL
REMARK 924 INTRA-LIGAND FREE ENERGY PREDICTED BY IDOCK:   -0.84 KCAL/MOL
REMARK 927      BINDING AFFINITY PREDICTED BY RF-SCORE:    0.00 PKD
ROOT
HETATM    1  C   UNL     1     -10.596   4.232  72.835  1.00  0.00    -0.255 C  
HETATM    2  C   UNL     1     -10.598   5.741  72.709  1.00  0.00    -0.262 C  
ENDROOT
BRANCH   2   3
HETATM    3  C   UNL     1     -11.882   6.262  72.053  1.00  0.00    -0.370 C  
BRANCH   3   4
HETATM    4  C   UNL     1     -12.140   7.670  72.557  1.00  0.00    -0.159 C  
BRANCH   4   5
HETATM    5  O   UNL     1     -11.009   8.535  72.406  1.00  0.00    -0.357 OA 
BRANCH   5   6
HETATM    6  C   UNL     1     -11.196   9.493  71.433  1.00  0.00    -0.382 A  
HETATM    7  C   UNL     1     -12.348  10.274  71.328  1.00  0.00    -0.506 A  
HETATM    8  C   UNL     1     -12.493  11.204  70.314  1.00  0.00    -0.354 A  
HETATM    9  C   UNL     1     -11.490  11.392  69.367  1.00  0.00    -0.310 A  
HETATM   10  C   UNL     1     -10.173   9.684  70.502  1.00  0.00    -0.351 A  
HETATM   11  C   UNL     1     -10.323  10.632  69.472  1.00  0.00    -0.214 A  
BRANCH   9  12
HETATM   12  O   UNL     1     -11.584  12.286  68.323  1.00  0.00    -0.288 OA 
BRANCH  12  13
HETATM   13  C   UNL     1     -10.871  13.513  68.547  1.00  0.00    -0.264 C  
BRANCH  13  14
HETATM   14  C   UNL     1     -11.820  14.634  68.943  1.00  0.00    -0.344 C  
BRANCH  14  15
HETATM   15  C   UNL     1     -11.444  15.248  70.305  1.00  0.00    -0.297 C  
BRANCH  15  16
HETATM   16  N   UNL     1     -12.566  15.863  71.035  1.00  0.00    -0.399 NA 
HETATM   17  C   UNL     1     -13.709  14.949  71.255  1.00  0.00    -0.435 C  
HETATM   18  C   UNL     1     -13.465  13.894  72.346  1.00  0.00    -0.560 C  
HETATM   19  O   UNL     1     -13.132  14.514  73.593  1.00  0.00    -0.475 OA 
HETATM   20  C   UNL     1     -11.965  15.333  73.452  1.00  0.00    -0.427 C  
HETATM   21  C   UNL     1     -12.144  16.397  72.352  1.00  0.00    -0.415 C  
ENDBRANCH  15  16
ENDBRANCH  14  15
ENDBRANCH  13  14
ENDBRANCH  12  13
ENDBRANCH   9  12
ENDBRANCH   5   6
ENDBRANCH   4   5
ENDBRANCH   3   4
ENDBRANCH   2   3
TORSDOF 9
ENDMDL
MODEL       31
REMARK 921   NORMALIZED FREE ENERGY PREDICTED BY IDOCK:   -4.87 KCAL/MOL
REMARK 922        TOTAL FREE ENERGY PREDICTED BY IDOCK:   -8.26 KCAL/MOL
REMARK 923 INTER-LIGAND FREE ENERGY PREDICTED BY IDOCK:   -7.72 KCAL/MOL
REMARK 924 INTRA-LIGAND FREE ENERGY PREDICTED BY IDOCK:   -0.54 KCAL/MOL
REMARK 927      BINDING AFFINITY PREDICTED BY RF-SCORE:    0.00 PKD
ROOT
HETATM    1  C   UNL     1      -9.724  19.446  68.642  1.00  0.00    -0.504 C  
HETATM    2  C   UNL     1     -10.657  19.532  67.453  1.00  0.00    -0.607 C  
ENDROOT
BRANCH   2   3
HETATM    3  C   UNL     1     -10.372  18.438  66.419  1.00  0.00    -0.430 C  
BRANCH   3   4
HETATM    4  C   UNL     1     -10.372  17.096  67.128  1.00  0.00    -0.307 C  
BRANCH   4   5
HETATM    5  O   UNL     1     -10.445  15.985  66.228  1.00  0.00    -0.307 OA 
BRANCH   5   6
HETATM    6  C   UNL     1     -10.883  14.829  66.838  1.00  0.00    -0.316 A  
HETATM    7  C   UNL     1     -11.317  13.704  66.138  1.00  0.00    -0.324 A  
HETATM    8  C   UNL     1     -11.772  12.578  66.803  1.00  0.00    -0.453 A  
HETATM    9  C   UNL     1     -11.805  12.534  68.193  1.00  0.00    -0.317 A  
HETATM   10  C   UNL     1     -10.892  14.792  68.233  1.00  0.00    -0.251 A  
HETATM   11  C   UNL     1     -11.353  13.645  68.906  1.00  0.00    -0.332 A  
BRANCH   9  12
HETATM   12  O   UNL     1     -12.265  11.452  68.911  1.00  0.00    -0.458 OA 
BRANCH  12  13
HETATM   13  C   UNL     1     -12.249  11.652  70.334  1.00  0.00    -0.347 C  
BRANCH  13  14
HETATM   14  C   UNL     1     -12.769  10.424  71.065  1.00  0.00    -0.490 C  
BRANCH  14  15
HETATM   15  C   UNL     1     -11.628   9.467  71.458  1.00  0.00    -0.397 C  
BRANCH  15  16
HETATM   16  N   UNL     1     -12.055   8.273  72.208  1.00  0.00    -0.362 NA 
HETATM   17  C   UNL     1     -12.711   7.243  71.372  1.00  0.00    -0.389 C  
HETATM   18  C   UNL     1     -11.740   6.445  70.487  1.00  0.00    -0.317 C  
HETATM   19  O   UNL     1     -10.729   5.811  71.278  1.00  0.00    -0.246 OA 
HETATM   20  C   UNL     1      -9.997   6.785  72.032  1.00  0.00    -0.171 C  
HETATM   21  C   UNL     1     -10.925   7.632  72.923  1.00  0.00    -0.400 C  
ENDBRANCH  15  16
ENDBRANCH  14  15
ENDBRANCH  13  14
ENDBRANCH  12  13
ENDBRANCH   9  12
ENDBRANCH   5   6
ENDBRANCH   4   5
ENDBRANCH   3   4
ENDBRANCH   2   3
TORSDOF 9
ENDMDL
MODEL       32
REMARK 921   NORMALIZED FREE ENERGY PREDICTED BY IDOCK:   -4.83 KCAL/MOL
REMARK 922        TOTAL FREE ENERGY PREDICTED BY IDOCK:   -8.22 KCAL/MOL
REMARK 923 INTER-LIGAND FREE ENERGY PREDICTED BY IDOCK:   -7.51 KCAL/MOL
REMARK 924 INTRA-LIGAND FREE ENERGY PREDICTED BY IDOCK:   -0.71 KCAL/MOL
REMARK 927      BINDING AFFINITY PREDICTED BY RF-SCORE:    0.00 PKD
ROOT
HETATM    1  C   UNL     1     -10.533  19.095  66.214  1.00  0.00    -0.551 C  
HETATM    2  C   UNL     1     -10.592  18.332  67.520  1.00  0.00    -0.432 C  
ENDROOT
BRANCH   2   3
HETATM    3  C   UNL     1     -10.366  16.830  67.318  1.00  0.00    -0.304 C  
BRANCH   3   4
HETATM    4  C   UNL     1     -11.286  16.075  68.261  1.00  0.00    -0.350 C  
BRANCH   4   5
HETATM    5  O   UNL     1     -11.842  14.894  67.675  1.00  0.00    -0.352 OA 
BRANCH   5   6
HETATM    6  C   UNL     1     -11.918  13.842  68.563  1.00  0.00    -0.367 A  
HETATM    7  C   UNL     1     -12.149  14.001  69.930  1.00  0.00    -0.406 A  
HETATM    8  C   UNL     1     -12.190  12.910  70.781  1.00  0.00    -0.348 A  
HETATM    9  C   UNL     1     -12.004  11.618  70.297  1.00  0.00    -0.358 A  
HETATM   10  C   UNL     1     -11.750  12.551  68.060  1.00  0.00    -0.410 A  
HETATM   11  C   UNL     1     -11.793  11.444  68.928  1.00  0.00    -0.413 A  
BRANCH   9  12
HETATM   12  O   UNL     1     -12.013  10.496  71.096  1.00  0.00    -0.352 OA 
BRANCH  12  13
HETATM   13  C   UNL     1     -13.171  10.397  71.940  1.00  0.00    -0.429 C  
BRANCH  13  14
HETATM   14  C   UNL     1     -13.364   8.972  72.439  1.00  0.00    -0.516 C  
BRANCH  14  15
HETATM   15  C   UNL     1     -12.755   7.940  71.471  1.00  0.00    -0.322 C  
BRANCH  15  16
HETATM   16  N   UNL     1     -11.864   6.953  72.104  1.00  0.00    -0.292 NA 
HETATM   17  C   UNL     1     -11.116   6.117  71.138  1.00  0.00    -0.298 C  
HETATM   18  C   UNL     1      -9.956   6.848  70.445  1.00  0.00    -0.179 C  
HETATM   19  O   UNL     1      -9.031   7.369  71.407  1.00  0.00    -0.136 OA 
HETATM   20  C   UNL     1      -9.693   8.268  72.305  1.00  0.00    -0.292 C  
HETATM   21  C   UNL     1     -10.883   7.593  73.013  1.00  0.00    -0.400 C  
ENDBRANCH  15  16
ENDBRANCH  14  15
ENDBRANCH  13  14
ENDBRANCH  12  13
ENDBRANCH   9  12
ENDBRANCH   5   6
ENDBRANCH   4   5
ENDBRANCH   3   4
ENDBRANCH   2   3
TORSDOF 9
ENDMDL
MODEL       33
REMARK 921   NORMALIZED FREE ENERGY PREDICTED BY IDOCK:   -4.83 KCAL/MOL
REMARK 922        TOTAL FREE ENERGY PREDICTED BY IDOCK:   -8.20 KCAL/MOL
REMARK 923 INTER-LIGAND FREE ENERGY PREDICTED BY IDOCK:   -7.27 KCAL/MOL
REMARK 924 INTRA-LIGAND FREE ENERGY PREDICTED BY IDOCK:   -0.94 KCAL/MOL
REMARK 927      BINDING AFFINITY PREDICTED BY RF-SCORE:    0.00 PKD
ROOT
HETATM    1  C   UNL     1      -9.351   7.974  73.004  1.00  0.00    -0.344 C  
HETATM    2  C   UNL     1     -10.553   7.193  73.490  1.00  0.00    -0.416 C  
ENDROOT
BRANCH   2   3
HETATM    3  C   UNL     1     -11.267   6.466  72.345  1.00  0.00    -0.313 C  
BRANCH   3   4
HETATM    4  C   UNL     1     -12.328   7.392  71.778  1.00  0.00    -0.333 C  
BRANCH   4   5
HETATM    5  O   UNL     1     -11.859   8.171  70.673  1.00  0.00    -0.221 OA 
BRANCH   5   6
HETATM    6  C   UNL     1     -12.122   9.517  70.818  1.00  0.00    -0.232 A  
HETATM    7  C   UNL     1     -13.015  10.031  71.758  1.00  0.00    -0.560 A  
HETATM    8  C   UNL     1     -13.261  11.391  71.843  1.00  0.00    -0.485 A  
HETATM    9  C   UNL     1     -12.620  12.288  70.993  1.00  0.00    -0.257 A  
HETATM   10  C   UNL     1     -11.457  10.406  69.972  1.00  0.00    -0.382 A  
HETATM   11  C   UNL     1     -11.708  11.788  70.062  1.00  0.00    -0.386 A  
BRANCH   9  12
HETATM   12  O   UNL     1     -12.839  13.648  71.015  1.00  0.00    -0.323 OA 
BRANCH  12  13
HETATM   13  C   UNL     1     -11.815  14.408  70.353  1.00  0.00    -0.312 C  
BRANCH  13  14
HETATM   14  C   UNL     1     -12.406  15.280  69.255  1.00  0.00    -0.128 C  
BRANCH  14  15
HETATM   15  C   UNL     1     -11.392  15.543  68.125  1.00  0.00    -0.345 C  
BRANCH  15  16
HETATM   16  N   UNL     1     -10.930  14.336  67.419  1.00  0.00    -0.289 NA 
HETATM   17  C   UNL     1     -12.020  13.555  66.793  1.00  0.00    -0.404 C  
HETATM   18  C   UNL     1     -12.589  14.189  65.514  1.00  0.00    -0.479 C  
HETATM   19  O   UNL     1     -11.560  14.393  64.541  1.00  0.00    -0.393 OA 
HETATM   20  C   UNL     1     -10.526  15.232  65.070  1.00  0.00    -0.382 C  
HETATM   21  C   UNL     1      -9.932  14.655  66.369  1.00  0.00    -0.283 C  
ENDBRANCH  15  16
ENDBRANCH  14  15
ENDBRANCH  13  14
ENDBRANCH  12  13
ENDBRANCH   9  12
ENDBRANCH   5   6
ENDBRANCH   4   5
ENDBRANCH   3   4
ENDBRANCH   2   3
TORSDOF 9
ENDMDL
MODEL       34
REMARK 921   NORMALIZED FREE ENERGY PREDICTED BY IDOCK:   -4.79 KCAL/MOL
REMARK 922        TOTAL FREE ENERGY PREDICTED BY IDOCK:   -8.14 KCAL/MOL
REMARK 923 INTER-LIGAND FREE ENERGY PREDICTED BY IDOCK:   -7.41 KCAL/MOL
REMARK 924 INTRA-LIGAND FREE ENERGY PREDICTED BY IDOCK:   -0.73 KCAL/MOL
REMARK 927      BINDING AFFINITY PREDICTED BY RF-SCORE:    0.00 PKD
ROOT
HETATM    1  C   UNL     1     -12.813  15.866  73.741  1.00  0.00    -0.708 C  
HETATM    2  C   UNL     1     -13.808  15.484  72.666  1.00  0.00    -0.654 C  
ENDROOT
BRANCH   2   3
HETATM    3  C   UNL     1     -13.175  15.482  71.271  1.00  0.00    -0.588 C  
BRANCH   3   4
HETATM    4  C   UNL     1     -11.792  14.865  71.374  1.00  0.00    -0.350 C  
BRANCH   4   5
HETATM    5  O   UNL     1     -10.957  15.171  70.252  1.00  0.00    -0.261 OA 
BRANCH   5   6
HETATM    6  C   UNL     1     -11.308  14.470  69.117  1.00  0.00    -0.277 A  
HETATM    7  C   UNL     1     -11.376  13.078  69.061  1.00  0.00    -0.340 A  
HETATM    8  C   UNL     1     -11.710  12.424  67.887  1.00  0.00    -0.421 A  
HETATM    9  C   UNL     1     -11.991  13.139  66.726  1.00  0.00    -0.373 A  
HETATM   10  C   UNL     1     -11.607  15.200  67.966  1.00  0.00    -0.345 A  
HETATM   11  C   UNL     1     -11.947  14.533  66.775  1.00  0.00    -0.364 A  
BRANCH   9  12
HETATM   12  O   UNL     1     -12.308  12.545  65.524  1.00  0.00    -0.600 OA 
BRANCH  12  13
HETATM   13  C   UNL     1     -11.465  12.958  64.436  1.00  0.00    -0.357 C  
BRANCH  13  14
HETATM   14  C   UNL     1     -10.872  11.755  63.717  1.00  0.00    -0.490 C  
BRANCH  14  15
HETATM   15  C   UNL     1      -9.722  11.117  64.520  1.00  0.00    -0.265 C  
BRANCH  15  16
HETATM   16  N   UNL     1      -9.276   9.804  64.023  1.00  0.00    -0.255 NA 
HETATM   17  C   UNL     1      -8.827   9.820  62.613  1.00  0.00    -0.244 C  
HETATM   18  C   UNL     1      -7.448  10.464  62.403  1.00  0.00    -0.143 C  
HETATM   19  O   UNL     1      -6.450   9.806  63.191  1.00  0.00    -0.105 OA 
HETATM   20  C   UNL     1      -6.793   9.855  64.581  1.00  0.00    -0.126 C  
HETATM   21  C   UNL     1      -8.181   9.242  64.848  1.00  0.00    -0.145 C  
ENDBRANCH  15  16
ENDBRANCH  14  15
ENDBRANCH  13  14
ENDBRANCH  12  13
ENDBRANCH   9  12
ENDBRANCH   5   6
ENDBRANCH   4   5
ENDBRANCH   3   4
ENDBRANCH   2   3
TORSDOF 9
ENDMDL
MODEL       35
REMARK 921   NORMALIZED FREE ENERGY PREDICTED BY IDOCK:   -4.78 KCAL/MOL
REMARK 922        TOTAL FREE ENERGY PREDICTED BY IDOCK:   -8.14 KCAL/MOL
REMARK 923 INTER-LIGAND FREE ENERGY PREDICTED BY IDOCK:   -7.58 KCAL/MOL
REMARK 924 INTRA-LIGAND FREE ENERGY PREDICTED BY IDOCK:   -0.56 KCAL/MOL
REMARK 927      BINDING AFFINITY PREDICTED BY RF-SCORE:    0.00 PKD
ROOT
HETATM    1  C   UNL     1      -9.632   4.656  71.221  1.00  0.00    -0.238 C  
HETATM    2  C   UNL     1     -10.100   3.830  72.400  1.00  0.00    -0.237 C  
ENDROOT
BRANCH   2   3
HETATM    3  C   UNL     1     -11.010   4.630  73.338  1.00  0.00    -0.395 C  
BRANCH   3   4
HETATM    4  C   UNL     1     -11.510   5.854  72.591  1.00  0.00    -0.272 C  
BRANCH   4   5
HETATM    5  O   UNL     1     -11.161   7.084  73.235  1.00  0.00    -0.229 OA 
BRANCH   5   6
HETATM    6  C   UNL     1     -11.406   8.189  72.447  1.00  0.00    -0.391 A  
HETATM    7  C   UNL     1     -12.660   8.790  72.329  1.00  0.00    -0.460 A  
HETATM    8  C   UNL     1     -12.855   9.883  71.501  1.00  0.00    -0.522 A  
HETATM    9  C   UNL     1     -11.803  10.417  70.763  1.00  0.00    -0.368 A  
HETATM   10  C   UNL     1     -10.338   8.726  71.728  1.00  0.00    -0.413 A  
HETATM   11  C   UNL     1     -10.539   9.838  70.888  1.00  0.00    -0.344 A  
BRANCH   9  12
HETATM   12  O   UNL     1     -11.939  11.488  69.908  1.00  0.00    -0.310 OA 
BRANCH  12  13
HETATM   13  C   UNL     1     -11.295  11.299  68.637  1.00  0.00    -0.273 C  
BRANCH  13  14
HETATM   14  C   UNL     1     -11.317  12.581  67.817  1.00  0.00    -0.351 C  
BRANCH  14  15
HETATM   15  C   UNL     1     -11.587  12.300  66.326  1.00  0.00    -0.385 C  
BRANCH  15  16
HETATM   16  N   UNL     1     -10.772  13.096  65.393  1.00  0.00    -0.288 NA 
HETATM   17  C   UNL     1     -10.725  12.545  64.020  1.00  0.00    -0.415 C  
HETATM   18  C   UNL     1     -12.015  12.763  63.214  1.00  0.00    -0.443 C  
HETATM   19  O   UNL     1     -12.340  14.156  63.134  1.00  0.00    -0.602 OA 
HETATM   20  C   UNL     1     -12.496  14.712  64.445  1.00  0.00    -0.288 C  
HETATM   21  C   UNL     1     -11.238  14.501  65.308  1.00  0.00    -0.352 C  
ENDBRANCH  15  16
ENDBRANCH  14  15
ENDBRANCH  13  14
ENDBRANCH  12  13
ENDBRANCH   9  12
ENDBRANCH   5   6
ENDBRANCH   4   5
ENDBRANCH   3   4
ENDBRANCH   2   3
TORSDOF 9
ENDMDL
MODEL       36
REMARK 921   NORMALIZED FREE ENERGY PREDICTED BY IDOCK:   -4.77 KCAL/MOL
REMARK 922        TOTAL FREE ENERGY PREDICTED BY IDOCK:   -8.12 KCAL/MOL
REMARK 923 INTER-LIGAND FREE ENERGY PREDICTED BY IDOCK:   -6.85 KCAL/MOL
REMARK 924 INTRA-LIGAND FREE ENERGY PREDICTED BY IDOCK:   -1.27 KCAL/MOL
REMARK 927      BINDING AFFINITY PREDICTED BY RF-SCORE:    0.00 PKD
ROOT
HETATM    1  C   UNL     1     -12.271  14.919  64.417  1.00  0.00    -0.399 C  
HETATM    2  C   UNL     1     -12.097  13.631  63.641  1.00  0.00    -0.397 C  
ENDROOT
BRANCH   2   3
HETATM    3  C   UNL     1     -12.643  12.421  64.406  1.00  0.00    -0.489 C  
BRANCH   3   4
HETATM    4  C   UNL     1     -11.588  11.966  65.398  1.00  0.00    -0.223 C  
BRANCH   4   5
HETATM    5  O   UNL     1     -12.025  12.051  66.759  1.00  0.00    -0.616 OA 
BRANCH   5   6
HETATM    6  C   UNL     1     -11.394  13.055  67.461  1.00  0.00    -0.305 A  
HETATM    7  C   UNL     1     -12.006  13.787  68.479  1.00  0.00    -0.402 A  
HETATM    8  C   UNL     1     -11.332  14.804  69.135  1.00  0.00    -0.302 A  
HETATM    9  C   UNL     1     -10.021  15.125  68.798  1.00  0.00    -0.229 A  
HETATM   10  C   UNL     1     -10.072  13.353  67.127  1.00  0.00    -0.240 A  
HETATM   11  C   UNL     1      -9.390  14.387  67.796  1.00  0.00    -0.200 A  
BRANCH   9  12
HETATM   12  O   UNL     1      -9.306  16.138  69.399  1.00  0.00    -0.252 OA 
BRANCH  12  13
HETATM   13  C   UNL     1      -7.882  15.996  69.270  1.00  0.00    -0.222 C  
BRANCH  13  14
HETATM   14  C   UNL     1      -7.236  17.313  68.864  1.00  0.00    -0.243 C  
BRANCH  14  15
HETATM   15  C   UNL     1      -7.759  17.811  67.504  1.00  0.00    -0.206 C  
BRANCH  15  16
HETATM   16  N   UNL     1      -8.035  19.257  67.442  1.00  0.00    -0.261 NA 
HETATM   17  C   UNL     1      -8.691  19.688  66.187  1.00  0.00    -0.333 C  
HETATM   18  C   UNL     1     -10.179  19.312  66.099  1.00  0.00    -0.470 C  
HETATM   19  O   UNL     1     -10.911  19.854  67.203  1.00  0.00    -0.409 OA 
HETATM   20  C   UNL     1     -10.372  19.381  68.444  1.00  0.00    -0.359 C  
HETATM   21  C   UNL     1      -8.873  19.710  68.577  1.00  0.00    -0.297 C  
ENDBRANCH  15  16
ENDBRANCH  14  15
ENDBRANCH  13  14
ENDBRANCH  12  13
ENDBRANCH   9  12
ENDBRANCH   5   6
ENDBRANCH   4   5
ENDBRANCH   3   4
ENDBRANCH   2   3
TORSDOF 9
ENDMDL
MODEL       37
REMARK 921   NORMALIZED FREE ENERGY PREDICTED BY IDOCK:   -4.77 KCAL/MOL
REMARK 922        TOTAL FREE ENERGY PREDICTED BY IDOCK:   -8.12 KCAL/MOL
REMARK 923 INTER-LIGAND FREE ENERGY PREDICTED BY IDOCK:   -7.42 KCAL/MOL
REMARK 924 INTRA-LIGAND FREE ENERGY PREDICTED BY IDOCK:   -0.70 KCAL/MOL
REMARK 927      BINDING AFFINITY PREDICTED BY RF-SCORE:    0.00 PKD
ROOT
HETATM    1  C   UNL     1      -9.479   7.829  73.219  1.00  0.00    -0.344 C  
HETATM    2  C   UNL     1     -10.743   7.012  73.385  1.00  0.00    -0.379 C  
ENDROOT
BRANCH   2   3
HETATM    3  C   UNL     1     -11.149   6.312  72.083  1.00  0.00    -0.312 C  
BRANCH   3   4
HETATM    4  C   UNL     1     -12.288   7.093  71.454  1.00  0.00    -0.377 C  
BRANCH   4   5
HETATM    5  O   UNL     1     -12.653   8.255  72.206  1.00  0.00    -0.334 OA 
BRANCH   5   6
HETATM    6  C   UNL     1     -12.427   9.429  71.520  1.00  0.00    -0.366 A  
HETATM    7  C   UNL     1     -11.515   9.546  70.471  1.00  0.00    -0.337 A  
HETATM    8  C   UNL     1     -11.308  10.757  69.833  1.00  0.00    -0.385 A  
HETATM    9  C   UNL     1     -12.008  11.896  70.218  1.00  0.00    -0.330 A  
HETATM   10  C   UNL     1     -13.150  10.559  71.904  1.00  0.00    -0.567 A  
HETATM   11  C   UNL     1     -12.939  11.788  71.253  1.00  0.00    -0.353 A  
BRANCH   9  12
HETATM   12  O   UNL     1     -11.831  13.132  69.637  1.00  0.00    -0.304 OA 
BRANCH  12  13
HETATM   13  C   UNL     1     -12.486  14.201  70.340  1.00  0.00    -0.357 C  
BRANCH  13  14
HETATM   14  C   UNL     1     -11.654  15.474  70.297  1.00  0.00    -0.355 C  
BRANCH  14  15
HETATM   15  C   UNL     1     -11.421  15.957  68.853  1.00  0.00    -0.386 C  
BRANCH  15  16
HETATM   16  N   UNL     1     -10.088  16.532  68.603  1.00  0.00    -0.241 NA 
HETATM   17  C   UNL     1      -9.209  15.672  67.780  1.00  0.00    -0.193 C  
HETATM   18  C   UNL     1      -9.574  15.651  66.288  1.00  0.00    -0.308 C  
HETATM   19  O   UNL     1      -9.559  16.973  65.738  1.00  0.00    -0.525 OA 
HETATM   20  C   UNL     1     -10.476  17.820  66.441  1.00  0.00    -0.297 C  
HETATM   21  C   UNL     1     -10.171  17.861  67.951  1.00  0.00    -0.371 C  
ENDBRANCH  15  16
ENDBRANCH  14  15
ENDBRANCH  13  14
ENDBRANCH  12  13
ENDBRANCH   9  12
ENDBRANCH   5   6
ENDBRANCH   4   5
ENDBRANCH   3   4
ENDBRANCH   2   3
TORSDOF 9
ENDMDL
MODEL       38
REMARK 921   NORMALIZED FREE ENERGY PREDICTED BY IDOCK:   -4.76 KCAL/MOL
REMARK 922        TOTAL FREE ENERGY PREDICTED BY IDOCK:   -8.11 KCAL/MOL
REMARK 923 INTER-LIGAND FREE ENERGY PREDICTED BY IDOCK:   -7.03 KCAL/MOL
REMARK 924 INTRA-LIGAND FREE ENERGY PREDICTED BY IDOCK:   -1.07 KCAL/MOL
REMARK 927      BINDING AFFINITY PREDICTED BY RF-SCORE:    0.00 PKD
ROOT
HETATM    1  C   UNL     1     -12.171  12.591  63.517  1.00  0.00    -0.652 C  
HETATM    2  C   UNL     1     -10.790  11.972  63.491  1.00  0.00    -0.509 C  
ENDROOT
BRANCH   2   3
HETATM    3  C   UNL     1     -10.456  11.256  64.804  1.00  0.00    -0.384 C  
BRANCH   3   4
HETATM    4  C   UNL     1     -10.924  12.126  65.957  1.00  0.00    -0.293 C  
BRANCH   4   5
HETATM    5  O   UNL     1      -9.851  12.798  66.624  1.00  0.00    -0.238 OA 
BRANCH   5   6
HETATM    6  C   UNL     1     -10.074  14.151  66.767  1.00  0.00    -0.262 A  
HETATM    7  C   UNL     1     -10.144  15.039  65.693  1.00  0.00    -0.390 A  
HETATM    8  C   UNL     1     -10.344  16.394  65.896  1.00  0.00    -0.378 A  
HETATM    9  C   UNL     1     -10.484  16.911  67.181  1.00  0.00    -0.296 A  
HETATM   10  C   UNL     1     -10.232  14.653  68.060  1.00  0.00    -0.231 A  
HETATM   11  C   UNL     1     -10.437  16.030  68.263  1.00  0.00    -0.269 A  
BRANCH   9  12
HETATM   12  O   UNL     1     -10.664  18.250  67.447  1.00  0.00    -0.412 OA 
BRANCH  12  13
HETATM   13  C   UNL     1     -10.630  19.083  66.277  1.00  0.00    -0.412 C  
BRANCH  13  14
HETATM   14  C   UNL     1      -9.751  20.305  66.500  1.00  0.00    -0.519 C  
BRANCH  14  15
HETATM   15  C   UNL     1      -8.253  19.948  66.458  1.00  0.00    -0.331 C  
BRANCH  15  16
HETATM   16  N   UNL     1      -7.512  20.251  67.695  1.00  0.00    -0.304 NA 
HETATM   17  C   UNL     1      -7.793  19.314  68.805  1.00  0.00    -0.353 C  
HETATM   18  C   UNL     1      -7.130  17.937  68.644  1.00  0.00    -0.266 C  
HETATM   19  O   UNL     1      -5.711  18.064  68.505  1.00  0.00    -0.169 OA 
HETATM   20  C   UNL     1      -5.388  18.884  67.375  1.00  0.00    -0.158 C  
HETATM   21  C   UNL     1      -6.047  20.273  67.472  1.00  0.00    -0.206 C  
ENDBRANCH  15  16
ENDBRANCH  14  15
ENDBRANCH  13  14
ENDBRANCH  12  13
ENDBRANCH   9  12
ENDBRANCH   5   6
ENDBRANCH   4   5
ENDBRANCH   3   4
ENDBRANCH   2   3
TORSDOF 9
ENDMDL
MODEL       39
REMARK 921   NORMALIZED FREE ENERGY PREDICTED BY IDOCK:   -4.76 KCAL/MOL
REMARK 922        TOTAL FREE ENERGY PREDICTED BY IDOCK:   -8.10 KCAL/MOL
REMARK 923 INTER-LIGAND FREE ENERGY PREDICTED BY IDOCK:   -7.31 KCAL/MOL
REMARK 924 INTRA-LIGAND FREE ENERGY PREDICTED BY IDOCK:   -0.80 KCAL/MOL
REMARK 927      BINDING AFFINITY PREDICTED BY RF-SCORE:    0.00 PKD
ROOT
HETATM    1  C   UNL     1      -9.790   4.559  71.940  1.00  0.00    -0.246 C  
HETATM    2  C   UNL     1     -10.882   4.847  72.948  1.00  0.00    -0.313 C  
ENDROOT
BRANCH   2   3
HETATM    3  C   UNL     1     -10.369   5.677  74.129  1.00  0.00    -0.299 C  
BRANCH   3   4
HETATM    4  C   UNL     1     -10.552   7.147  73.797  1.00  0.00    -0.260 C  
BRANCH   4   5
HETATM    5  O   UNL     1     -11.630   7.386  72.885  1.00  0.00    -0.262 OA 
BRANCH   5   6
HETATM    6  C   UNL     1     -11.347   8.380  71.973  1.00  0.00    -0.342 A  
HETATM    7  C   UNL     1     -12.214   9.437  71.691  1.00  0.00    -0.467 A  
HETATM    8  C   UNL     1     -11.891  10.395  70.745  1.00  0.00    -0.466 A  
HETATM    9  C   UNL     1     -10.688  10.334  70.048  1.00  0.00    -0.292 A  
HETATM   10  C   UNL     1     -10.129   8.318  71.296  1.00  0.00    -0.249 A  
HETATM   11  C   UNL     1      -9.802   9.294  70.336  1.00  0.00    -0.290 A  
BRANCH   9  12
HETATM   12  O   UNL     1     -10.319  11.244  69.082  1.00  0.00    -0.202 OA 
BRANCH  12  13
HETATM   13  C   UNL     1     -11.273  12.303  68.892  1.00  0.00    -0.273 C  
BRANCH  13  14
HETATM   14  C   UNL     1     -10.732  13.362  67.944  1.00  0.00    -0.259 C  
BRANCH  14  15
HETATM   15  C   UNL     1     -10.787  12.898  66.476  1.00  0.00    -0.271 C  
BRANCH  15  16
HETATM   16  N   UNL     1     -12.147  12.707  65.941  1.00  0.00    -0.563 NA 
HETATM   17  C   UNL     1     -12.863  13.972  65.664  1.00  0.00    -0.406 C  
HETATM   18  C   UNL     1     -12.377  14.703  64.403  1.00  0.00    -0.398 C  
HETATM   19  O   UNL     1     -12.480  13.860  63.250  1.00  0.00    -0.817 OA 
HETATM   20  C   UNL     1     -11.715  12.662  63.432  1.00  0.00    -0.498 C  
HETATM   21  C   UNL     1     -12.145  11.898  64.698  1.00  0.00    -0.137 C  
ENDBRANCH  15  16
ENDBRANCH  14  15
ENDBRANCH  13  14
ENDBRANCH  12  13
ENDBRANCH   9  12
ENDBRANCH   5   6
ENDBRANCH   4   5
ENDBRANCH   3   4
ENDBRANCH   2   3
TORSDOF 9
ENDMDL
MODEL       40
REMARK 921   NORMALIZED FREE ENERGY PREDICTED BY IDOCK:   -4.76 KCAL/MOL
REMARK 922        TOTAL FREE ENERGY PREDICTED BY IDOCK:   -8.10 KCAL/MOL
REMARK 923 INTER-LIGAND FREE ENERGY PREDICTED BY IDOCK:   -7.43 KCAL/MOL
REMARK 924 INTRA-LIGAND FREE ENERGY PREDICTED BY IDOCK:   -0.67 KCAL/MOL
REMARK 927      BINDING AFFINITY PREDICTED BY RF-SCORE:    0.00 PKD
ROOT
HETATM    1  C   UNL     1      -9.455  20.832  67.199  1.00  0.00    -0.444 C  
HETATM    2  C   UNL     1     -10.483  19.722  67.134  1.00  0.00    -0.592 C  
ENDROOT
BRANCH   2   3
HETATM    3  C   UNL     1     -10.560  19.091  65.740  1.00  0.00    -0.388 C  
BRANCH   3   4
HETATM    4  C   UNL     1     -10.556  17.581  65.897  1.00  0.00    -0.203 C  
BRANCH   4   5
HETATM    5  O   UNL     1     -10.984  16.894  64.716  1.00  0.00    -0.772 OA 
BRANCH   5   6
HETATM    6  C   UNL     1     -11.014  15.524  64.876  1.00  0.00    -0.436 A  
HETATM    7  C   UNL     1     -10.012  14.801  65.524  1.00  0.00    -0.390 A  
HETATM    8  C   UNL     1     -10.081  13.423  65.633  1.00  0.00    -0.285 A  
HETATM    9  C   UNL     1     -11.155  12.716  65.101  1.00  0.00    -0.294 A  
HETATM   10  C   UNL     1     -12.108  14.831  64.355  1.00  0.00    -0.457 A  
HETATM   11  C   UNL     1     -12.175  13.430  64.469  1.00  0.00    -0.450 A  
BRANCH   9  12
HETATM   12  O   UNL     1     -11.270  11.345  65.160  1.00  0.00    -0.197 OA 
BRANCH  12  13
HETATM   13  C   UNL     1     -10.007  10.659  65.167  1.00  0.00    -0.303 C  
BRANCH  13  14
HETATM   14  C   UNL     1      -9.987   9.560  66.219  1.00  0.00    -0.344 C  
BRANCH  14  15
HETATM   15  C   UNL     1     -10.886   9.904  67.422  1.00  0.00    -0.227 C  
BRANCH  15  16
HETATM   16  N   UNL     1     -10.176  10.488  68.574  1.00  0.00    -0.166 NA 
HETATM   17  C   UNL     1     -10.227  11.966  68.621  1.00  0.00    -0.191 C  
HETATM   18  C   UNL     1     -11.586  12.531  69.062  1.00  0.00    -0.314 C  
HETATM   19  O   UNL     1     -11.960  12.023  70.347  1.00  0.00    -0.348 OA 
HETATM   20  C   UNL     1     -12.024  10.592  70.323  1.00  0.00    -0.339 C  
HETATM   21  C   UNL     1     -10.691   9.969  69.864  1.00  0.00    -0.286 C  
ENDBRANCH  15  16
ENDBRANCH  14  15
ENDBRANCH  13  14
ENDBRANCH  12  13
ENDBRANCH   9  12
ENDBRANCH   5   6
ENDBRANCH   4   5
ENDBRANCH   3   4
ENDBRANCH   2   3
TORSDOF 9
ENDMDL
MODEL       41
REMARK 921   NORMALIZED FREE ENERGY PREDICTED BY IDOCK:   -4.76 KCAL/MOL
REMARK 922        TOTAL FREE ENERGY PREDICTED BY IDOCK:   -8.09 KCAL/MOL
REMARK 923 INTER-LIGAND FREE ENERGY PREDICTED BY IDOCK:   -6.98 KCAL/MOL
REMARK 924 INTRA-LIGAND FREE ENERGY PREDICTED BY IDOCK:   -1.12 KCAL/MOL
REMARK 927      BINDING AFFINITY PREDICTED BY RF-SCORE:    0.00 PKD
ROOT
HETATM    1  C   UNL     1      -9.955  20.028  66.115  1.00  0.00    -0.580 C  
HETATM    2  C   UNL     1     -10.854  19.649  67.272  1.00  0.00    -0.519 C  
ENDROOT
BRANCH   2   3
HETATM    3  C   UNL     1     -10.060  19.100  68.462  1.00  0.00    -0.499 C  
BRANCH   3   4
HETATM    4  C   UNL     1      -9.590  17.698  68.118  1.00  0.00    -0.297 C  
BRANCH   4   5
HETATM    5  O   UNL     1     -10.534  16.685  68.482  1.00  0.00    -0.280 OA 
BRANCH   5   6
HETATM    6  C   UNL     1     -10.894  15.883  67.420  1.00  0.00    -0.291 A  
HETATM    7  C   UNL     1     -11.853  14.874  67.506  1.00  0.00    -0.256 A  
HETATM    8  C   UNL     1     -12.157  14.080  66.414  1.00  0.00    -0.483 A  
HETATM    9  C   UNL     1     -11.515  14.268  65.193  1.00  0.00    -0.351 A  
HETATM   10  C   UNL     1     -10.256  16.096  66.197  1.00  0.00    -0.351 A  
HETATM   11  C   UNL     1     -10.568  15.288  65.088  1.00  0.00    -0.453 A  
BRANCH   9  12
HETATM   12  O   UNL     1     -11.759  13.498  64.078  1.00  0.00    -0.409 OA 
BRANCH  12  13
HETATM   13  C   UNL     1     -10.673  12.624  63.729  1.00  0.00    -0.417 C  
BRANCH  13  14
HETATM   14  C   UNL     1     -10.872  11.238  64.324  1.00  0.00    -0.398 C  
BRANCH  14  15
HETATM   15  C   UNL     1      -9.745  10.870  65.307  1.00  0.00    -0.246 C  
BRANCH  15  16
HETATM   16  N   UNL     1     -10.152   9.973  66.403  1.00  0.00    -0.239 NA 
HETATM   17  C   UNL     1      -9.023   9.267  67.049  1.00  0.00    -0.126 C  
HETATM   18  C   UNL     1      -8.177  10.155  67.974  1.00  0.00    -0.113 C  
HETATM   19  O   UNL     1      -8.985  10.748  68.996  1.00  0.00    -0.169 OA 
HETATM   20  C   UNL     1     -10.037  11.529  68.415  1.00  0.00    -0.204 C  
HETATM   21  C   UNL     1     -10.906  10.693  67.457  1.00  0.00    -0.296 C  
ENDBRANCH  15  16
ENDBRANCH  14  15
ENDBRANCH  13  14
ENDBRANCH  12  13
ENDBRANCH   9  12
ENDBRANCH   5   6
ENDBRANCH   4   5
ENDBRANCH   3   4
ENDBRANCH   2   3
TORSDOF 9
ENDMDL
MODEL       42
REMARK 921   NORMALIZED FREE ENERGY PREDICTED BY IDOCK:   -4.75 KCAL/MOL
REMARK 922        TOTAL FREE ENERGY PREDICTED BY IDOCK:   -8.09 KCAL/MOL
REMARK 923 INTER-LIGAND FREE ENERGY PREDICTED BY IDOCK:   -7.25 KCAL/MOL
REMARK 924 INTRA-LIGAND FREE ENERGY PREDICTED BY IDOCK:   -0.84 KCAL/MOL
REMARK 927      BINDING AFFINITY PREDICTED BY RF-SCORE:    0.00 PKD
ROOT
HETATM    1  C   UNL     1     -12.871  10.349  71.620  1.00  0.00    -0.579 C  
HETATM    2  C   UNL     1     -12.197  11.206  70.569  1.00  0.00    -0.475 C  
ENDROOT
BRANCH   2   3
HETATM    3  C   UNL     1     -12.533  12.692  70.739  1.00  0.00    -0.357 C  
BRANCH   3   4
HETATM    4  C   UNL     1     -11.633  13.494  69.816  1.00  0.00    -0.244 C  
BRANCH   4   5
HETATM    5  O   UNL     1     -12.097  13.518  68.462  1.00  0.00    -0.359 OA 
BRANCH   5   6
HETATM    6  C   UNL     1     -11.559  14.556  67.731  1.00  0.00    -0.365 A  
HETATM    7  C   UNL     1     -11.224  14.455  66.380  1.00  0.00    -0.345 A  
HETATM    8  C   UNL     1     -10.662  15.522  65.700  1.00  0.00    -0.378 A  
HETATM    9  C   UNL     1     -10.415  16.731  66.345  1.00  0.00    -0.269 A  
HETATM   10  C   UNL     1     -11.336  15.768  68.386  1.00  0.00    -0.372 A  
HETATM   11  C   UNL     1     -10.765  16.851  67.692  1.00  0.00    -0.290 A  
BRANCH   9  12
HETATM   12  O   UNL     1      -9.840  17.820  65.729  1.00  0.00    -0.541 OA 
BRANCH  12  13
HETATM   13  C   UNL     1     -10.526  19.057  65.982  1.00  0.00    -0.458 C  
BRANCH  13  14
HETATM   14  C   UNL     1      -9.545  20.215  66.089  1.00  0.00    -0.440 C  
BRANCH  14  15
HETATM   15  C   UNL     1      -8.107  19.724  66.343  1.00  0.00    -0.329 C  
BRANCH  15  16
HETATM   16  N   UNL     1      -7.601  19.975  67.704  1.00  0.00    -0.283 NA 
HETATM   17  C   UNL     1      -8.052  18.980  68.702  1.00  0.00    -0.361 C  
HETATM   18  C   UNL     1      -7.342  17.621  68.596  1.00  0.00    -0.257 C  
HETATM   19  O   UNL     1      -5.923  17.774  68.716  1.00  0.00    -0.176 OA 
HETATM   20  C   UNL     1      -5.425  18.653  67.700  1.00  0.00    -0.163 C  
HETATM   21  C   UNL     1      -6.120  20.027  67.745  1.00  0.00    -0.213 C  
ENDBRANCH  15  16
ENDBRANCH  14  15
ENDBRANCH  13  14
ENDBRANCH  12  13
ENDBRANCH   9  12
ENDBRANCH   5   6
ENDBRANCH   4   5
ENDBRANCH   3   4
ENDBRANCH   2   3
TORSDOF 9
ENDMDL
MODEL       43
REMARK 921   NORMALIZED FREE ENERGY PREDICTED BY IDOCK:   -4.74 KCAL/MOL
REMARK 922        TOTAL FREE ENERGY PREDICTED BY IDOCK:   -8.08 KCAL/MOL
REMARK 923 INTER-LIGAND FREE ENERGY PREDICTED BY IDOCK:   -7.23 KCAL/MOL
REMARK 924 INTRA-LIGAND FREE ENERGY PREDICTED BY IDOCK:   -0.85 KCAL/MOL
REMARK 927      BINDING AFFINITY PREDICTED BY RF-SCORE:    0.00 PKD
ROOT
HETATM    1  C   UNL     1     -11.024  11.361  63.724  1.00  0.00    -0.448 C  
HETATM    2  C   UNL     1     -12.291  12.189  63.657  1.00  0.00    -0.673 C  
ENDROOT
BRANCH   2   3
HETATM    3  C   UNL     1     -12.015  13.680  63.878  1.00  0.00    -0.455 C  
BRANCH   3   4
HETATM    4  C   UNL     1     -11.160  13.830  65.123  1.00  0.00    -0.328 C  
BRANCH   4   5
HETATM    5  O   UNL     1     -11.833  14.509  66.188  1.00  0.00    -0.374 OA 
BRANCH   5   6
HETATM    6  C   UNL     1     -11.859  13.778  67.356  1.00  0.00    -0.396 A  
HETATM    7  C   UNL     1     -11.726  12.390  67.401  1.00  0.00    -0.417 A  
HETATM    8  C   UNL     1     -11.786  11.702  68.601  1.00  0.00    -0.370 A  
HETATM    9  C   UNL     1     -11.979  12.378  69.802  1.00  0.00    -0.289 A  
HETATM   10  C   UNL     1     -12.033  14.471  68.555  1.00  0.00    -0.321 A  
HETATM   11  C   UNL     1     -12.092  13.769  69.774  1.00  0.00    -0.400 A  
BRANCH   9  12
HETATM   12  O   UNL     1     -12.068  11.750  71.025  1.00  0.00    -0.277 OA 
BRANCH  12  13
HETATM   13  C   UNL     1     -12.826  10.529  70.993  1.00  0.00    -0.407 C  
BRANCH  13  14
HETATM   14  C   UNL     1     -12.161   9.450  71.834  1.00  0.00    -0.440 C  
BRANCH  14  15
HETATM   15  C   UNL     1     -11.987   8.137  71.046  1.00  0.00    -0.240 C  
BRANCH  15  16
HETATM   16  N   UNL     1     -10.631   7.912  70.516  1.00  0.00    -0.219 NA 
HETATM   17  C   UNL     1      -9.921   6.781  71.152  1.00  0.00    -0.181 C  
HETATM   18  C   UNL     1     -10.419   5.398  70.704  1.00  0.00    -0.259 C  
HETATM   19  O   UNL     1     -10.321   5.254  69.282  1.00  0.00    -0.232 OA 
HETATM   20  C   UNL     1     -11.082   6.272  68.621  1.00  0.00    -0.325 C  
HETATM   21  C   UNL     1     -10.640   7.684  69.051  1.00  0.00    -0.174 C  
ENDBRANCH  15  16
ENDBRANCH  14  15
ENDBRANCH  13  14
ENDBRANCH  12  13
ENDBRANCH   9  12
ENDBRANCH   5   6
ENDBRANCH   4   5
ENDBRANCH   3   4
ENDBRANCH   2   3
TORSDOF 9
ENDMDL
MODEL       44
REMARK 921   NORMALIZED FREE ENERGY PREDICTED BY IDOCK:   -4.73 KCAL/MOL
REMARK 922        TOTAL FREE ENERGY PREDICTED BY IDOCK:   -8.05 KCAL/MOL
REMARK 923 INTER-LIGAND FREE ENERGY PREDICTED BY IDOCK:   -6.87 KCAL/MOL
REMARK 924 INTRA-LIGAND FREE ENERGY PREDICTED BY IDOCK:   -1.18 KCAL/MOL
REMARK 927      BINDING AFFINITY PREDICTED BY RF-SCORE:    0.00 PKD
ROOT
HETATM    1  C   UNL     1     -13.610  13.085  72.226  1.00  0.00    -0.643 C  
HETATM    2  C   UNL     1     -13.580  14.546  72.623  1.00  0.00    -0.577 C  
ENDROOT
BRANCH   2   3
HETATM    3  C   UNL     1     -13.528  15.472  71.404  1.00  0.00    -0.583 C  
BRANCH   3   4
HETATM    4  C   UNL     1     -12.075  15.659  71.006  1.00  0.00    -0.400 C  
BRANCH   4   5
HETATM    5  O   UNL     1     -11.888  15.751  69.590  1.00  0.00    -0.345 OA 
BRANCH   5   6
HETATM    6  C   UNL     1     -11.368  14.598  69.043  1.00  0.00    -0.277 A  
HETATM    7  C   UNL     1     -12.139  13.482  68.717  1.00  0.00    -0.305 A  
HETATM    8  C   UNL     1     -11.560  12.339  68.193  1.00  0.00    -0.396 A  
HETATM    9  C   UNL     1     -10.187  12.269  67.974  1.00  0.00    -0.206 A  
HETATM   10  C   UNL     1      -9.992  14.550  68.810  1.00  0.00    -0.232 A  
HETATM   11  C   UNL     1      -9.407  13.386  68.277  1.00  0.00    -0.205 A  
BRANCH   9  12
HETATM   12  O   UNL     1      -9.550  11.154  67.477  1.00  0.00    -0.167 OA 
BRANCH  12  13
HETATM   13  C   UNL     1      -8.719  10.485  68.439  1.00  0.00    -0.137 C  
BRANCH  13  14
HETATM   14  C   UNL     1      -9.131   9.030  68.600  1.00  0.00    -0.137 C  
BRANCH  14  15
HETATM   15  C   UNL     1     -10.453   8.892  69.379  1.00  0.00    -0.222 C  
BRANCH  15  16
HETATM   16  N   UNL     1     -10.498   9.633  70.652  1.00  0.00    -0.300 NA 
HETATM   17  C   UNL     1     -11.858  10.067  71.043  1.00  0.00    -0.386 C  
HETATM   18  C   UNL     1     -12.747   8.932  71.574  1.00  0.00    -0.335 C  
HETATM   19  O   UNL     1     -12.137   8.283  72.695  1.00  0.00    -0.384 OA 
HETATM   20  C   UNL     1     -10.855   7.755  72.333  1.00  0.00    -0.303 C  
HETATM   21  C   UNL     1      -9.926   8.848  71.771  1.00  0.00    -0.327 C  
ENDBRANCH  15  16
ENDBRANCH  14  15
ENDBRANCH  13  14
ENDBRANCH  12  13
ENDBRANCH   9  12
ENDBRANCH   5   6
ENDBRANCH   4   5
ENDBRANCH   3   4
ENDBRANCH   2   3
TORSDOF 9
ENDMDL
MODEL       45
REMARK 921   NORMALIZED FREE ENERGY PREDICTED BY IDOCK:   -4.72 KCAL/MOL
REMARK 922        TOTAL FREE ENERGY PREDICTED BY IDOCK:   -8.04 KCAL/MOL
REMARK 923 INTER-LIGAND FREE ENERGY PREDICTED BY IDOCK:   -6.81 KCAL/MOL
REMARK 924 INTRA-LIGAND FREE ENERGY PREDICTED BY IDOCK:   -1.23 KCAL/MOL
REMARK 927      BINDING AFFINITY PREDICTED BY RF-SCORE:    0.00 PKD
ROOT
HETATM    1  C   UNL     1     -10.987  11.520  63.870  1.00  0.00    -0.474 C  
HETATM    2  C   UNL     1     -12.274  12.316  63.820  1.00  0.00    -0.642 C  
ENDROOT
BRANCH   2   3
HETATM    3  C   UNL     1     -12.060  13.780  64.219  1.00  0.00    -0.481 C  
BRANCH   3   4
HETATM    4  C   UNL     1     -12.709  14.008  65.572  1.00  0.00    -0.486 C  
BRANCH   4   5
HETATM    5  O   UNL     1     -11.785  14.461  66.567  1.00  0.00    -0.370 OA 
BRANCH   5   6
HETATM    6  C   UNL     1     -11.048  13.435  67.119  1.00  0.00    -0.286 A  
HETATM    7  C   UNL     1      -9.653  13.423  67.163  1.00  0.00    -0.241 A  
HETATM    8  C   UNL     1      -8.963  12.354  67.707  1.00  0.00    -0.182 A  
HETATM    9  C   UNL     1      -9.641  11.257  68.230  1.00  0.00    -0.193 A  
HETATM   10  C   UNL     1     -11.742  12.351  67.658  1.00  0.00    -0.412 A  
HETATM   11  C   UNL     1     -11.037  11.265  68.212  1.00  0.00    -0.297 A  
BRANCH   9  12
HETATM   12  O   UNL     1      -9.010  10.155  68.765  1.00  0.00    -0.132 OA 
BRANCH  12  13
HETATM   13  C   UNL     1      -9.606   8.905  68.381  1.00  0.00    -0.146 C  
BRANCH  13  14
HETATM   14  C   UNL     1      -9.424   7.856  69.469  1.00  0.00    -0.160 C  
BRANCH  14  15
HETATM   15  C   UNL     1     -10.774   7.284  69.942  1.00  0.00    -0.242 C  
BRANCH  15  16
HETATM   16  N   UNL     1     -11.023   7.409  71.389  1.00  0.00    -0.234 NA 
HETATM   17  C   UNL     1     -11.061   8.808  71.871  1.00  0.00    -0.364 C  
HETATM   18  C   UNL     1     -12.346   9.563  71.497  1.00  0.00    -0.380 C  
HETATM   19  O   UNL     1     -13.503   8.881  71.992  1.00  0.00    -0.373 OA 
HETATM   20  C   UNL     1     -13.564   7.549  71.469  1.00  0.00    -0.363 C  
HETATM   21  C   UNL     1     -12.287   6.750  71.794  1.00  0.00    -0.356 C  
ENDBRANCH  15  16
ENDBRANCH  14  15
ENDBRANCH  13  14
ENDBRANCH  12  13
ENDBRANCH   9  12
ENDBRANCH   5   6
ENDBRANCH   4   5
ENDBRANCH   3   4
ENDBRANCH   2   3
TORSDOF 9
ENDMDL
MODEL       46
REMARK 921   NORMALIZED FREE ENERGY PREDICTED BY IDOCK:   -4.72 KCAL/MOL
REMARK 922        TOTAL FREE ENERGY PREDICTED BY IDOCK:   -8.04 KCAL/MOL
REMARK 923 INTER-LIGAND FREE ENERGY PREDICTED BY IDOCK:   -7.41 KCAL/MOL
REMARK 924 INTRA-LIGAND FREE ENERGY PREDICTED BY IDOCK:   -0.63 KCAL/MOL
REMARK 927      BINDING AFFINITY PREDICTED BY RF-SCORE:    0.00 PKD
ROOT
HETATM    1  C   UNL     1     -10.604   5.435  66.678  1.00  0.00    -0.359 C  
HETATM    2  C   UNL     1     -10.675   6.572  67.675  1.00  0.00    -0.381 C  
ENDROOT
BRANCH   2   3
HETATM    3  C   UNL     1     -11.168   6.103  69.048  1.00  0.00    -0.375 C  
BRANCH   3   4
HETATM    4  C   UNL     1     -10.598   7.033  70.104  1.00  0.00    -0.228 C  
BRANCH   4   5
HETATM    5  O   UNL     1     -11.557   7.402  71.101  1.00  0.00    -0.271 OA 
BRANCH   5   6
HETATM    6  C   UNL     1     -11.820   8.755  71.114  1.00  0.00    -0.295 A  
HETATM    7  C   UNL     1     -12.813   9.341  71.901  1.00  0.00    -0.485 A  
HETATM    8  C   UNL     1     -13.052  10.704  71.855  1.00  0.00    -0.563 A  
HETATM    9  C   UNL     1     -12.305  11.533  71.023  1.00  0.00    -0.329 A  
HETATM   10  C   UNL     1     -11.050   9.577  70.290  1.00  0.00    -0.317 A  
HETATM   11  C   UNL     1     -11.295  10.963  70.247  1.00  0.00    -0.342 A  
BRANCH   9  12
HETATM   12  O   UNL     1     -12.510  12.891  70.919  1.00  0.00    -0.367 OA 
BRANCH  12  13
HETATM   13  C   UNL     1     -11.842  13.491  69.797  1.00  0.00    -0.329 C  
BRANCH  13  14
HETATM   14  C   UNL     1     -11.878  15.010  69.887  1.00  0.00    -0.362 C  
BRANCH  14  15
HETATM   15  C   UNL     1     -11.736  15.669  68.502  1.00  0.00    -0.327 C  
BRANCH  15  16
HETATM   16  N   UNL     1     -10.352  15.765  68.005  1.00  0.00    -0.246 NA 
HETATM   17  C   UNL     1     -10.097  14.963  66.787  1.00  0.00    -0.251 C  
HETATM   18  C   UNL     1     -10.692  15.566  65.505  1.00  0.00    -0.381 C  
HETATM   19  O   UNL     1     -10.199  16.892  65.286  1.00  0.00    -0.607 OA 
HETATM   20  C   UNL     1     -10.514  17.736  66.401  1.00  0.00    -0.297 C  
HETATM   21  C   UNL     1      -9.961  17.166  67.721  1.00  0.00    -0.290 C  
ENDBRANCH  15  16
ENDBRANCH  14  15
ENDBRANCH  13  14
ENDBRANCH  12  13
ENDBRANCH   9  12
ENDBRANCH   5   6
ENDBRANCH   4   5
ENDBRANCH   3   4
ENDBRANCH   2   3
TORSDOF 9
ENDMDL
MODEL       47
REMARK 921   NORMALIZED FREE ENERGY PREDICTED BY IDOCK:   -4.72 KCAL/MOL
REMARK 922        TOTAL FREE ENERGY PREDICTED BY IDOCK:   -8.04 KCAL/MOL
REMARK 923 INTER-LIGAND FREE ENERGY PREDICTED BY IDOCK:   -7.41 KCAL/MOL
REMARK 924 INTRA-LIGAND FREE ENERGY PREDICTED BY IDOCK:   -0.62 KCAL/MOL
REMARK 927      BINDING AFFINITY PREDICTED BY RF-SCORE:    0.00 PKD
ROOT
HETATM    1  C   UNL     1      -9.562  19.450  68.716  1.00  0.00    -0.495 C  
HETATM    2  C   UNL     1      -8.901  20.091  67.514  1.00  0.00    -0.426 C  
ENDROOT
BRANCH   2   3
HETATM    3  C   UNL     1      -9.022  19.219  66.259  1.00  0.00    -0.347 C  
BRANCH   3   4
HETATM    4  C   UNL     1     -10.077  18.158  66.513  1.00  0.00    -0.386 C  
BRANCH   4   5
HETATM    5  O   UNL     1     -10.218  17.237  65.426  1.00  0.00    -0.604 OA 
BRANCH   5   6
HETATM    6  C   UNL     1     -10.620  15.983  65.837  1.00  0.00    -0.328 A  
HETATM    7  C   UNL     1     -10.797  14.907  64.967  1.00  0.00    -0.439 A  
HETATM    8  C   UNL     1     -11.227  13.675  65.430  1.00  0.00    -0.306 A  
HETATM    9  C   UNL     1     -11.494  13.473  66.781  1.00  0.00    -0.346 A  
HETATM   10  C   UNL     1     -10.864  15.790  67.197  1.00  0.00    -0.289 A  
HETATM   11  C   UNL     1     -11.300  14.536  67.665  1.00  0.00    -0.354 A  
BRANCH   9  12
HETATM   12  O   UNL     1     -11.944  12.279  67.299  1.00  0.00    -0.546 OA 
BRANCH  12  13
HETATM   13  C   UNL     1     -11.796  12.174  68.724  1.00  0.00    -0.303 C  
BRANCH  13  14
HETATM   14  C   UNL     1     -10.922  10.986  69.098  1.00  0.00    -0.289 C  
BRANCH  14  15
HETATM   15  C   UNL     1     -11.561  10.134  70.212  1.00  0.00    -0.302 C  
BRANCH  15  16
HETATM   16  N   UNL     1     -11.144   8.722  70.223  1.00  0.00    -0.242 NA 
HETATM   17  C   UNL     1      -9.728   8.519  70.603  1.00  0.00    -0.176 C  
HETATM   18  C   UNL     1      -9.450   8.702  72.103  1.00  0.00    -0.303 C  
HETATM   19  O   UNL     1     -10.261   7.819  72.886  1.00  0.00    -0.261 OA 
HETATM   20  C   UNL     1     -11.651   8.050  72.626  1.00  0.00    -0.387 C  
HETATM   21  C   UNL     1     -11.984   7.902  71.130  1.00  0.00    -0.285 C  
ENDBRANCH  15  16
ENDBRANCH  14  15
ENDBRANCH  13  14
ENDBRANCH  12  13
ENDBRANCH   9  12
ENDBRANCH   5   6
ENDBRANCH   4   5
ENDBRANCH   3   4
ENDBRANCH   2   3
TORSDOF 9
ENDMDL
MODEL       48
REMARK 921   NORMALIZED FREE ENERGY PREDICTED BY IDOCK:   -4.70 KCAL/MOL
REMARK 922        TOTAL FREE ENERGY PREDICTED BY IDOCK:   -8.01 KCAL/MOL
REMARK 923 INTER-LIGAND FREE ENERGY PREDICTED BY IDOCK:   -7.27 KCAL/MOL
REMARK 924 INTRA-LIGAND FREE ENERGY PREDICTED BY IDOCK:   -0.74 KCAL/MOL
REMARK 927      BINDING AFFINITY PREDICTED BY RF-SCORE:    0.00 PKD
ROOT
HETATM    1  C   UNL     1     -12.041  13.993  64.255  1.00  0.00    -0.476 C  
HETATM    2  C   UNL     1     -10.633  14.305  64.718  1.00  0.00    -0.434 C  
ENDROOT
BRANCH   2   3
HETATM    3  C   UNL     1     -10.541  15.677  65.393  1.00  0.00    -0.436 C  
BRANCH   3   4
HETATM    4  C   UNL     1     -10.223  15.467  66.862  1.00  0.00    -0.279 C  
BRANCH   4   5
HETATM    5  O   UNL     1     -11.319  15.792  67.724  1.00  0.00    -0.322 OA 
BRANCH   5   6
HETATM    6  C   UNL     1     -11.622  14.779  68.609  1.00  0.00    -0.319 A  
HETATM    7  C   UNL     1     -11.453  13.425  68.318  1.00  0.00    -0.350 A  
HETATM    8  C   UNL     1     -11.798  12.447  69.235  1.00  0.00    -0.361 A  
HETATM    9  C   UNL     1     -12.323  12.786  70.479  1.00  0.00    -0.275 A  
HETATM   10  C   UNL     1     -12.129  15.135  69.860  1.00  0.00    -0.373 A  
HETATM   11  C   UNL     1     -12.477  14.138  70.790  1.00  0.00    -0.436 A  
BRANCH   9  12
HETATM   12  O   UNL     1     -12.704  11.860  71.424  1.00  0.00    -0.366 OA 
BRANCH  12  13
HETATM   13  C   UNL     1     -12.341  10.510  71.089  1.00  0.00    -0.405 C  
BRANCH  13  14
HETATM   14  C   UNL     1     -13.354   9.518  71.642  1.00  0.00    -0.485 C  
BRANCH  14  15
HETATM   15  C   UNL     1     -12.812   8.076  71.624  1.00  0.00    -0.329 C  
BRANCH  15  16
HETATM   16  N   UNL     1     -11.348   7.968  71.751  1.00  0.00    -0.258 NA 
HETATM   17  C   UNL     1     -10.904   7.259  72.972  1.00  0.00    -0.355 C  
HETATM   18  C   UNL     1     -11.099   5.736  72.917  1.00  0.00    -0.281 C  
HETATM   19  O   UNL     1     -10.416   5.172  71.791  1.00  0.00    -0.213 OA 
HETATM   20  C   UNL     1     -10.888   5.758  70.572  1.00  0.00    -0.278 C  
HETATM   21  C   UNL     1     -10.738   7.291  70.580  1.00  0.00    -0.235 C  
ENDBRANCH  15  16
ENDBRANCH  14  15
ENDBRANCH  13  14
ENDBRANCH  12  13
ENDBRANCH   9  12
ENDBRANCH   5   6
ENDBRANCH   4   5
ENDBRANCH   3   4
ENDBRANCH   2   3
TORSDOF 9
ENDMDL
MODEL       49
REMARK 921   NORMALIZED FREE ENERGY PREDICTED BY IDOCK:   -4.68 KCAL/MOL
REMARK 922        TOTAL FREE ENERGY PREDICTED BY IDOCK:   -7.98 KCAL/MOL
REMARK 923 INTER-LIGAND FREE ENERGY PREDICTED BY IDOCK:   -6.98 KCAL/MOL
REMARK 924 INTRA-LIGAND FREE ENERGY PREDICTED BY IDOCK:   -1.00 KCAL/MOL
REMARK 927      BINDING AFFINITY PREDICTED BY RF-SCORE:    0.00 PKD
ROOT
HETATM    1  C   UNL     1      -7.324  19.966  67.823  1.00  0.00    -0.323 C  
HETATM    2  C   UNL     1      -8.319  18.975  67.258  1.00  0.00    -0.296 C  
ENDROOT
BRANCH   2   3
HETATM    3  C   UNL     1      -9.063  18.216  68.362  1.00  0.00    -0.318 C  
BRANCH   3   4
HETATM    4  C   UNL     1      -9.092  16.743  67.994  1.00  0.00    -0.228 C  
BRANCH   4   5
HETATM    5  O   UNL     1     -10.347  16.118  68.284  1.00  0.00    -0.249 OA 
BRANCH   5   6
HETATM    6  C   UNL     1     -10.902  15.499  67.184  1.00  0.00    -0.316 A  
HETATM    7  C   UNL     1     -11.788  14.424  67.269  1.00  0.00    -0.434 A  
HETATM    8  C   UNL     1     -12.296  13.823  66.130  1.00  0.00    -0.496 A  
HETATM    9  C   UNL     1     -11.940  14.276  64.864  1.00  0.00    -0.425 A  
HETATM   10  C   UNL     1     -10.552  15.976  65.921  1.00  0.00    -0.338 A  
HETATM   11  C   UNL     1     -11.071  15.364  64.765  1.00  0.00    -0.416 A  
BRANCH   9  12
HETATM   12  O   UNL     1     -12.395  13.706  63.695  1.00  0.00    -0.691 OA 
BRANCH  12  13
HETATM   13  C   UNL     1     -12.176  12.288  63.619  1.00  0.00    -0.567 C  
BRANCH  13  14
HETATM   14  C   UNL     1     -10.695  11.969  63.477  1.00  0.00    -0.513 C  
BRANCH  14  15
HETATM   15  C   UNL     1     -10.294  10.734  64.306  1.00  0.00    -0.331 C  
BRANCH  15  16
HETATM   16  N   UNL     1     -10.390  10.913  65.765  1.00  0.00    -0.251 NA 
HETATM   17  C   UNL     1     -10.457   9.643  66.521  1.00  0.00    -0.143 C  
HETATM   18  C   UNL     1      -9.115   8.899  66.614  1.00  0.00    -0.156 C  
HETATM   19  O   UNL     1      -8.110   9.728  67.207  1.00  0.00    -0.115 OA 
HETATM   20  C   UNL     1      -7.937  10.930  66.448  1.00  0.00    -0.157 C  
HETATM   21  C   UNL     1      -9.259  11.708  66.302  1.00  0.00    -0.217 C  
ENDBRANCH  15  16
ENDBRANCH  14  15
ENDBRANCH  13  14
ENDBRANCH  12  13
ENDBRANCH   9  12
ENDBRANCH   5   6
ENDBRANCH   4   5
ENDBRANCH   3   4
ENDBRANCH   2   3
TORSDOF 9
ENDMDL
MODEL       50
REMARK 921   NORMALIZED FREE ENERGY PREDICTED BY IDOCK:   -4.68 KCAL/MOL
REMARK 922        TOTAL FREE ENERGY PREDICTED BY IDOCK:   -7.98 KCAL/MOL
REMARK 923 INTER-LIGAND FREE ENERGY PREDICTED BY IDOCK:   -7.27 KCAL/MOL
REMARK 924 INTRA-LIGAND FREE ENERGY PREDICTED BY IDOCK:   -0.71 KCAL/MOL
REMARK 927      BINDING AFFINITY PREDICTED BY RF-SCORE:    0.00 PKD
ROOT
HETATM    1  C   UNL     1     -10.315  14.799  65.199  1.00  0.00    -0.439 C  
HETATM    2  C   UNL     1      -9.328  15.732  65.869  1.00  0.00    -0.356 C  
ENDROOT
BRANCH   2   3
HETATM    3  C   UNL     1     -10.030  16.859  66.634  1.00  0.00    -0.302 C  
BRANCH   3   4
HETATM    4  C   UNL     1     -10.070  16.486  68.105  1.00  0.00    -0.255 C  
BRANCH   4   5
HETATM    5  O   UNL     1     -11.384  16.568  68.668  1.00  0.00    -0.344 OA 
BRANCH   5   6
HETATM    6  C   UNL     1     -11.739  15.432  69.364  1.00  0.00    -0.351 A  
HETATM    7  C   UNL     1     -11.502  14.138  68.900  1.00  0.00    -0.327 A  
HETATM    8  C   UNL     1     -11.904  13.031  69.629  1.00  0.00    -0.385 A  
HETATM    9  C   UNL     1     -12.555  13.178  70.851  1.00  0.00    -0.295 A  
HETATM   10  C   UNL     1     -12.373  15.594  70.597  1.00  0.00    -0.457 A  
HETATM   11  C   UNL     1     -12.779  14.468  71.336  1.00  0.00    -0.407 A  
BRANCH   9  12
HETATM   12  O   UNL     1     -12.996  12.118  71.611  1.00  0.00    -0.399 OA 
BRANCH  12  13
HETATM   13  C   UNL     1     -12.594  10.835  71.103  1.00  0.00    -0.428 C  
BRANCH  13  14
HETATM   14  C   UNL     1     -13.530   9.737  71.587  1.00  0.00    -0.436 C  
BRANCH  14  15
HETATM   15  C   UNL     1     -12.770   8.627  72.337  1.00  0.00    -0.362 C  
BRANCH  15  16
HETATM   16  N   UNL     1     -11.608   8.080  71.615  1.00  0.00    -0.264 NA 
HETATM   17  C   UNL     1     -10.325   8.247  72.332  1.00  0.00    -0.332 C  
HETATM   18  C   UNL     1     -10.144   7.292  73.522  1.00  0.00    -0.340 C  
HETATM   19  O   UNL     1     -10.256   5.927  73.105  1.00  0.00    -0.178 OA 
HETATM   20  C   UNL     1     -11.530   5.691  72.493  1.00  0.00    -0.279 C  
HETATM   21  C   UNL     1     -11.776   6.640  71.304  1.00  0.00    -0.334 C  
ENDBRANCH  15  16
ENDBRANCH  14  15
ENDBRANCH  13  14
ENDBRANCH  12  13
ENDBRANCH   9  12
ENDBRANCH   5   6
ENDBRANCH   4   5
ENDBRANCH   3   4
ENDBRANCH   2   3
TORSDOF 9
ENDMDL
MODEL       51
REMARK 921   NORMALIZED FREE ENERGY PREDICTED BY IDOCK:   -4.68 KCAL/MOL
REMARK 922        TOTAL FREE ENERGY PREDICTED BY IDOCK:   -7.98 KCAL/MOL
REMARK 923 INTER-LIGAND FREE ENERGY PREDICTED BY IDOCK:   -7.19 KCAL/MOL
REMARK 924 INTRA-LIGAND FREE ENERGY PREDICTED BY IDOCK:   -0.79 KCAL/MOL
REMARK 927      BINDING AFFINITY PREDICTED BY RF-SCORE:    0.00 PKD
ROOT
HETATM    1  C   UNL     1      -7.829  19.432  66.033  1.00  0.00    -0.294 C  
HETATM    2  C   UNL     1      -9.098  19.990  66.642  1.00  0.00    -0.463 C  
ENDROOT
BRANCH   2   3
HETATM    3  C   UNL     1     -10.328  19.699  65.776  1.00  0.00    -0.506 C  
BRANCH   3   4
HETATM    4  C   UNL     1     -10.730  18.250  65.987  1.00  0.00    -0.168 C  
BRANCH   4   5
HETATM    5  O   UNL     1     -10.993  17.558  64.762  1.00  0.00    -0.950 OA 
BRANCH   5   6
HETATM    6  C   UNL     1     -10.959  16.187  64.905  1.00  0.00    -0.349 A  
HETATM    7  C   UNL     1     -11.960  15.337  64.435  1.00  0.00    -0.285 A  
HETATM    8  C   UNL     1     -11.887  13.968  64.630  1.00  0.00    -0.433 A  
HETATM    9  C   UNL     1     -10.808  13.398  65.299  1.00  0.00    -0.309 A  
HETATM   10  C   UNL     1      -9.861  15.627  65.560  1.00  0.00    -0.326 A  
HETATM   11  C   UNL     1      -9.789  14.235  65.755  1.00  0.00    -0.314 A  
BRANCH   9  12
HETATM   12  O   UNL     1     -10.689  12.047  65.541  1.00  0.00    -0.259 OA 
BRANCH  12  13
HETATM   13  C   UNL     1     -11.373  11.610  66.726  1.00  0.00    -0.286 C  
BRANCH  13  14
HETATM   14  C   UNL     1     -10.428  11.562  67.918  1.00  0.00    -0.211 C  
BRANCH  14  15
HETATM   15  C   UNL     1     -10.559  12.817  68.802  1.00  0.00    -0.189 C  
BRANCH  15  16
HETATM   16  N   UNL     1     -11.933  13.329  68.945  1.00  0.00    -0.319 NA 
HETATM   17  C   UNL     1     -12.397  13.412  70.348  1.00  0.00    -0.312 C  
HETATM   18  C   UNL     1     -11.787  14.580  71.140  1.00  0.00    -0.292 C  
HETATM   19  O   UNL     1     -12.057  15.831  70.498  1.00  0.00    -0.371 OA 
HETATM   20  C   UNL     1     -11.533  15.834  69.164  1.00  0.00    -0.380 C  
HETATM   21  C   UNL     1     -12.093  14.667  68.328  1.00  0.00    -0.179 C  
ENDBRANCH  15  16
ENDBRANCH  14  15
ENDBRANCH  13  14
ENDBRANCH  12  13
ENDBRANCH   9  12
ENDBRANCH   5   6
ENDBRANCH   4   5
ENDBRANCH   3   4
ENDBRANCH   2   3
TORSDOF 9
ENDMDL
MODEL       52
REMARK 921   NORMALIZED FREE ENERGY PREDICTED BY IDOCK:   -4.65 KCAL/MOL
REMARK 922        TOTAL FREE ENERGY PREDICTED BY IDOCK:   -7.94 KCAL/MOL
REMARK 923 INTER-LIGAND FREE ENERGY PREDICTED BY IDOCK:   -7.12 KCAL/MOL
REMARK 924 INTRA-LIGAND FREE ENERGY PREDICTED BY IDOCK:   -0.82 KCAL/MOL
REMARK 927      BINDING AFFINITY PREDICTED BY RF-SCORE:    0.00 PKD
ROOT
HETATM    1  C   UNL     1     -11.048   5.984  69.454  1.00  0.00    -0.445 C  
HETATM    2  C   UNL     1     -10.282   5.422  70.633  1.00  0.00    -0.323 C  
ENDROOT
BRANCH   2   3
HETATM    3  C   UNL     1     -10.928   5.799  71.970  1.00  0.00    -0.317 C  
BRANCH   3   4
HETATM    4  C   UNL     1     -10.573   7.241  72.284  1.00  0.00    -0.224 C  
BRANCH   4   5
HETATM    5  O   UNL     1     -11.717   8.047  72.584  1.00  0.00    -0.388 OA 
BRANCH   5   6
HETATM    6  C   UNL     1     -11.785   9.187  71.811  1.00  0.00    -0.386 A  
HETATM    7  C   UNL     1     -12.791  10.146  71.937  1.00  0.00    -0.526 A  
HETATM    8  C   UNL     1     -12.825  11.260  71.116  1.00  0.00    -0.452 A  
HETATM    9  C   UNL     1     -11.854  11.458  70.139  1.00  0.00    -0.355 A  
HETATM   10  C   UNL     1     -10.793   9.383  70.849  1.00  0.00    -0.392 A  
HETATM   11  C   UNL     1     -10.830  10.517  70.017  1.00  0.00    -0.320 A  
BRANCH   9  12
HETATM   12  O   UNL     1     -11.846  12.534  69.280  1.00  0.00    -0.304 OA 
BRANCH  12  13
HETATM   13  C   UNL     1     -11.749  12.166  67.894  1.00  0.00    -0.336 C  
BRANCH  13  14
HETATM   14  C   UNL     1     -11.296  13.345  67.045  1.00  0.00    -0.346 C  
BRANCH  14  15
HETATM   15  C   UNL     1     -11.069  14.609  67.897  1.00  0.00    -0.291 C  
BRANCH  15  16
HETATM   16  N   UNL     1     -10.945  15.858  67.125  1.00  0.00    -0.267 NA 
HETATM   17  C   UNL     1     -10.598  17.038  67.948  1.00  0.00    -0.365 C  
HETATM   18  C   UNL     1      -9.131  17.073  68.405  1.00  0.00    -0.256 C  
HETATM   19  O   UNL     1      -8.244  17.027  67.282  1.00  0.00    -0.179 OA 
HETATM   20  C   UNL     1      -8.474  15.843  66.508  1.00  0.00    -0.313 C  
HETATM   21  C   UNL     1      -9.939  15.743  66.041  1.00  0.00    -0.332 C  
ENDBRANCH  15  16
ENDBRANCH  14  15
ENDBRANCH  13  14
ENDBRANCH  12  13
ENDBRANCH   9  12
ENDBRANCH   5   6
ENDBRANCH   4   5
ENDBRANCH   3   4
ENDBRANCH   2   3
TORSDOF 9
ENDMDL
MODEL       53
REMARK 921   NORMALIZED FREE ENERGY PREDICTED BY IDOCK:   -4.65 KCAL/MOL
REMARK 922        TOTAL FREE ENERGY PREDICTED BY IDOCK:   -7.94 KCAL/MOL
REMARK 923 INTER-LIGAND FREE ENERGY PREDICTED BY IDOCK:   -7.18 KCAL/MOL
REMARK 924 INTRA-LIGAND FREE ENERGY PREDICTED BY IDOCK:   -0.75 KCAL/MOL
REMARK 927      BINDING AFFINITY PREDICTED BY RF-SCORE:    0.00 PKD
ROOT
HETATM    1  C   UNL     1     -10.931   5.877  71.169  1.00  0.00    -0.327 C  
HETATM    2  C   UNL     1     -12.081   6.734  70.685  1.00  0.00    -0.371 C  
ENDROOT
BRANCH   2   3
HETATM    3  C   UNL     1     -12.658   7.608  71.804  1.00  0.00    -0.359 C  
BRANCH   3   4
HETATM    4  C   UNL     1     -12.019   8.982  71.717  1.00  0.00    -0.368 C  
BRANCH   4   5
HETATM    5  O   UNL     1     -12.911  10.039  72.088  1.00  0.00    -0.389 OA 
BRANCH   5   6
HETATM    6  C   UNL     1     -12.688  11.200  71.380  1.00  0.00    -0.418 A  
HETATM    7  C   UNL     1     -11.977  11.247  70.180  1.00  0.00    -0.452 A  
HETATM    8  C   UNL     1     -11.761  12.447  69.523  1.00  0.00    -0.388 A  
HETATM    9  C   UNL     1     -12.249  13.643  70.039  1.00  0.00    -0.329 A  
HETATM   10  C   UNL     1     -13.200  12.390  71.900  1.00  0.00    -0.486 A  
HETATM   11  C   UNL     1     -12.979  13.607  71.228  1.00  0.00    -0.399 A  
BRANCH   9  12
HETATM   12  O   UNL     1     -12.048  14.869  69.443  1.00  0.00    -0.298 OA 
BRANCH  12  13
HETATM   13  C   UNL     1     -11.351  15.809  70.276  1.00  0.00    -0.361 C  
BRANCH  13  14
HETATM   14  C   UNL     1     -10.431  16.695  69.449  1.00  0.00    -0.320 C  
BRANCH  14  15
HETATM   15  C   UNL     1     -10.883  16.774  67.979  1.00  0.00    -0.341 C  
BRANCH  15  16
HETATM   16  N   UNL     1      -9.817  16.531  66.992  1.00  0.00    -0.250 NA 
HETATM   17  C   UNL     1      -8.715  15.683  67.499  1.00  0.00    -0.177 C  
HETATM   18  C   UNL     1      -9.073  14.192  67.607  1.00  0.00    -0.194 C  
HETATM   19  O   UNL     1      -9.500  13.674  66.342  1.00  0.00    -0.273 OA 
HETATM   20  C   UNL     1     -10.634  14.403  65.858  1.00  0.00    -0.307 C  
HETATM   21  C   UNL     1     -10.340  15.911  65.751  1.00  0.00    -0.376 C  
ENDBRANCH  15  16
ENDBRANCH  14  15
ENDBRANCH  13  14
ENDBRANCH  12  13
ENDBRANCH   9  12
ENDBRANCH   5   6
ENDBRANCH   4   5
ENDBRANCH   3   4
ENDBRANCH   2   3
TORSDOF 9
ENDMDL
MODEL       54
REMARK 921   NORMALIZED FREE ENERGY PREDICTED BY IDOCK:   -4.65 KCAL/MOL
REMARK 922        TOTAL FREE ENERGY PREDICTED BY IDOCK:   -7.93 KCAL/MOL
REMARK 923 INTER-LIGAND FREE ENERGY PREDICTED BY IDOCK:   -6.90 KCAL/MOL
REMARK 924 INTRA-LIGAND FREE ENERGY PREDICTED BY IDOCK:   -1.03 KCAL/MOL
REMARK 927      BINDING AFFINITY PREDICTED BY RF-SCORE:    0.00 PKD
ROOT
HETATM    1  C   UNL     1     -13.978  13.942  72.311  1.00  0.00    -0.663 C  
HETATM    2  C   UNL     1     -12.881  14.693  73.037  1.00  0.00    -0.572 C  
ENDROOT
BRANCH   2   3
HETATM    3  C   UNL     1     -12.248  15.777  72.158  1.00  0.00    -0.552 C  
BRANCH   3   4
HETATM    4  C   UNL     1     -12.775  15.615  70.743  1.00  0.00    -0.431 C  
BRANCH   4   5
HETATM    5  O   UNL     1     -11.760  15.773  69.746  1.00  0.00    -0.326 OA 
BRANCH   5   6
HETATM    6  C   UNL     1     -11.682  14.698  68.887  1.00  0.00    -0.309 A  
HETATM    7  C   UNL     1     -11.527  14.822  67.506  1.00  0.00    -0.369 A  
HETATM    8  C   UNL     1     -11.480  13.707  66.687  1.00  0.00    -0.365 A  
HETATM    9  C   UNL     1     -11.583  12.425  67.219  1.00  0.00    -0.365 A  
HETATM   10  C   UNL     1     -11.766  13.418  69.437  1.00  0.00    -0.382 A  
HETATM   11  C   UNL     1     -11.717  12.286  68.602  1.00  0.00    -0.377 A  
BRANCH   9  12
HETATM   12  O   UNL     1     -11.564  11.279  66.455  1.00  0.00    -0.344 OA 
BRANCH  12  13
HETATM   13  C   UNL     1     -10.537  11.272  65.450  1.00  0.00    -0.250 C  
BRANCH  13  14
HETATM   14  C   UNL     1      -9.642  10.049  65.592  1.00  0.00    -0.313 C  
BRANCH  14  15
HETATM   15  C   UNL     1     -10.251   9.002  66.543  1.00  0.00    -0.248 C  
BRANCH  15  16
HETATM   16  N   UNL     1      -9.291   8.383  67.474  1.00  0.00    -0.145 NA 
HETATM   17  C   UNL     1      -8.215   9.296  67.918  1.00  0.00    -0.115 C  
HETATM   18  C   UNL     1      -8.668  10.344  68.946  1.00  0.00    -0.157 C  
HETATM   19  O   UNL     1      -9.236   9.717  70.101  1.00  0.00    -0.226 OA 
HETATM   20  C   UNL     1     -10.352   8.898  69.731  1.00  0.00    -0.207 C  
HETATM   21  C   UNL     1      -9.960   7.841  68.681  1.00  0.00    -0.182 C  
ENDBRANCH  15  16
ENDBRANCH  14  15
ENDBRANCH  13  14
ENDBRANCH  12  13
ENDBRANCH   9  12
ENDBRANCH   5   6
ENDBRANCH   4   5
ENDBRANCH   3   4
ENDBRANCH   2   3
TORSDOF 9
ENDMDL
MODEL       55
REMARK 921   NORMALIZED FREE ENERGY PREDICTED BY IDOCK:   -4.64 KCAL/MOL
REMARK 922        TOTAL FREE ENERGY PREDICTED BY IDOCK:   -7.92 KCAL/MOL
REMARK 923 INTER-LIGAND FREE ENERGY PREDICTED BY IDOCK:   -7.15 KCAL/MOL
REMARK 924 INTRA-LIGAND FREE ENERGY PREDICTED BY IDOCK:   -0.77 KCAL/MOL
REMARK 927      BINDING AFFINITY PREDICTED BY RF-SCORE:    0.00 PKD
ROOT
HETATM    1  C   UNL     1     -10.129   8.987  66.724  1.00  0.00    -0.344 C  
HETATM    2  C   UNL     1     -10.704  10.387  66.738  1.00  0.00    -0.235 C  
ENDROOT
BRANCH   2   3
HETATM    3  C   UNL     1     -10.440  11.103  68.067  1.00  0.00    -0.217 C  
BRANCH   3   4
HETATM    4  C   UNL     1     -11.487  12.187  68.244  1.00  0.00    -0.305 C  
BRANCH   4   5
HETATM    5  O   UNL     1     -12.085  12.596  67.009  1.00  0.00    -0.480 OA 
BRANCH   5   6
HETATM    6  C   UNL     1     -11.624  13.819  66.571  1.00  0.00    -0.365 A  
HETATM    7  C   UNL     1     -11.519  14.166  65.224  1.00  0.00    -0.330 A  
HETATM    8  C   UNL     1     -11.024  15.401  64.839  1.00  0.00    -0.453 A  
HETATM    9  C   UNL     1     -10.618  16.335  65.787  1.00  0.00    -0.324 A  
HETATM   10  C   UNL     1     -11.239  14.754  67.533  1.00  0.00    -0.339 A  
HETATM   11  C   UNL     1     -10.737  16.008  67.139  1.00  0.00    -0.283 A  
BRANCH   9  12
HETATM   12  O   UNL     1     -10.098  17.570  65.467  1.00  0.00    -0.576 OA 
BRANCH  12  13
HETATM   13  C   UNL     1     -10.520  18.622  66.350  1.00  0.00    -0.418 C  
BRANCH  13  14
HETATM   14  C   UNL     1      -9.623  19.843  66.214  1.00  0.00    -0.526 C  
BRANCH  14  15
HETATM   15  C   UNL     1      -8.758  20.060  67.471  1.00  0.00    -0.344 C  
BRANCH  15  16
HETATM   16  N   UNL     1      -7.324  19.776  67.289  1.00  0.00    -0.241 NA 
HETATM   17  C   UNL     1      -6.447  20.487  68.246  1.00  0.00    -0.303 C  
HETATM   18  C   UNL     1      -6.470  19.905  69.668  1.00  0.00    -0.353 C  
HETATM   19  O   UNL     1      -6.106  18.520  69.661  1.00  0.00    -0.260 OA 
HETATM   20  C   UNL     1      -6.995  17.771  68.824  1.00  0.00    -0.257 C  
HETATM   21  C   UNL     1      -7.030  18.326  67.387  1.00  0.00    -0.198 C  
ENDBRANCH  15  16
ENDBRANCH  14  15
ENDBRANCH  13  14
ENDBRANCH  12  13
ENDBRANCH   9  12
ENDBRANCH   5   6
ENDBRANCH   4   5
ENDBRANCH   3   4
ENDBRANCH   2   3
TORSDOF 9
ENDMDL
MODEL       56
REMARK 921   NORMALIZED FREE ENERGY PREDICTED BY IDOCK:   -4.60 KCAL/MOL
REMARK 922        TOTAL FREE ENERGY PREDICTED BY IDOCK:   -7.86 KCAL/MOL
REMARK 923 INTER-LIGAND FREE ENERGY PREDICTED BY IDOCK:   -7.21 KCAL/MOL
REMARK 924 INTRA-LIGAND FREE ENERGY PREDICTED BY IDOCK:   -0.65 KCAL/MOL
REMARK 927      BINDING AFFINITY PREDICTED BY RF-SCORE:    0.00 PKD
ROOT
HETATM    1  C   UNL     1      -9.778  15.298  66.876  1.00  0.00    -0.243 C  
HETATM    2  C   UNL     1     -10.079  16.755  67.157  1.00  0.00    -0.282 C  
ENDROOT
BRANCH   2   3
HETATM    3  C   UNL     1     -10.668  16.961  68.556  1.00  0.00    -0.359 C  
BRANCH   3   4
HETATM    4  C   UNL     1     -11.623  15.818  68.847  1.00  0.00    -0.394 C  
BRANCH   4   5
HETATM    5  O   UNL     1     -12.245  15.920  70.133  1.00  0.00    -0.342 OA 
BRANCH   5   6
HETATM    6  C   UNL     1     -12.572  14.692  70.667  1.00  0.00    -0.357 A  
HETATM    7  C   UNL     1     -13.434  14.527  71.752  1.00  0.00    -0.458 A  
HETATM    8  C   UNL     1     -13.707  13.271  72.266  1.00  0.00    -0.686 A  
HETATM    9  C   UNL     1     -13.131  12.132  71.712  1.00  0.00    -0.352 A  
HETATM   10  C   UNL     1     -12.002  13.556  70.089  1.00  0.00    -0.399 A  
HETATM   11  C   UNL     1     -12.283  12.280  70.613  1.00  0.00    -0.378 A  
BRANCH   9  12
HETATM   12  O   UNL     1     -13.347  10.859  72.191  1.00  0.00    -0.443 OA 
BRANCH  12  13
HETATM   13  C   UNL     1     -12.598   9.846  71.500  1.00  0.00    -0.416 C  
BRANCH  13  14
HETATM   14  C   UNL     1     -12.363   8.635  72.392  1.00  0.00    -0.426 C  
BRANCH  14  15
HETATM   15  C   UNL     1     -10.879   8.222  72.416  1.00  0.00    -0.351 C  
BRANCH  15  16
HETATM   16  N   UNL     1     -10.639   6.776  72.268  1.00  0.00    -0.209 NA 
HETATM   17  C   UNL     1     -11.533   6.118  71.289  1.00  0.00    -0.247 C  
HETATM   18  C   UNL     1     -11.179   6.414  69.823  1.00  0.00    -0.419 C  
HETATM   19  O   UNL     1      -9.830   6.031  69.534  1.00  0.00    -0.151 OA 
HETATM   20  C   UNL     1      -8.917   6.724  70.394  1.00  0.00    -0.152 C  
HETATM   21  C   UNL     1      -9.239   6.482  71.881  1.00  0.00    -0.148 C  
ENDBRANCH  15  16
ENDBRANCH  14  15
ENDBRANCH  13  14
ENDBRANCH  12  13
ENDBRANCH   9  12
ENDBRANCH   5   6
ENDBRANCH   4   5
ENDBRANCH   3   4
ENDBRANCH   2   3
TORSDOF 9
ENDMDL
MODEL       57
REMARK 921   NORMALIZED FREE ENERGY PREDICTED BY IDOCK:   -4.58 KCAL/MOL
REMARK 922        TOTAL FREE ENERGY PREDICTED BY IDOCK:   -7.82 KCAL/MOL
REMARK 923 INTER-LIGAND FREE ENERGY PREDICTED BY IDOCK:   -7.33 KCAL/MOL
REMARK 924 INTRA-LIGAND FREE ENERGY PREDICTED BY IDOCK:   -0.49 KCAL/MOL
REMARK 927      BINDING AFFINITY PREDICTED BY RF-SCORE:    0.00 PKD
ROOT
HETATM    1  C   UNL     1     -11.007   6.694  67.358  1.00  0.00    -0.434 C  
HETATM    2  C   UNL     1     -10.121   6.267  68.509  1.00  0.00    -0.182 C  
ENDROOT
BRANCH   2   3
HETATM    3  C   UNL     1     -10.921   5.607  69.637  1.00  0.00    -0.292 C  
BRANCH   3   4
HETATM    4  C   UNL     1     -10.611   6.333  70.933  1.00  0.00    -0.241 C  
BRANCH   4   5
HETATM    5  O   UNL     1     -11.773   6.898  71.551  1.00  0.00    -0.276 OA 
BRANCH   5   6
HETATM    6  C   UNL     1     -11.894   8.252  71.325  1.00  0.00    -0.288 A  
HETATM    7  C   UNL     1     -13.018   8.997  71.683  1.00  0.00    -0.418 A  
HETATM    8  C   UNL     1     -13.097  10.352  71.408  1.00  0.00    -0.512 A  
HETATM    9  C   UNL     1     -12.053  11.013  70.769  1.00  0.00    -0.366 A  
HETATM   10  C   UNL     1     -10.830   8.907  70.701  1.00  0.00    -0.286 A  
HETATM   11  C   UNL     1     -10.913  10.284  70.425  1.00  0.00    -0.365 A  
BRANCH   9  12
HETATM   12  O   UNL     1     -12.081  12.353  70.450  1.00  0.00    -0.359 OA 
BRANCH  12  13
HETATM   13  C   UNL     1     -11.882  12.619  69.052  1.00  0.00    -0.294 C  
BRANCH  13  14
HETATM   14  C   UNL     1     -11.379  14.039  68.832  1.00  0.00    -0.314 C  
BRANCH  14  15
HETATM   15  C   UNL     1     -11.709  14.549  67.417  1.00  0.00    -0.400 C  
BRANCH  15  16
HETATM   16  N   UNL     1     -10.789  14.085  66.364  1.00  0.00    -0.297 NA 
HETATM   17  C   UNL     1     -11.121  12.746  65.826  1.00  0.00    -0.285 C  
HETATM   18  C   UNL     1     -12.338  12.734  64.888  1.00  0.00    -0.490 C  
HETATM   19  O   UNL     1     -12.146  13.630  63.788  1.00  0.00    -0.505 OA 
HETATM   20  C   UNL     1     -11.922  14.964  64.260  1.00  0.00    -0.338 C  
HETATM   21  C   UNL     1     -10.724  15.033  65.226  1.00  0.00    -0.389 C  
ENDBRANCH  15  16
ENDBRANCH  14  15
ENDBRANCH  13  14
ENDBRANCH  12  13
ENDBRANCH   9  12
ENDBRANCH   5   6
ENDBRANCH   4   5
ENDBRANCH   3   4
ENDBRANCH   2   3
TORSDOF 9
ENDMDL
MODEL       58
REMARK 921   NORMALIZED FREE ENERGY PREDICTED BY IDOCK:   -4.57 KCAL/MOL
REMARK 922        TOTAL FREE ENERGY PREDICTED BY IDOCK:   -7.81 KCAL/MOL
REMARK 923 INTER-LIGAND FREE ENERGY PREDICTED BY IDOCK:   -7.21 KCAL/MOL
REMARK 924 INTRA-LIGAND FREE ENERGY PREDICTED BY IDOCK:   -0.60 KCAL/MOL
REMARK 927      BINDING AFFINITY PREDICTED BY RF-SCORE:    0.00 PKD
ROOT
HETATM    1  C   UNL     1     -10.703   5.677  66.662  1.00  0.00    -0.339 C  
HETATM    2  C   UNL     1     -10.962   6.246  68.041  1.00  0.00    -0.418 C  
ENDROOT
BRANCH   2   3
HETATM    3  C   UNL     1     -10.361   5.371  69.146  1.00  0.00    -0.300 C  
BRANCH   3   4
HETATM    4  C   UNL     1     -10.417   6.142  70.452  1.00  0.00    -0.230 C  
BRANCH   4   5
HETATM    5  O   UNL     1     -11.741   6.243  70.987  1.00  0.00    -0.319 OA 
BRANCH   5   6
HETATM    6  C   UNL     1     -12.114   7.544  71.249  1.00  0.00    -0.323 A  
HETATM    7  C   UNL     1     -13.323   7.894  71.851  1.00  0.00    -0.318 A  
HETATM    8  C   UNL     1     -13.658   9.220  72.067  1.00  0.00    -0.519 A  
HETATM    9  C   UNL     1     -12.796  10.245  71.692  1.00  0.00    -0.463 A  
HETATM   10  C   UNL     1     -11.231   8.562  70.885  1.00  0.00    -0.304 A  
HETATM   11  C   UNL     1     -11.574   9.908  71.107  1.00  0.00    -0.468 A  
BRANCH   9  12
HETATM   12  O   UNL     1     -13.082  11.582  71.862  1.00  0.00    -0.481 OA 
BRANCH  12  13
HETATM   13  C   UNL     1     -12.357  12.446  70.971  1.00  0.00    -0.210 C  
BRANCH  13  14
HETATM   14  C   UNL     1     -12.625  13.910  71.290  1.00  0.00    -0.450 C  
BRANCH  14  15
HETATM   15  C   UNL     1     -12.343  14.819  70.079  1.00  0.00    -0.316 C  
BRANCH  15  16
HETATM   16  N   UNL     1     -10.983  14.702  69.523  1.00  0.00    -0.254 NA 
HETATM   17  C   UNL     1     -10.937  14.070  68.185  1.00  0.00    -0.252 C  
HETATM   18  C   UNL     1     -11.416  14.983  67.046  1.00  0.00    -0.284 C  
HETATM   19  O   UNL     1     -10.653  16.194  67.004  1.00  0.00    -0.310 OA 
HETATM   20  C   UNL     1     -10.752  16.894  68.250  1.00  0.00    -0.377 C  
HETATM   21  C   UNL     1     -10.305  16.017  69.435  1.00  0.00    -0.272 C  
ENDBRANCH  15  16
ENDBRANCH  14  15
ENDBRANCH  13  14
ENDBRANCH  12  13
ENDBRANCH   9  12
ENDBRANCH   5   6
ENDBRANCH   4   5
ENDBRANCH   3   4
ENDBRANCH   2   3
TORSDOF 9
ENDMDL
MODEL       59
REMARK 921   NORMALIZED FREE ENERGY PREDICTED BY IDOCK:   -4.57 KCAL/MOL
REMARK 922        TOTAL FREE ENERGY PREDICTED BY IDOCK:   -7.81 KCAL/MOL
REMARK 923 INTER-LIGAND FREE ENERGY PREDICTED BY IDOCK:   -7.13 KCAL/MOL
REMARK 924 INTRA-LIGAND FREE ENERGY PREDICTED BY IDOCK:   -0.68 KCAL/MOL
REMARK 927      BINDING AFFINITY PREDICTED BY RF-SCORE:    0.00 PKD
ROOT
HETATM    1  C   UNL     1     -12.341  15.203  74.304  1.00  0.00    -0.675 C  
HETATM    2  C   UNL     1     -12.532  16.373  73.362  1.00  0.00    -0.531 C  
ENDROOT
BRANCH   2   3
HETATM    3  C   UNL     1     -11.942  16.096  71.975  1.00  0.00    -0.607 C  
BRANCH   3   4
HETATM    4  C   UNL     1     -12.992  15.387  71.140  1.00  0.00    -0.479 C  
BRANCH   4   5
HETATM    5  O   UNL     1     -12.430  14.542  70.131  1.00  0.00    -0.331 OA 
BRANCH   5   6
HETATM    6  C   UNL     1     -12.464  13.207  70.472  1.00  0.00    -0.248 A  
HETATM    7  C   UNL     1     -13.101  12.718  71.612  1.00  0.00    -0.428 A  
HETATM    8  C   UNL     1     -13.082  11.368  71.921  1.00  0.00    -0.505 A  
HETATM    9  C   UNL     1     -12.427  10.456  71.098  1.00  0.00    -0.404 A  
HETATM   10  C   UNL     1     -11.820  12.302  69.627  1.00  0.00    -0.393 A  
HETATM   11  C   UNL     1     -11.804  10.930  69.942  1.00  0.00    -0.427 A  
BRANCH   9  12
HETATM   12  O   UNL     1     -12.356   9.106  71.362  1.00  0.00    -0.308 OA 
BRANCH  12  13
HETATM   13  C   UNL     1     -11.147   8.711  72.030  1.00  0.00    -0.367 C  
BRANCH  13  14
HETATM   14  C   UNL     1     -10.533   7.485  71.372  1.00  0.00    -0.226 C  
BRANCH  14  15
HETATM   15  C   UNL     1     -11.081   6.177  71.975  1.00  0.00    -0.274 C  
BRANCH  15  16
HETATM   16  N   UNL     1     -10.162   5.493  72.900  1.00  0.00    -0.179 NA 
HETATM   17  C   UNL     1     -10.845   4.666  73.920  1.00  0.00    -0.291 C  
HETATM   18  C   UNL     1     -11.417   3.348  73.376  1.00  0.00    -0.020 C  
HETATM   19  O   UNL     1     -10.391   2.558  72.764  1.00  0.00    -0.146 OA 
HETATM   20  C   UNL     1      -9.767   3.283  71.698  1.00  0.00    -0.164 C  
HETATM   21  C   UNL     1      -9.194   4.629  72.182  1.00  0.00    -0.127 C  
ENDBRANCH  15  16
ENDBRANCH  14  15
ENDBRANCH  13  14
ENDBRANCH  12  13
ENDBRANCH   9  12
ENDBRANCH   5   6
ENDBRANCH   4   5
ENDBRANCH   3   4
ENDBRANCH   2   3
TORSDOF 9
ENDMDL
MODEL       60
REMARK 921   NORMALIZED FREE ENERGY PREDICTED BY IDOCK:   -4.56 KCAL/MOL
REMARK 922        TOTAL FREE ENERGY PREDICTED BY IDOCK:   -7.80 KCAL/MOL
REMARK 923 INTER-LIGAND FREE ENERGY PREDICTED BY IDOCK:   -7.14 KCAL/MOL
REMARK 924 INTRA-LIGAND FREE ENERGY PREDICTED BY IDOCK:   -0.66 KCAL/MOL
REMARK 927      BINDING AFFINITY PREDICTED BY RF-SCORE:    0.00 PKD
ROOT
HETATM    1  C   UNL     1     -10.131  19.316  68.370  1.00  0.00    -0.518 C  
HETATM    2  C   UNL     1      -9.801  20.151  67.151  1.00  0.00    -0.586 C  
ENDROOT
BRANCH   2   3
HETATM    3  C   UNL     1     -10.450  19.592  65.880  1.00  0.00    -0.591 C  
BRANCH   3   4
HETATM    4  C   UNL     1     -10.403  18.077  65.944  1.00  0.00    -0.271 C  
BRANCH   4   5
HETATM    5  O   UNL     1     -10.998  17.449  64.803  1.00  0.00    -0.964 OA 
BRANCH   5   6
HETATM    6  C   UNL     1     -10.994  16.073  64.887  1.00  0.00    -0.384 A  
HETATM    7  C   UNL     1     -10.010  15.344  65.557  1.00  0.00    -0.379 A  
HETATM    8  C   UNL     1     -10.041  13.960  65.588  1.00  0.00    -0.332 A  
HETATM    9  C   UNL     1     -11.058  13.253  64.953  1.00  0.00    -0.328 A  
HETATM   10  C   UNL     1     -12.030  15.378  64.263  1.00  0.00    -0.198 A  
HETATM   11  C   UNL     1     -12.059  13.971  64.298  1.00  0.00    -0.476 A  
BRANCH   9  12
HETATM   12  O   UNL     1     -11.131  11.878  64.931  1.00  0.00    -0.303 OA 
BRANCH  12  13
HETATM   13  C   UNL     1     -10.082  11.255  64.171  1.00  0.00    -0.320 C  
BRANCH  13  14
HETATM   14  C   UNL     1      -9.569  10.005  64.870  1.00  0.00    -0.375 C  
BRANCH  14  15
HETATM   15  C   UNL     1      -9.055  10.313  66.289  1.00  0.00    -0.154 C  
BRANCH  15  16
HETATM   16  N   UNL     1     -10.039  10.088  67.363  1.00  0.00    -0.196 NA 
HETATM   17  C   UNL     1     -10.755   8.797  67.258  1.00  0.00    -0.147 C  
HETATM   18  C   UNL     1      -9.909   7.579  67.660  1.00  0.00    -0.161 C  
HETATM   19  O   UNL     1      -9.415   7.717  68.997  1.00  0.00    -0.150 OA 
HETATM   20  C   UNL     1      -8.627   8.907  69.121  1.00  0.00    -0.134 C  
HETATM   21  C   UNL     1      -9.419  10.161  68.707  1.00  0.00    -0.171 C  
ENDBRANCH  15  16
ENDBRANCH  14  15
ENDBRANCH  13  14
ENDBRANCH  12  13
ENDBRANCH   9  12
ENDBRANCH   5   6
ENDBRANCH   4   5
ENDBRANCH   3   4
ENDBRANCH   2   3
TORSDOF 9
ENDMDL
MODEL       61
REMARK 921   NORMALIZED FREE ENERGY PREDICTED BY IDOCK:   -4.55 KCAL/MOL
REMARK 922        TOTAL FREE ENERGY PREDICTED BY IDOCK:   -7.79 KCAL/MOL
REMARK 923 INTER-LIGAND FREE ENERGY PREDICTED BY IDOCK:   -7.23 KCAL/MOL
REMARK 924 INTRA-LIGAND FREE ENERGY PREDICTED BY IDOCK:   -0.56 KCAL/MOL
REMARK 927      BINDING AFFINITY PREDICTED BY RF-SCORE:    0.00 PKD
ROOT
HETATM    1  C   UNL     1     -11.445   6.357  70.785  1.00  0.00    -0.415 C  
HETATM    2  C   UNL     1     -12.608   7.141  71.356  1.00  0.00    -0.432 C  
ENDROOT
BRANCH   2   3
HETATM    3  C   UNL     1     -12.145   8.411  72.077  1.00  0.00    -0.417 C  
BRANCH   3   4
HETATM    4  C   UNL     1     -12.742   9.611  71.365  1.00  0.00    -0.374 C  
BRANCH   4   5
HETATM    5  O   UNL     1     -13.267  10.594  72.264  1.00  0.00    -0.400 OA 
BRANCH   5   6
HETATM    6  C   UNL     1     -13.120  11.882  71.794  1.00  0.00    -0.360 A  
HETATM    7  C   UNL     1     -13.762  12.985  72.356  1.00  0.00    -0.593 A  
HETATM    8  C   UNL     1     -13.600  14.255  71.827  1.00  0.00    -0.479 A  
HETATM    9  C   UNL     1     -12.787  14.467  70.717  1.00  0.00    -0.361 A  
HETATM   10  C   UNL     1     -12.286  12.083  70.694  1.00  0.00    -0.394 A  
HETATM   11  C   UNL     1     -12.122  13.374  70.159  1.00  0.00    -0.415 A  
BRANCH   9  12
HETATM   12  O   UNL     1     -12.602  15.701  70.134  1.00  0.00    -0.367 OA 
BRANCH  12  13
HETATM   13  C   UNL     1     -11.233  16.139  70.128  1.00  0.00    -0.370 C  
BRANCH  13  14
HETATM   14  C   UNL     1     -10.777  16.491  68.720  1.00  0.00    -0.339 C  
BRANCH  14  15
HETATM   15  C   UNL     1      -9.330  17.019  68.703  1.00  0.00    -0.270 C  
BRANCH  15  16
HETATM   16  N   UNL     1      -8.332  16.099  69.274  1.00  0.00    -0.224 NA 
HETATM   17  C   UNL     1      -8.330  14.756  68.650  1.00  0.00    -0.165 C  
HETATM   18  C   UNL     1      -7.694  14.717  67.253  1.00  0.00    -0.169 C  
HETATM   19  O   UNL     1      -6.347  15.202  67.288  1.00  0.00    -0.312 OA 
HETATM   20  C   UNL     1      -6.309  16.543  67.792  1.00  0.00    -0.145 C  
HETATM   21  C   UNL     1      -6.957  16.647  69.186  1.00  0.00    -0.227 C  
ENDBRANCH  15  16
ENDBRANCH  14  15
ENDBRANCH  13  14
ENDBRANCH  12  13
ENDBRANCH   9  12
ENDBRANCH   5   6
ENDBRANCH   4   5
ENDBRANCH   3   4
ENDBRANCH   2   3
TORSDOF 9
ENDMDL
MODEL       62
REMARK 921   NORMALIZED FREE ENERGY PREDICTED BY IDOCK:   -4.55 KCAL/MOL
REMARK 922        TOTAL FREE ENERGY PREDICTED BY IDOCK:   -7.78 KCAL/MOL
REMARK 923 INTER-LIGAND FREE ENERGY PREDICTED BY IDOCK:   -7.09 KCAL/MOL
REMARK 924 INTRA-LIGAND FREE ENERGY PREDICTED BY IDOCK:   -0.68 KCAL/MOL
REMARK 927      BINDING AFFINITY PREDICTED BY RF-SCORE:    0.00 PKD
ROOT
HETATM    1  C   UNL     1     -11.439   6.307  70.052  1.00  0.00    -0.460 C  
HETATM    2  C   UNL     1     -10.394   6.342  68.956  1.00  0.00    -0.251 C  
ENDROOT
BRANCH   2   3
HETATM    3  C   UNL     1     -11.026   6.424  67.562  1.00  0.00    -0.454 C  
BRANCH   3   4
HETATM    4  C   UNL     1     -10.550   7.701  66.895  1.00  0.00    -0.289 C  
BRANCH   4   5
HETATM    5  O   UNL     1     -10.005   8.648  67.820  1.00  0.00    -0.170 OA 
BRANCH   5   6
HETATM    6  C   UNL     1     -10.540   9.910  67.671  1.00  0.00    -0.270 A  
HETATM    7  C   UNL     1     -11.122  10.629  68.716  1.00  0.00    -0.316 A  
HETATM    8  C   UNL     1     -11.669  11.884  68.504  1.00  0.00    -0.388 A  
HETATM    9  C   UNL     1     -11.651  12.467  67.241  1.00  0.00    -0.365 A  
HETATM   10  C   UNL     1     -10.498  10.491  66.403  1.00  0.00    -0.258 A  
HETATM   11  C   UNL     1     -11.053  11.767  66.192  1.00  0.00    -0.358 A  
BRANCH   9  12
HETATM   12  O   UNL     1     -12.196  13.701  66.964  1.00  0.00    -0.389 OA 
BRANCH  12  13
HETATM   13  C   UNL     1     -11.228  14.684  66.562  1.00  0.00    -0.346 C  
BRANCH  13  14
HETATM   14  C   UNL     1     -10.913  15.640  67.703  1.00  0.00    -0.315 C  
BRANCH  14  15
HETATM   15  C   UNL     1      -9.916  16.733  67.275  1.00  0.00    -0.272 C  
BRANCH  15  16
HETATM   16  N   UNL     1      -9.967  17.965  68.082  1.00  0.00    -0.329 NA 
HETATM   17  C   UNL     1      -8.636  18.532  68.393  1.00  0.00    -0.331 C  
HETATM   18  C   UNL     1      -7.963  19.236  67.205  1.00  0.00    -0.264 C  
HETATM   19  O   UNL     1      -8.794  20.283  66.691  1.00  0.00    -0.298 OA 
HETATM   20  C   UNL     1     -10.063  19.761  66.280  1.00  0.00    -0.496 C  
HETATM   21  C   UNL     1     -10.776  19.022  67.428  1.00  0.00    -0.473 C  
ENDBRANCH  15  16
ENDBRANCH  14  15
ENDBRANCH  13  14
ENDBRANCH  12  13
ENDBRANCH   9  12
ENDBRANCH   5   6
ENDBRANCH   4   5
ENDBRANCH   3   4
ENDBRANCH   2   3
TORSDOF 9
ENDMDL
MODEL       63
REMARK 921   NORMALIZED FREE ENERGY PREDICTED BY IDOCK:   -4.53 KCAL/MOL
REMARK 922        TOTAL FREE ENERGY PREDICTED BY IDOCK:   -7.75 KCAL/MOL
REMARK 923 INTER-LIGAND FREE ENERGY PREDICTED BY IDOCK:   -7.15 KCAL/MOL
REMARK 924 INTRA-LIGAND FREE ENERGY PREDICTED BY IDOCK:   -0.60 KCAL/MOL
REMARK 927      BINDING AFFINITY PREDICTED BY RF-SCORE:    0.00 PKD
ROOT
HETATM    1  C   UNL     1     -10.304   5.387  70.589  1.00  0.00    -0.333 C  
HETATM    2  C   UNL     1     -11.378   6.235  69.942  1.00  0.00    -0.504 C  
ENDROOT
BRANCH   2   3
HETATM    3  C   UNL     1     -12.144   7.075  70.970  1.00  0.00    -0.413 C  
BRANCH   3   4
HETATM    4  C   UNL     1     -11.597   8.491  70.934  1.00  0.00    -0.263 C  
BRANCH   4   5
HETATM    5  O   UNL     1     -11.034   8.843  69.666  1.00  0.00    -0.216 OA 
BRANCH   5   6
HETATM    6  C   UNL     1     -11.327  10.137  69.292  1.00  0.00    -0.156 A  
HETATM    7  C   UNL     1     -11.165  10.621  67.994  1.00  0.00    -0.373 A  
HETATM    8  C   UNL     1     -11.450  11.939  67.679  1.00  0.00    -0.387 A  
HETATM    9  C   UNL     1     -11.909  12.822  68.652  1.00  0.00    -0.304 A  
HETATM   10  C   UNL     1     -11.805  11.007  70.274  1.00  0.00    -0.456 A  
HETATM   11  C   UNL     1     -12.095  12.346  69.951  1.00  0.00    -0.317 A  
BRANCH   9  12
HETATM   12  O   UNL     1     -12.189  14.148  68.406  1.00  0.00    -0.314 OA 
BRANCH  12  13
HETATM   13  C   UNL     1     -11.077  14.884  67.871  1.00  0.00    -0.298 C  
BRANCH  13  14
HETATM   14  C   UNL     1     -11.128  16.343  68.302  1.00  0.00    -0.337 C  
BRANCH  14  15
HETATM   15  C   UNL     1      -9.730  16.988  68.304  1.00  0.00    -0.275 C  
BRANCH  15  16
HETATM   16  N   UNL     1      -9.725  18.449  68.495  1.00  0.00    -0.345 NA 
HETATM   17  C   UNL     1      -8.404  19.078  68.273  1.00  0.00    -0.334 C  
HETATM   18  C   UNL     1      -8.003  19.184  66.794  1.00  0.00    -0.269 C  
HETATM   19  O   UNL     1      -8.984  19.914  66.048  1.00  0.00    -0.369 OA 
HETATM   20  C   UNL     1     -10.266  19.282  66.151  1.00  0.00    -0.470 C  
HETATM   21  C   UNL     1     -10.710  19.127  67.618  1.00  0.00    -0.417 C  
ENDBRANCH  15  16
ENDBRANCH  14  15
ENDBRANCH  13  14
ENDBRANCH  12  13
ENDBRANCH   9  12
ENDBRANCH   5   6
ENDBRANCH   4   5
ENDBRANCH   3   4
ENDBRANCH   2   3
TORSDOF 9
ENDMDL
MODEL       64
REMARK 921   NORMALIZED FREE ENERGY PREDICTED BY IDOCK:   -4.51 KCAL/MOL
REMARK 922        TOTAL FREE ENERGY PREDICTED BY IDOCK:   -7.72 KCAL/MOL
REMARK 923 INTER-LIGAND FREE ENERGY PREDICTED BY IDOCK:   -6.67 KCAL/MOL
REMARK 924 INTRA-LIGAND FREE ENERGY PREDICTED BY IDOCK:   -1.05 KCAL/MOL
REMARK 927      BINDING AFFINITY PREDICTED BY RF-SCORE:    0.00 PKD
ROOT
HETATM    1  C   UNL     1     -14.376   7.506  71.302  1.00  0.00    -0.434 C  
HETATM    2  C   UNL     1     -13.165   6.866  71.946  1.00  0.00    -0.218 C  
ENDROOT
BRANCH   2   3
HETATM    3  C   UNL     1     -11.974   6.793  70.985  1.00  0.00    -0.431 C  
BRANCH   3   4
HETATM    4  C   UNL     1     -10.764   7.397  71.674  1.00  0.00    -0.214 C  
BRANCH   4   5
HETATM    5  O   UNL     1     -10.903   8.799  71.924  1.00  0.00    -0.314 OA 
BRANCH   5   6
HETATM    6  C   UNL     1     -10.650   9.569  70.809  1.00  0.00    -0.317 A  
HETATM    7  C   UNL     1     -11.582  10.442  70.246  1.00  0.00    -0.410 A  
HETATM    8  C   UNL     1     -11.283  11.172  69.109  1.00  0.00    -0.328 A  
HETATM    9  C   UNL     1     -10.041  11.060  68.493  1.00  0.00    -0.190 A  
HETATM   10  C   UNL     1      -9.392   9.461  70.213  1.00  0.00    -0.294 A  
HETATM   11  C   UNL     1      -9.092  10.206  69.058  1.00  0.00    -0.176 A  
BRANCH   9  12
HETATM   12  O   UNL     1      -9.692  11.744  67.349  1.00  0.00    -0.177 OA 
BRANCH  12  13
HETATM   13  C   UNL     1      -9.930  11.005  66.139  1.00  0.00    -0.231 C  
BRANCH  13  14
HETATM   14  C   UNL     1     -10.980  11.691  65.277  1.00  0.00    -0.327 C  
BRANCH  14  15
HETATM   15  C   UNL     1     -10.523  13.092  64.826  1.00  0.00    -0.363 C  
BRANCH  15  16
HETATM   16  N   UNL     1     -11.549  14.142  64.947  1.00  0.00    -0.360 NA 
HETATM   17  C   UNL     1     -12.327  14.077  66.204  1.00  0.00    -0.458 C  
HETATM   18  C   UNL     1     -11.558  14.566  67.442  1.00  0.00    -0.385 C  
HETATM   19  O   UNL     1     -11.098  15.910  67.262  1.00  0.00    -0.281 OA 
HETATM   20  C   UNL     1     -10.253  16.002  66.108  1.00  0.00    -0.324 C  
HETATM   21  C   UNL     1     -10.967  15.502  64.838  1.00  0.00    -0.436 C  
ENDBRANCH  15  16
ENDBRANCH  14  15
ENDBRANCH  13  14
ENDBRANCH  12  13
ENDBRANCH   9  12
ENDBRANCH   5   6
ENDBRANCH   4   5
ENDBRANCH   3   4
ENDBRANCH   2   3
TORSDOF 9
ENDMDL
MODEL       65
REMARK 921   NORMALIZED FREE ENERGY PREDICTED BY IDOCK:   -4.50 KCAL/MOL
REMARK 922        TOTAL FREE ENERGY PREDICTED BY IDOCK:   -7.71 KCAL/MOL
REMARK 923 INTER-LIGAND FREE ENERGY PREDICTED BY IDOCK:   -6.79 KCAL/MOL
REMARK 924 INTRA-LIGAND FREE ENERGY PREDICTED BY IDOCK:   -0.92 KCAL/MOL
REMARK 927      BINDING AFFINITY PREDICTED BY RF-SCORE:    0.00 PKD
ROOT
HETATM    1  C   UNL     1     -12.427  15.442  74.518  1.00  0.00    -0.647 C  
HETATM    2  C   UNL     1     -13.065  16.068  73.296  1.00  0.00    -0.658 C  
ENDROOT
BRANCH   2   3
HETATM    3  C   UNL     1     -12.142  16.012  72.074  1.00  0.00    -0.606 C  
BRANCH   3   4
HETATM    4  C   UNL     1     -12.833  15.207  70.988  1.00  0.00    -0.412 C  
BRANCH   4   5
HETATM    5  O   UNL     1     -13.494  14.041  71.489  1.00  0.00    -0.343 OA 
BRANCH   5   6
HETATM    6  C   UNL     1     -12.891  12.869  71.084  1.00  0.00    -0.238 A  
HETATM    7  C   UNL     1     -13.027  11.657  71.761  1.00  0.00    -0.483 A  
HETATM    8  C   UNL     1     -12.377  10.515  71.324  1.00  0.00    -0.502 A  
HETATM    9  C   UNL     1     -11.568  10.543  70.192  1.00  0.00    -0.326 A  
HETATM   10  C   UNL     1     -12.099  12.907  69.935  1.00  0.00    -0.335 A  
HETATM   11  C   UNL     1     -11.440  11.744  69.493  1.00  0.00    -0.363 A  
BRANCH   9  12
HETATM   12  O   UNL     1     -10.880   9.447  69.720  1.00  0.00    -0.229 OA 
BRANCH  12  13
HETATM   13  C   UNL     1     -10.466   9.570  68.349  1.00  0.00    -0.224 C  
BRANCH  13  14
HETATM   14  C   UNL     1     -10.455   8.215  67.657  1.00  0.00    -0.300 C  
BRANCH  14  15
HETATM   15  C   UNL     1     -10.860   7.079  68.617  1.00  0.00    -0.147 C  
BRANCH  15  16
HETATM   16  N   UNL     1      -9.841   6.030  68.794  1.00  0.00    -0.134 NA 
HETATM   17  C   UNL     1      -8.479   6.554  69.040  1.00  0.00    -0.125 C  
HETATM   18  C   UNL     1      -8.271   7.114  70.455  1.00  0.00    -0.125 C  
HETATM   19  O   UNL     1      -8.562   6.124  71.447  1.00  0.00    -0.127 OA 
HETATM   20  C   UNL     1      -9.911   5.659  71.312  1.00  0.00    -0.175 C  
HETATM   21  C   UNL     1     -10.184   5.105  69.900  1.00  0.00    -0.291 C  
ENDBRANCH  15  16
ENDBRANCH  14  15
ENDBRANCH  13  14
ENDBRANCH  12  13
ENDBRANCH   9  12
ENDBRANCH   5   6
ENDBRANCH   4   5
ENDBRANCH   3   4
ENDBRANCH   2   3
TORSDOF 9
ENDMDL
MODEL       66
REMARK 921   NORMALIZED FREE ENERGY PREDICTED BY IDOCK:   -4.50 KCAL/MOL
REMARK 922        TOTAL FREE ENERGY PREDICTED BY IDOCK:   -7.70 KCAL/MOL
REMARK 923 INTER-LIGAND FREE ENERGY PREDICTED BY IDOCK:   -6.95 KCAL/MOL
REMARK 924 INTRA-LIGAND FREE ENERGY PREDICTED BY IDOCK:   -0.75 KCAL/MOL
REMARK 927      BINDING AFFINITY PREDICTED BY RF-SCORE:    0.00 PKD
ROOT
HETATM    1  C   UNL     1     -12.512  12.096  63.505  1.00  0.00    -0.666 C  
HETATM    2  C   UNL     1     -11.029  12.370  63.635  1.00  0.00    -0.525 C  
ENDROOT
BRANCH   2   3
HETATM    3  C   UNL     1     -10.206  11.078  63.664  1.00  0.00    -0.431 C  
BRANCH   3   4
HETATM    4  C   UNL     1      -9.641  10.901  65.062  1.00  0.00    -0.251 C  
BRANCH   4   5
HETATM    5  O   UNL     1     -10.655  10.825  66.071  1.00  0.00    -0.228 OA 
BRANCH   5   6
HETATM    6  C   UNL     1     -10.571  11.849  66.991  1.00  0.00    -0.227 A  
HETATM    7  C   UNL     1     -11.679  12.396  67.638  1.00  0.00    -0.412 A  
HETATM    8  C   UNL     1     -11.540  13.442  68.535  1.00  0.00    -0.368 A  
HETATM    9  C   UNL     1     -10.287  13.977  68.820  1.00  0.00    -0.222 A  
HETATM   10  C   UNL     1      -9.306  12.362  67.282  1.00  0.00    -0.184 A  
HETATM   11  C   UNL     1      -9.168  13.424  68.195  1.00  0.00    -0.215 A  
BRANCH   9  12
HETATM   12  O   UNL     1     -10.087  15.029  69.686  1.00  0.00    -0.199 OA 
BRANCH  12  13
HETATM   13  C   UNL     1     -11.173  15.971  69.712  1.00  0.00    -0.344 C  
BRANCH  13  14
HETATM   14  C   UNL     1     -10.908  17.138  68.773  1.00  0.00    -0.211 C  
BRANCH  14  15
HETATM   15  C   UNL     1      -9.411  17.498  68.717  1.00  0.00    -0.239 C  
BRANCH  15  16
HETATM   16  N   UNL     1      -9.126  18.943  68.678  1.00  0.00    -0.349 NA 
HETATM   17  C   UNL     1      -7.901  19.291  67.924  1.00  0.00    -0.289 C  
HETATM   18  C   UNL     1      -8.057  19.193  66.398  1.00  0.00    -0.308 C  
HETATM   19  O   UNL     1      -9.126  20.027  65.938  1.00  0.00    -0.325 OA 
HETATM   20  C   UNL     1     -10.359  19.658  66.568  1.00  0.00    -0.493 C  
HETATM   21  C   UNL     1     -10.254  19.715  68.104  1.00  0.00    -0.461 C  
ENDBRANCH  15  16
ENDBRANCH  14  15
ENDBRANCH  13  14
ENDBRANCH  12  13
ENDBRANCH   9  12
ENDBRANCH   5   6
ENDBRANCH   4   5
ENDBRANCH   3   4
ENDBRANCH   2   3
TORSDOF 9
ENDMDL
MODEL       67
REMARK 921   NORMALIZED FREE ENERGY PREDICTED BY IDOCK:   -4.49 KCAL/MOL
REMARK 922        TOTAL FREE ENERGY PREDICTED BY IDOCK:   -7.69 KCAL/MOL
REMARK 923 INTER-LIGAND FREE ENERGY PREDICTED BY IDOCK:   -6.59 KCAL/MOL
REMARK 924 INTRA-LIGAND FREE ENERGY PREDICTED BY IDOCK:   -1.10 KCAL/MOL
REMARK 927      BINDING AFFINITY PREDICTED BY RF-SCORE:    0.00 PKD
ROOT
HETATM    1  C   UNL     1     -12.532  12.002  64.203  1.00  0.00    -0.437 C  
HETATM    2  C   UNL     1     -12.051  13.289  63.568  1.00  0.00    -0.550 C  
ENDROOT
BRANCH   2   3
HETATM    3  C   UNL     1     -12.359  14.511  64.440  1.00  0.00    -0.437 C  
BRANCH   3   4
HETATM    4  C   UNL     1     -11.045  15.106  64.913  1.00  0.00    -0.414 C  
BRANCH   4   5
HETATM    5  O   UNL     1     -10.959  15.214  66.338  1.00  0.00    -0.331 OA 
BRANCH   5   6
HETATM    6  C   UNL     1     -10.897  13.987  66.964  1.00  0.00    -0.290 A  
HETATM    7  C   UNL     1      -9.907  13.039  66.707  1.00  0.00    -0.243 A  
HETATM    8  C   UNL     1      -9.909  11.811  67.347  1.00  0.00    -0.189 A  
HETATM    9  C   UNL     1     -10.899  11.487  68.270  1.00  0.00    -0.216 A  
HETATM   10  C   UNL     1     -11.886  13.684  67.902  1.00  0.00    -0.402 A  
HETATM   11  C   UNL     1     -11.884  12.435  68.551  1.00  0.00    -0.352 A  
BRANCH   9  12
HETATM   12  O   UNL     1     -10.966  10.276  68.922  1.00  0.00    -0.219 OA 
BRANCH  12  13
HETATM   13  C   UNL     1     -11.418  10.376  70.282  1.00  0.00    -0.325 C  
BRANCH  13  14
HETATM   14  C   UNL     1     -10.586   9.494  71.202  1.00  0.00    -0.388 C  
BRANCH  14  15
HETATM   15  C   UNL     1     -10.157   8.188  70.507  1.00  0.00    -0.192 C  
BRANCH  15  16
HETATM   16  N   UNL     1     -11.217   7.171  70.398  1.00  0.00    -0.279 NA 
HETATM   17  C   UNL     1     -10.758   5.888  69.819  1.00  0.00    -0.340 C  
HETATM   18  C   UNL     1      -9.918   5.033  70.780  1.00  0.00    -0.221 C  
HETATM   19  O   UNL     1     -10.641   4.755  71.984  1.00  0.00    -0.186 OA 
HETATM   20  C   UNL     1     -11.019   5.973  72.636  1.00  0.00    -0.264 C  
HETATM   21  C   UNL     1     -11.847   6.883  71.709  1.00  0.00    -0.316 C  
ENDBRANCH  15  16
ENDBRANCH  14  15
ENDBRANCH  13  14
ENDBRANCH  12  13
ENDBRANCH   9  12
ENDBRANCH   5   6
ENDBRANCH   4   5
ENDBRANCH   3   4
ENDBRANCH   2   3
TORSDOF 9
ENDMDL
MODEL       68
REMARK 921   NORMALIZED FREE ENERGY PREDICTED BY IDOCK:   -4.48 KCAL/MOL
REMARK 922        TOTAL FREE ENERGY PREDICTED BY IDOCK:   -7.67 KCAL/MOL
REMARK 923 INTER-LIGAND FREE ENERGY PREDICTED BY IDOCK:   -7.29 KCAL/MOL
REMARK 924 INTRA-LIGAND FREE ENERGY PREDICTED BY IDOCK:   -0.37 KCAL/MOL
REMARK 927      BINDING AFFINITY PREDICTED BY RF-SCORE:    0.00 PKD
ROOT
HETATM    1  C   UNL     1      -9.907  20.432  67.689  1.00  0.00    -0.538 C  
HETATM    2  C   UNL     1      -9.389  19.242  66.909  1.00  0.00    -0.371 C  
ENDROOT
BRANCH   2   3
HETATM    3  C   UNL     1     -10.527  18.363  66.380  1.00  0.00    -0.412 C  
BRANCH   3   4
HETATM    4  C   UNL     1     -10.320  16.950  66.895  1.00  0.00    -0.304 C  
BRANCH   4   5
HETATM    5  O   UNL     1     -10.921  16.726  68.175  1.00  0.00    -0.356 OA 
BRANCH   5   6
HETATM    6  C   UNL     1     -11.301  15.415  68.365  1.00  0.00    -0.339 A  
HETATM    7  C   UNL     1     -11.602  14.872  69.614  1.00  0.00    -0.337 A  
HETATM    8  C   UNL     1     -11.954  13.540  69.751  1.00  0.00    -0.405 A  
HETATM    9  C   UNL     1     -12.021  12.702  68.642  1.00  0.00    -0.223 A  
HETATM   10  C   UNL     1     -11.384  14.591  67.241  1.00  0.00    -0.363 A  
HETATM   11  C   UNL     1     -11.743  13.237  67.383  1.00  0.00    -0.419 A  
BRANCH   9  12
HETATM   12  O   UNL     1     -12.344  11.365  68.716  1.00  0.00    -0.480 OA 
BRANCH  12  13
HETATM   13  C   UNL     1     -11.934  10.738  69.942  1.00  0.00    -0.342 C  
BRANCH  13  14
HETATM   14  C   UNL     1     -10.514  10.202  69.834  1.00  0.00    -0.322 C  
BRANCH  14  15
HETATM   15  C   UNL     1     -10.433   8.714  70.225  1.00  0.00    -0.210 C  
BRANCH  15  16
HETATM   16  N   UNL     1     -11.646   8.179  70.869  1.00  0.00    -0.281 NA 
HETATM   17  C   UNL     1     -11.791   6.712  70.746  1.00  0.00    -0.383 C  
HETATM   18  C   UNL     1     -10.849   5.912  71.659  1.00  0.00    -0.263 C  
HETATM   19  O   UNL     1     -11.037   6.273  73.032  1.00  0.00    -0.252 OA 
HETATM   20  C   UNL     1     -10.805   7.675  73.219  1.00  0.00    -0.321 C  
HETATM   21  C   UNL     1     -11.709   8.528  72.309  1.00  0.00    -0.373 C  
ENDBRANCH  15  16
ENDBRANCH  14  15
ENDBRANCH  13  14
ENDBRANCH  12  13
ENDBRANCH   9  12
ENDBRANCH   5   6
ENDBRANCH   4   5
ENDBRANCH   3   4
ENDBRANCH   2   3
TORSDOF 9
ENDMDL
MODEL       69
REMARK 921   NORMALIZED FREE ENERGY PREDICTED BY IDOCK:   -4.47 KCAL/MOL
REMARK 922        TOTAL FREE ENERGY PREDICTED BY IDOCK:   -7.65 KCAL/MOL
REMARK 923 INTER-LIGAND FREE ENERGY PREDICTED BY IDOCK:   -7.09 KCAL/MOL
REMARK 924 INTRA-LIGAND FREE ENERGY PREDICTED BY IDOCK:   -0.56 KCAL/MOL
REMARK 927      BINDING AFFINITY PREDICTED BY RF-SCORE:    0.00 PKD
ROOT
HETATM    1  C   UNL     1     -10.733   3.722  73.255  1.00  0.00    -0.287 C  
HETATM    2  C   UNL     1     -10.707   5.183  73.650  1.00  0.00    -0.345 C  
ENDROOT
BRANCH   2   3
HETATM    3  C   UNL     1     -10.755   6.109  72.430  1.00  0.00    -0.267 C  
BRANCH   3   4
HETATM    4  C   UNL     1     -11.357   7.435  72.859  1.00  0.00    -0.273 C  
BRANCH   4   5
HETATM    5  O   UNL     1     -10.513   8.554  72.569  1.00  0.00    -0.317 OA 
BRANCH   5   6
HETATM    6  C   UNL     1     -10.962   9.301  71.501  1.00  0.00    -0.375 A  
HETATM    7  C   UNL     1     -12.217   9.909  71.458  1.00  0.00    -0.505 A  
HETATM    8  C   UNL     1     -12.628  10.627  70.348  1.00  0.00    -0.395 A  
HETATM    9  C   UNL     1     -11.798  10.766  69.239  1.00  0.00    -0.288 A  
HETATM   10  C   UNL     1     -10.111   9.448  70.404  1.00  0.00    -0.310 A  
HETATM   11  C   UNL     1     -10.531  10.180  69.278  1.00  0.00    -0.246 A  
BRANCH   9  12
HETATM   12  O   UNL     1     -12.158  11.449  68.099  1.00  0.00    -0.623 OA 
BRANCH  12  13
HETATM   13  C   UNL     1     -11.172  12.397  67.658  1.00  0.00    -0.288 C  
BRANCH  13  14
HETATM   14  C   UNL     1     -11.795  13.455  66.758  1.00  0.00    -0.452 C  
BRANCH  14  15
HETATM   15  C   UNL     1     -11.560  14.877  67.301  1.00  0.00    -0.324 C  
BRANCH  15  16
HETATM   16  N   UNL     1     -10.164  15.344  67.222  1.00  0.00    -0.250 NA 
HETATM   17  C   UNL     1      -9.874  16.163  66.024  1.00  0.00    -0.347 C  
HETATM   18  C   UNL     1     -10.438  17.590  66.090  1.00  0.00    -0.288 C  
HETATM   19  O   UNL     1      -9.947  18.283  67.243  1.00  0.00    -0.309 OA 
HETATM   20  C   UNL     1     -10.294  17.576  68.440  1.00  0.00    -0.378 C  
HETATM   21  C   UNL     1      -9.773  16.127  68.419  1.00  0.00    -0.219 C  
ENDBRANCH  15  16
ENDBRANCH  14  15
ENDBRANCH  13  14
ENDBRANCH  12  13
ENDBRANCH   9  12
ENDBRANCH   5   6
ENDBRANCH   4   5
ENDBRANCH   3   4
ENDBRANCH   2   3
TORSDOF 9
ENDMDL
MODEL       70
REMARK 921   NORMALIZED FREE ENERGY PREDICTED BY IDOCK:   -4.46 KCAL/MOL
REMARK 922        TOTAL FREE ENERGY PREDICTED BY IDOCK:   -7.64 KCAL/MOL
REMARK 923 INTER-LIGAND FREE ENERGY PREDICTED BY IDOCK:   -6.93 KCAL/MOL
REMARK 924 INTRA-LIGAND FREE ENERGY PREDICTED BY IDOCK:   -0.71 KCAL/MOL
REMARK 927      BINDING AFFINITY PREDICTED BY RF-SCORE:    0.00 PKD
ROOT
HETATM    1  C   UNL     1     -12.784  11.928  63.512  1.00  0.00    -0.530 C  
HETATM    2  C   UNL     1     -11.720  13.000  63.618  1.00  0.00    -0.550 C  
ENDROOT
BRANCH   2   3
HETATM    3  C   UNL     1     -12.254  14.276  64.277  1.00  0.00    -0.451 C  
BRANCH   3   4
HETATM    4  C   UNL     1     -12.651  13.949  65.705  1.00  0.00    -0.517 C  
BRANCH   4   5
HETATM    5  O   UNL     1     -11.546  13.975  66.614  1.00  0.00    -0.347 OA 
BRANCH   5   6
HETATM    6  C   UNL     1     -11.423  12.810  67.341  1.00  0.00    -0.340 A  
HETATM    7  C   UNL     1     -11.098  11.578  66.774  1.00  0.00    -0.361 A  
HETATM    8  C   UNL     1     -11.014  10.433  67.548  1.00  0.00    -0.358 A  
HETATM    9  C   UNL     1     -11.248  10.479  68.919  1.00  0.00    -0.266 A  
HETATM   10  C   UNL     1     -11.642  12.875  68.718  1.00  0.00    -0.351 A  
HETATM   11  C   UNL     1     -11.554  11.709  69.502  1.00  0.00    -0.397 A  
BRANCH   9  12
HETATM   12  O   UNL     1     -11.200   9.372  69.737  1.00  0.00    -0.211 OA 
BRANCH  12  13
HETATM   13  C   UNL     1     -11.172   9.690  71.139  1.00  0.00    -0.384 C  
BRANCH  13  14
HETATM   14  C   UNL     1     -10.124   8.862  71.867  1.00  0.00    -0.393 C  
BRANCH  14  15
HETATM   15  C   UNL     1     -10.767   7.809  72.789  1.00  0.00    -0.356 C  
BRANCH  15  16
HETATM   16  N   UNL     1      -9.827   6.816  73.339  1.00  0.00    -0.185 NA 
HETATM   17  C   UNL     1     -10.489   5.641  73.950  1.00  0.00    -0.277 C  
HETATM   18  C   UNL     1     -11.072   4.651  72.930  1.00  0.00    -0.191 C  
HETATM   19  O   UNL     1     -10.060   4.186  72.030  1.00  0.00    -0.175 OA 
HETATM   20  C   UNL     1      -9.459   5.286  71.337  1.00  0.00    -0.151 C  
HETATM   21  C   UNL     1      -8.876   6.325  72.313  1.00  0.00    -0.136 C  
ENDBRANCH  15  16
ENDBRANCH  14  15
ENDBRANCH  13  14
ENDBRANCH  12  13
ENDBRANCH   9  12
ENDBRANCH   5   6
ENDBRANCH   4   5
ENDBRANCH   3   4
ENDBRANCH   2   3
TORSDOF 9
ENDMDL
MODEL       71
REMARK 921   NORMALIZED FREE ENERGY PREDICTED BY IDOCK:   -4.44 KCAL/MOL
REMARK 922        TOTAL FREE ENERGY PREDICTED BY IDOCK:   -7.62 KCAL/MOL
REMARK 923 INTER-LIGAND FREE ENERGY PREDICTED BY IDOCK:   -6.81 KCAL/MOL
REMARK 924 INTRA-LIGAND FREE ENERGY PREDICTED BY IDOCK:   -0.81 KCAL/MOL
REMARK 927      BINDING AFFINITY PREDICTED BY RF-SCORE:    0.00 PKD
ROOT
HETATM    1  C   UNL     1     -10.269  19.905  67.860  1.00  0.00    -0.571 C  
HETATM    2  C   UNL     1     -10.525  18.430  67.634  1.00  0.00    -0.445 C  
ENDROOT
BRANCH   2   3
HETATM    3  C   UNL     1     -10.385  18.042  66.158  1.00  0.00    -0.368 C  
BRANCH   3   4
HETATM    4  C   UNL     1      -9.888  16.610  66.084  1.00  0.00    -0.318 C  
BRANCH   4   5
HETATM    5  O   UNL     1     -10.803  15.733  65.418  1.00  0.00    -0.360 OA 
BRANCH   5   6
HETATM    6  C   UNL     1     -11.158  14.647  66.189  1.00  0.00    -0.334 A  
HETATM    7  C   UNL     1     -11.558  14.744  67.522  1.00  0.00    -0.379 A  
HETATM    8  C   UNL     1     -11.879  13.616  68.257  1.00  0.00    -0.404 A  
HETATM    9  C   UNL     1     -11.817  12.348  67.686  1.00  0.00    -0.295 A  
HETATM   10  C   UNL     1     -11.110  13.384  65.597  1.00  0.00    -0.298 A  
HETATM   11  C   UNL     1     -11.439  12.239  66.346  1.00  0.00    -0.434 A  
BRANCH   9  12
HETATM   12  O   UNL     1     -12.104  11.188  68.371  1.00  0.00    -0.605 OA 
BRANCH  12  13
HETATM   13  C   UNL     1     -11.562  11.153  69.701  1.00  0.00    -0.326 C  
BRANCH  13  14
HETATM   14  C   UNL     1     -10.342  10.246  69.771  1.00  0.00    -0.287 C  
BRANCH  14  15
HETATM   15  C   UNL     1     -10.603   8.885  69.099  1.00  0.00    -0.195 C  
BRANCH  15  16
HETATM   16  N   UNL     1      -9.748   8.600  67.933  1.00  0.00    -0.156 NA 
HETATM   17  C   UNL     1      -8.551   7.790  68.252  1.00  0.00    -0.124 C  
HETATM   18  C   UNL     1      -8.851   6.304  68.505  1.00  0.00    -0.114 C  
HETATM   19  O   UNL     1      -9.510   5.715  67.378  1.00  0.00    -0.112 OA 
HETATM   20  C   UNL     1     -10.733   6.406  67.093  1.00  0.00    -0.361 C  
HETATM   21  C   UNL     1     -10.495   7.910  66.854  1.00  0.00    -0.318 C  
ENDBRANCH  15  16
ENDBRANCH  14  15
ENDBRANCH  13  14
ENDBRANCH  12  13
ENDBRANCH   9  12
ENDBRANCH   5   6
ENDBRANCH   4   5
ENDBRANCH   3   4
ENDBRANCH   2   3
TORSDOF 9
ENDMDL
MODEL       72
REMARK 921   NORMALIZED FREE ENERGY PREDICTED BY IDOCK:   -4.44 KCAL/MOL
REMARK 922        TOTAL FREE ENERGY PREDICTED BY IDOCK:   -7.61 KCAL/MOL
REMARK 923 INTER-LIGAND FREE ENERGY PREDICTED BY IDOCK:   -6.65 KCAL/MOL
REMARK 924 INTRA-LIGAND FREE ENERGY PREDICTED BY IDOCK:   -0.96 KCAL/MOL
REMARK 927      BINDING AFFINITY PREDICTED BY RF-SCORE:    0.00 PKD
ROOT
HETATM    1  C   UNL     1     -12.329  13.765  64.013  1.00  0.00    -0.370 C  
HETATM    2  C   UNL     1     -12.366  12.354  63.466  1.00  0.00    -0.648 C  
ENDROOT
BRANCH   2   3
HETATM    3  C   UNL     1     -11.012  11.651  63.597  1.00  0.00    -0.507 C  
BRANCH   3   4
HETATM    4  C   UNL     1     -10.246  12.294  64.739  1.00  0.00    -0.282 C  
BRANCH   4   5
HETATM    5  O   UNL     1      -9.736  11.342  65.679  1.00  0.00    -0.216 OA 
BRANCH   5   6
HETATM    6  C   UNL     1     -10.360  11.416  66.906  1.00  0.00    -0.227 A  
HETATM    7  C   UNL     1     -11.295  12.396  67.239  1.00  0.00    -0.384 A  
HETATM    8  C   UNL     1     -11.872  12.439  68.497  1.00  0.00    -0.352 A  
HETATM    9  C   UNL     1     -11.537  11.500  69.468  1.00  0.00    -0.333 A  
HETATM   10  C   UNL     1     -10.029  10.456  67.864  1.00  0.00    -0.192 A  
HETATM   11  C   UNL     1     -10.618  10.501  69.142  1.00  0.00    -0.258 A  
BRANCH   9  12
HETATM   12  O   UNL     1     -12.060  11.503  70.742  1.00  0.00    -0.364 OA 
BRANCH  12  13
HETATM   13  C   UNL     1     -13.149  10.582  70.922  1.00  0.00    -0.306 C  
BRANCH  13  14
HETATM   14  C   UNL     1     -12.845   9.584  72.029  1.00  0.00    -0.499 C  
BRANCH  14  15
HETATM   15  C   UNL     1     -12.475   8.199  71.463  1.00  0.00    -0.307 C  
BRANCH  15  16
HETATM   16  N   UNL     1     -11.714   7.340  72.387  1.00  0.00    -0.265 NA 
HETATM   17  C   UNL     1     -11.408   5.998  71.842  1.00  0.00    -0.279 C  
HETATM   18  C   UNL     1     -10.294   5.993  70.783  1.00  0.00    -0.224 C  
HETATM   19  O   UNL     1      -9.087   6.556  71.306  1.00  0.00    -0.148 OA 
HETATM   20  C   UNL     1      -9.311   7.898  71.755  1.00  0.00    -0.150 C  
HETATM   21  C   UNL     1     -10.437   7.968  72.805  1.00  0.00    -0.345 C  
ENDBRANCH  15  16
ENDBRANCH  14  15
ENDBRANCH  13  14
ENDBRANCH  12  13
ENDBRANCH   9  12
ENDBRANCH   5   6
ENDBRANCH   4   5
ENDBRANCH   3   4
ENDBRANCH   2   3
TORSDOF 9
ENDMDL
MODEL       73
REMARK 921   NORMALIZED FREE ENERGY PREDICTED BY IDOCK:   -4.43 KCAL/MOL
REMARK 922        TOTAL FREE ENERGY PREDICTED BY IDOCK:   -7.60 KCAL/MOL
REMARK 923 INTER-LIGAND FREE ENERGY PREDICTED BY IDOCK:   -6.82 KCAL/MOL
REMARK 924 INTRA-LIGAND FREE ENERGY PREDICTED BY IDOCK:   -0.78 KCAL/MOL
REMARK 927      BINDING AFFINITY PREDICTED BY RF-SCORE:    0.00 PKD
ROOT
HETATM    1  C   UNL     1     -13.911   8.987  72.043  1.00  0.00    -0.501 C  
HETATM    2  C   UNL     1     -12.513   9.368  71.604  1.00  0.00    -0.460 C  
ENDROOT
BRANCH   2   3
HETATM    3  C   UNL     1     -12.452  10.799  71.060  1.00  0.00    -0.522 C  
BRANCH   3   4
HETATM    4  C   UNL     1     -11.590  10.800  69.810  1.00  0.00    -0.317 C  
BRANCH   4   5
HETATM    5  O   UNL     1     -12.336  11.051  68.615  1.00  0.00    -0.539 OA 
BRANCH   5   6
HETATM    6  C   UNL     1     -11.728  11.970  67.787  1.00  0.00    -0.309 A  
HETATM    7  C   UNL     1     -10.789  11.629  66.813  1.00  0.00    -0.322 A  
HETATM    8  C   UNL     1     -10.189  12.598  66.026  1.00  0.00    -0.287 A  
HETATM    9  C   UNL     1     -10.507  13.943  66.182  1.00  0.00    -0.297 A  
HETATM   10  C   UNL     1     -12.071  13.314  67.942  1.00  0.00    -0.270 A  
HETATM   11  C   UNL     1     -11.460  14.296  67.140  1.00  0.00    -0.377 A  
BRANCH   9  12
HETATM   12  O   UNL     1      -9.930  14.954  65.445  1.00  0.00    -0.349 OA 
BRANCH  12  13
HETATM   13  C   UNL     1     -10.815  16.053  65.179  1.00  0.00    -0.395 C  
BRANCH  13  14
HETATM   14  C   UNL     1     -10.271  17.349  65.763  1.00  0.00    -0.204 C  
BRANCH  14  15
HETATM   15  C   UNL     1      -8.938  17.126  66.502  1.00  0.00    -0.272 C  
BRANCH  15  16
HETATM   16  N   UNL     1      -8.902  17.650  67.879  1.00  0.00    -0.241 NA 
HETATM   17  C   UNL     1      -9.492  16.737  68.883  1.00  0.00    -0.246 C  
HETATM   18  C   UNL     1      -8.606  15.530  69.228  1.00  0.00    -0.263 C  
HETATM   19  O   UNL     1      -7.322  15.955  69.700  1.00  0.00    -0.195 OA 
HETATM   20  C   UNL     1      -6.667  16.763  68.714  1.00  0.00    -0.185 C  
HETATM   21  C   UNL     1      -7.522  17.979  68.312  1.00  0.00    -0.266 C  
ENDBRANCH  15  16
ENDBRANCH  14  15
ENDBRANCH  13  14
ENDBRANCH  12  13
ENDBRANCH   9  12
ENDBRANCH   5   6
ENDBRANCH   4   5
ENDBRANCH   3   4
ENDBRANCH   2   3
TORSDOF 9
ENDMDL
MODEL       74
REMARK 921   NORMALIZED FREE ENERGY PREDICTED BY IDOCK:   -4.42 KCAL/MOL
REMARK 922        TOTAL FREE ENERGY PREDICTED BY IDOCK:   -7.59 KCAL/MOL
REMARK 923 INTER-LIGAND FREE ENERGY PREDICTED BY IDOCK:   -6.89 KCAL/MOL
REMARK 924 INTRA-LIGAND FREE ENERGY PREDICTED BY IDOCK:   -0.69 KCAL/MOL
REMARK 927      BINDING AFFINITY PREDICTED BY RF-SCORE:    0.00 PKD
ROOT
HETATM    1  C   UNL     1      -7.461   3.787  71.707  1.00  0.00    -0.056 C  
HETATM    2  C   UNL     1      -8.199   4.398  72.879  1.00  0.00    -0.095 C  
ENDROOT
BRANCH   2   3
HETATM    3  C   UNL     1      -9.713   4.446  72.643  1.00  0.00    -0.197 C  
BRANCH   3   4
HETATM    4  C   UNL     1     -10.363   5.122  73.836  1.00  0.00    -0.253 C  
BRANCH   4   5
HETATM    5  O   UNL     1      -9.864   6.443  74.073  1.00  0.00    -0.200 OA 
BRANCH   5   6
HETATM    6  C   UNL     1     -10.332   7.363  73.158  1.00  0.00    -0.334 A  
HETATM    7  C   UNL     1     -11.687   7.587  72.913  1.00  0.00    -0.159 A  
HETATM    8  C   UNL     1     -12.101   8.505  71.963  1.00  0.00    -0.428 A  
HETATM    9  C   UNL     1     -11.175   9.236  71.224  1.00  0.00    -0.355 A  
HETATM   10  C   UNL     1      -9.392   8.103  72.438  1.00  0.00    -0.308 A  
HETATM   11  C   UNL     1      -9.816   9.036  71.475  1.00  0.00    -0.381 A  
BRANCH   9  12
HETATM   12  O   UNL     1     -11.524  10.147  70.253  1.00  0.00    -0.265 OA 
BRANCH  12  13
HETATM   13  C   UNL     1     -12.683  10.930  70.584  1.00  0.00    -0.309 C  
BRANCH  13  14
HETATM   14  C   UNL     1     -12.306  12.380  70.850  1.00  0.00    -0.358 C  
BRANCH  14  15
HETATM   15  C   UNL     1     -13.260  13.043  71.861  1.00  0.00    -0.430 C  
BRANCH  15  16
HETATM   16  N   UNL     1     -13.666  14.417  71.516  1.00  0.00    -0.383 NA 
HETATM   17  C   UNL     1     -13.990  15.258  72.690  1.00  0.00    -0.459 C  
HETATM   18  C   UNL     1     -12.760  15.728  73.480  1.00  0.00    -0.575 C  
HETATM   19  O   UNL     1     -11.856  16.453  72.638  1.00  0.00    -0.533 OA 
HETATM   20  C   UNL     1     -11.433  15.639  71.538  1.00  0.00    -0.422 C  
HETATM   21  C   UNL     1     -12.630  15.118  70.720  1.00  0.00    -0.393 C  
ENDBRANCH  15  16
ENDBRANCH  14  15
ENDBRANCH  13  14
ENDBRANCH  12  13
ENDBRANCH   9  12
ENDBRANCH   5   6
ENDBRANCH   4   5
ENDBRANCH   3   4
ENDBRANCH   2   3
TORSDOF 9
ENDMDL
MODEL       75
REMARK 921   NORMALIZED FREE ENERGY PREDICTED BY IDOCK:   -4.41 KCAL/MOL
REMARK 922        TOTAL FREE ENERGY PREDICTED BY IDOCK:   -7.57 KCAL/MOL
REMARK 923 INTER-LIGAND FREE ENERGY PREDICTED BY IDOCK:   -6.63 KCAL/MOL
REMARK 924 INTRA-LIGAND FREE ENERGY PREDICTED BY IDOCK:   -0.94 KCAL/MOL
REMARK 927      BINDING AFFINITY PREDICTED BY RF-SCORE:    0.00 PKD
ROOT
HETATM    1  C   UNL     1     -12.018  12.790  63.378  1.00  0.00    -0.613 C  
HETATM    2  C   UNL     1     -12.134  14.051  64.208  1.00  0.00    -0.476 C  
ENDROOT
BRANCH   2   3
HETATM    3  C   UNL     1     -10.976  14.195  65.200  1.00  0.00    -0.361 C  
BRANCH   3   4
HETATM    4  C   UNL     1     -11.499  13.898  66.594  1.00  0.00    -0.355 C  
BRANCH   4   5
HETATM    5  O   UNL     1     -12.227  12.668  66.669  1.00  0.00    -0.517 OA 
BRANCH   5   6
HETATM    6  C   UNL     1     -11.506  11.654  67.262  1.00  0.00    -0.277 A  
HETATM    7  C   UNL     1     -10.624  10.826  66.567  1.00  0.00    -0.279 A  
HETATM    8  C   UNL     1      -9.944   9.805  67.209  1.00  0.00    -0.242 A  
HETATM    9  C   UNL     1     -10.117   9.576  68.570  1.00  0.00    -0.178 A  
HETATM   10  C   UNL     1     -11.675  11.449  68.632  1.00  0.00    -0.394 A  
HETATM   11  C   UNL     1     -10.981  10.411  69.282  1.00  0.00    -0.287 A  
BRANCH   9  12
HETATM   12  O   UNL     1      -9.486   8.565  69.260  1.00  0.00    -0.157 OA 
BRANCH  12  13
HETATM   13  C   UNL     1      -9.470   7.310  68.559  1.00  0.00    -0.140 C  
BRANCH  13  14
HETATM   14  C   UNL     1     -10.589   6.399  69.043  1.00  0.00    -0.305 C  
BRANCH  14  15
HETATM   15  C   UNL     1     -10.305   5.844  70.452  1.00  0.00    -0.231 C  
BRANCH  15  16
HETATM   16  N   UNL     1     -11.466   5.845  71.359  1.00  0.00    -0.196 NA 
HETATM   17  C   UNL     1     -11.122   5.564  72.771  1.00  0.00    -0.291 C  
HETATM   18  C   UNL     1     -10.447   6.739  73.495  1.00  0.00    -0.330 C  
HETATM   19  O   UNL     1     -11.271   7.910  73.453  1.00  0.00    -0.275 OA 
HETATM   20  C   UNL     1     -11.547   8.281  72.096  1.00  0.00    -0.364 C  
HETATM   21  C   UNL     1     -12.206   7.129  71.313  1.00  0.00    -0.365 C  
ENDBRANCH  15  16
ENDBRANCH  14  15
ENDBRANCH  13  14
ENDBRANCH  12  13
ENDBRANCH   9  12
ENDBRANCH   5   6
ENDBRANCH   4   5
ENDBRANCH   3   4
ENDBRANCH   2   3
TORSDOF 9
ENDMDL
MODEL       76
REMARK 921   NORMALIZED FREE ENERGY PREDICTED BY IDOCK:   -4.40 KCAL/MOL
REMARK 922        TOTAL FREE ENERGY PREDICTED BY IDOCK:   -7.55 KCAL/MOL
REMARK 923 INTER-LIGAND FREE ENERGY PREDICTED BY IDOCK:   -6.90 KCAL/MOL
REMARK 924 INTRA-LIGAND FREE ENERGY PREDICTED BY IDOCK:   -0.65 KCAL/MOL
REMARK 927      BINDING AFFINITY PREDICTED BY RF-SCORE:    0.00 PKD
ROOT
HETATM    1  C   UNL     1      -9.069   5.579  67.938  1.00  0.00    -0.109 C  
HETATM    2  C   UNL     1     -10.312   5.607  67.074  1.00  0.00    -0.306 C  
ENDROOT
BRANCH   2   3
HETATM    3  C   UNL     1     -11.030   6.959  67.145  1.00  0.00    -0.427 C  
BRANCH   3   4
HETATM    4  C   UNL     1     -10.071   8.037  66.674  1.00  0.00    -0.259 C  
BRANCH   4   5
HETATM    5  O   UNL     1      -9.931   9.111  67.610  1.00  0.00    -0.172 OA 
BRANCH   5   6
HETATM    6  C   UNL     1     -10.429  10.304  67.132  1.00  0.00    -0.254 A  
HETATM    7  C   UNL     1     -11.206  11.176  67.896  1.00  0.00    -0.365 A  
HETATM    8  C   UNL     1     -11.703  12.351  67.357  1.00  0.00    -0.417 A  
HETATM    9  C   UNL     1     -11.439  12.699  66.035  1.00  0.00    -0.368 A  
HETATM   10  C   UNL     1     -10.140  10.650  65.812  1.00  0.00    -0.327 A  
HETATM   11  C   UNL     1     -10.646  11.845  65.267  1.00  0.00    -0.320 A  
BRANCH   9  12
HETATM   12  O   UNL     1     -11.922  13.842  65.437  1.00  0.00    -0.343 OA 
BRANCH  12  13
HETATM   13  C   UNL     1     -10.893  14.701  64.918  1.00  0.00    -0.419 C  
BRANCH  13  14
HETATM   14  C   UNL     1     -10.957  16.080  65.558  1.00  0.00    -0.215 C  
BRANCH  14  15
HETATM   15  C   UNL     1      -9.627  16.456  66.239  1.00  0.00    -0.311 C  
BRANCH  15  16
HETATM   16  N   UNL     1      -9.167  17.830  65.974  1.00  0.00    -0.522 NA 
HETATM   17  C   UNL     1     -10.238  18.848  66.066  1.00  0.00    -0.387 C  
HETATM   18  C   UNL     1     -10.666  19.177  67.505  1.00  0.00    -0.458 C  
HETATM   19  O   UNL     1      -9.549  19.621  68.283  1.00  0.00    -0.351 OA 
HETATM   20  C   UNL     1      -8.524  18.620  68.307  1.00  0.00    -0.324 C  
HETATM   21  C   UNL     1      -8.071  18.234  66.887  1.00  0.00    -0.245 C  
ENDBRANCH  15  16
ENDBRANCH  14  15
ENDBRANCH  13  14
ENDBRANCH  12  13
ENDBRANCH   9  12
ENDBRANCH   5   6
ENDBRANCH   4   5
ENDBRANCH   3   4
ENDBRANCH   2   3
TORSDOF 9
ENDMDL
MODEL       77
REMARK 921   NORMALIZED FREE ENERGY PREDICTED BY IDOCK:   -4.38 KCAL/MOL
REMARK 922        TOTAL FREE ENERGY PREDICTED BY IDOCK:   -7.52 KCAL/MOL
REMARK 923 INTER-LIGAND FREE ENERGY PREDICTED BY IDOCK:   -6.65 KCAL/MOL
REMARK 924 INTRA-LIGAND FREE ENERGY PREDICTED BY IDOCK:   -0.87 KCAL/MOL
REMARK 927      BINDING AFFINITY PREDICTED BY RF-SCORE:    0.00 PKD
ROOT
HETATM    1  C   UNL     1     -11.319  12.085  63.212  1.00  0.00    -0.396 C  
HETATM    2  C   UNL     1      -9.971  11.705  63.787  1.00  0.00    -0.378 C  
ENDROOT
BRANCH   2   3
HETATM    3  C   UNL     1     -10.035  10.398  64.585  1.00  0.00    -0.408 C  
BRANCH   3   4
HETATM    4  C   UNL     1      -9.601  10.686  66.011  1.00  0.00    -0.198 C  
BRANCH   4   5
HETATM    5  O   UNL     1     -10.693  10.699  66.937  1.00  0.00    -0.257 OA 
BRANCH   5   6
HETATM    6  C   UNL     1     -11.044  11.972  67.331  1.00  0.00    -0.281 A  
HETATM    7  C   UNL     1     -11.957  12.770  66.640  1.00  0.00    -0.411 A  
HETATM    8  C   UNL     1     -12.254  14.053  67.067  1.00  0.00    -0.387 A  
HETATM    9  C   UNL     1     -11.651  14.586  68.203  1.00  0.00    -0.331 A  
HETATM   10  C   UNL     1     -10.447  12.486  68.483  1.00  0.00    -0.246 A  
HETATM   11  C   UNL     1     -10.752  13.791  68.915  1.00  0.00    -0.249 A  
BRANCH   9  12
HETATM   12  O   UNL     1     -11.889  15.861  68.665  1.00  0.00    -0.388 OA 
BRANCH  12  13
HETATM   13  C   UNL     1     -10.702  16.659  68.798  1.00  0.00    -0.342 C  
BRANCH  13  14
HETATM   14  C   UNL     1     -10.570  17.641  67.643  1.00  0.00    -0.364 C  
BRANCH  14  15
HETATM   15  C   UNL     1      -9.439  17.239  66.677  1.00  0.00    -0.265 C  
BRANCH  15  16
HETATM   16  N   UNL     1      -8.667  18.367  66.128  1.00  0.00    -0.493 NA 
HETATM   17  C   UNL     1      -8.678  19.573  66.987  1.00  0.00    -0.305 C  
HETATM   18  C   UNL     1      -7.788  19.460  68.235  1.00  0.00    -0.328 C  
HETATM   19  O   UNL     1      -6.433  19.171  67.874  1.00  0.00    -0.221 OA 
HETATM   20  C   UNL     1      -6.361  17.952  67.125  1.00  0.00    -0.160 C  
HETATM   21  C   UNL     1      -7.254  18.000  65.870  1.00  0.00    -0.243 C  
ENDBRANCH  15  16
ENDBRANCH  14  15
ENDBRANCH  13  14
ENDBRANCH  12  13
ENDBRANCH   9  12
ENDBRANCH   5   6
ENDBRANCH   4   5
ENDBRANCH   3   4
ENDBRANCH   2   3
TORSDOF 9
ENDMDL
MODEL       78
REMARK 921   NORMALIZED FREE ENERGY PREDICTED BY IDOCK:   -4.36 KCAL/MOL
REMARK 922        TOTAL FREE ENERGY PREDICTED BY IDOCK:   -7.49 KCAL/MOL
REMARK 923 INTER-LIGAND FREE ENERGY PREDICTED BY IDOCK:   -6.49 KCAL/MOL
REMARK 924 INTRA-LIGAND FREE ENERGY PREDICTED BY IDOCK:   -1.00 KCAL/MOL
REMARK 927      BINDING AFFINITY PREDICTED BY RF-SCORE:    0.00 PKD
ROOT
HETATM    1  C   UNL     1     -13.873   9.154  72.257  1.00  0.00    -0.527 C  
HETATM    2  C   UNL     1     -12.824   8.093  72.001  1.00  0.00    -0.346 C  
ENDROOT
BRANCH   2   3
HETATM    3  C   UNL     1     -11.417   8.690  71.897  1.00  0.00    -0.419 C  
BRANCH   3   4
HETATM    4  C   UNL     1     -11.279   9.363  70.544  1.00  0.00    -0.275 C  
BRANCH   4   5
HETATM    5  O   UNL     1      -9.978   9.916  70.322  1.00  0.00    -0.254 OA 
BRANCH   5   6
HETATM    6  C   UNL     1      -9.672  10.043  68.983  1.00  0.00    -0.199 A  
HETATM    7  C   UNL     1     -10.460   9.517  67.959  1.00  0.00    -0.279 A  
HETATM    8  C   UNL     1     -10.091   9.652  66.631  1.00  0.00    -0.307 A  
HETATM    9  C   UNL     1      -8.923  10.320  66.278  1.00  0.00    -0.153 A  
HETATM   10  C   UNL     1      -8.507  10.733  68.643  1.00  0.00    -0.143 A  
HETATM   11  C   UNL     1      -8.136  10.869  67.293  1.00  0.00    -0.123 A  
BRANCH   9  12
HETATM   12  O   UNL     1      -8.493  10.469  64.978  1.00  0.00    -0.173 OA 
BRANCH  12  13
HETATM   13  C   UNL     1      -9.480  10.109  63.998  1.00  0.00    -0.282 C  
BRANCH  13  14
HETATM   14  C   UNL     1      -9.899  11.318  63.175  1.00  0.00    -0.403 C  
BRANCH  14  15
HETATM   15  C   UNL     1     -11.125  12.027  63.782  1.00  0.00    -0.439 C  
BRANCH  15  16
HETATM   16  N   UNL     1     -10.897  13.431  64.167  1.00  0.00    -0.358 NA 
HETATM   17  C   UNL     1     -12.137  14.233  64.266  1.00  0.00    -0.441 C  
HETATM   18  C   UNL     1     -12.976  13.936  65.518  1.00  0.00    -0.332 C  
HETATM   19  O   UNL     1     -12.207  14.138  66.710  1.00  0.00    -0.447 OA 
HETATM   20  C   UNL     1     -11.044  13.303  66.706  1.00  0.00    -0.292 C  
HETATM   21  C   UNL     1     -10.174  13.542  65.457  1.00  0.00    -0.295 C  
ENDBRANCH  15  16
ENDBRANCH  14  15
ENDBRANCH  13  14
ENDBRANCH  12  13
ENDBRANCH   9  12
ENDBRANCH   5   6
ENDBRANCH   4   5
ENDBRANCH   3   4
ENDBRANCH   2   3
TORSDOF 9
ENDMDL
MODEL       79
REMARK 921   NORMALIZED FREE ENERGY PREDICTED BY IDOCK:   -4.35 KCAL/MOL
REMARK 922        TOTAL FREE ENERGY PREDICTED BY IDOCK:   -7.48 KCAL/MOL
REMARK 923 INTER-LIGAND FREE ENERGY PREDICTED BY IDOCK:   -6.66 KCAL/MOL
REMARK 924 INTRA-LIGAND FREE ENERGY PREDICTED BY IDOCK:   -0.82 KCAL/MOL
REMARK 927      BINDING AFFINITY PREDICTED BY RF-SCORE:    0.00 PKD
ROOT
HETATM    1  C   UNL     1     -12.927  14.136  65.289  1.00  0.00    -0.268 C  
HETATM    2  C   UNL     1     -12.062  13.970  64.057  1.00  0.00    -0.413 C  
ENDROOT
BRANCH   2   3
HETATM    3  C   UNL     1     -12.170  12.561  63.466  1.00  0.00    -0.652 C  
BRANCH   3   4
HETATM    4  C   UNL     1     -10.772  11.978  63.360  1.00  0.00    -0.417 C  
BRANCH   4   5
HETATM    5  O   UNL     1      -9.970  12.231  64.518  1.00  0.00    -0.260 OA 
BRANCH   5   6
HETATM    6  C   UNL     1     -10.169  11.306  65.520  1.00  0.00    -0.260 A  
HETATM    7  C   UNL     1     -10.828  11.593  66.716  1.00  0.00    -0.322 A  
HETATM    8  C   UNL     1     -10.978  10.631  67.700  1.00  0.00    -0.370 A  
HETATM    9  C   UNL     1     -10.477   9.344  67.524  1.00  0.00    -0.280 A  
HETATM   10  C   UNL     1      -9.680  10.014  65.321  1.00  0.00    -0.373 A  
HETATM   11  C   UNL     1      -9.835   9.038  66.323  1.00  0.00    -0.361 A  
BRANCH   9  12
HETATM   12  O   UNL     1     -10.576   8.351  68.473  1.00  0.00    -0.191 OA 
BRANCH  12  13
HETATM   13  C   UNL     1      -9.586   7.319  68.336  1.00  0.00    -0.139 C  
BRANCH  13  14
HETATM   14  C   UNL     1      -9.906   6.131  69.231  1.00  0.00    -0.182 C  
BRANCH  14  15
HETATM   15  C   UNL     1     -11.264   6.298  69.939  1.00  0.00    -0.429 C  
BRANCH  15  16
HETATM   16  N   UNL     1     -11.180   6.478  71.399  1.00  0.00    -0.270 NA 
HETATM   17  C   UNL     1     -10.282   7.578  71.815  1.00  0.00    -0.187 C  
HETATM   18  C   UNL     1     -10.865   8.982  71.590  1.00  0.00    -0.366 C  
HETATM   19  O   UNL     1     -12.115   9.133  72.272  1.00  0.00    -0.330 OA 
HETATM   20  C   UNL     1     -13.054   8.148  71.824  1.00  0.00    -0.345 C  
HETATM   21  C   UNL     1     -12.512   6.718  72.006  1.00  0.00    -0.244 C  
ENDBRANCH  15  16
ENDBRANCH  14  15
ENDBRANCH  13  14
ENDBRANCH  12  13
ENDBRANCH   9  12
ENDBRANCH   5   6
ENDBRANCH   4   5
ENDBRANCH   3   4
ENDBRANCH   2   3
TORSDOF 9
ENDMDL
MODEL       80
REMARK 921   NORMALIZED FREE ENERGY PREDICTED BY IDOCK:   -4.34 KCAL/MOL
REMARK 922        TOTAL FREE ENERGY PREDICTED BY IDOCK:   -7.46 KCAL/MOL
REMARK 923 INTER-LIGAND FREE ENERGY PREDICTED BY IDOCK:   -7.36 KCAL/MOL
REMARK 924 INTRA-LIGAND FREE ENERGY PREDICTED BY IDOCK:   -0.10 KCAL/MOL
REMARK 927      BINDING AFFINITY PREDICTED BY RF-SCORE:    0.00 PKD
ROOT
HETATM    1  C   UNL     1     -10.370   6.420  72.592  1.00  0.00    -0.216 C  
HETATM    2  C   UNL     1     -10.949   7.807  72.769  1.00  0.00    -0.447 C  
ENDROOT
BRANCH   2   3
HETATM    3  C   UNL     1     -12.384   7.903  72.241  1.00  0.00    -0.299 C  
BRANCH   3   4
HETATM    4  C   UNL     1     -12.507   9.169  71.413  1.00  0.00    -0.328 C  
BRANCH   4   5
HETATM    5  O   UNL     1     -13.344  10.158  72.022  1.00  0.00    -0.434 OA 
BRANCH   5   6
HETATM    6  C   UNL     1     -12.948  11.446  71.731  1.00  0.00    -0.414 A  
HETATM    7  C   UNL     1     -13.384  12.566  72.440  1.00  0.00    -0.354 A  
HETATM    8  C   UNL     1     -12.975  13.841  72.088  1.00  0.00    -0.437 A  
HETATM    9  C   UNL     1     -12.111  14.043  71.015  1.00  0.00    -0.305 A  
HETATM   10  C   UNL     1     -12.066  11.632  70.666  1.00  0.00    -0.432 A  
HETATM   11  C   UNL     1     -11.650  12.930  70.311  1.00  0.00    -0.051 A  
BRANCH   9  12
HETATM   12  O   UNL     1     -11.685  15.287  70.604  1.00  0.00    -0.279 OA 
BRANCH  12  13
HETATM   13  C   UNL     1     -12.138  15.647  69.288  1.00  0.00    -0.241 C  
BRANCH  13  14
HETATM   14  C   UNL     1     -10.963  15.946  68.369  1.00  0.00    -0.331 C  
BRANCH  14  15
HETATM   15  C   UNL     1     -10.608  14.737  67.483  1.00  0.00    -0.259 C  
BRANCH  15  16
HETATM   16  N   UNL     1      -9.756  15.052  66.323  1.00  0.00    -0.273 NA 
HETATM   17  C   UNL     1     -10.387  14.752  65.018  1.00  0.00    -0.389 C  
HETATM   18  C   UNL     1     -11.472  15.757  64.603  1.00  0.00    -0.282 C  
HETATM   19  O   UNL     1     -10.947  17.088  64.558  1.00  0.00    -1.031 OA 
HETATM   20  C   UNL     1     -10.415  17.462  65.834  1.00  0.00    -0.252 C  
HETATM   21  C   UNL     1      -9.335  16.473  66.314  1.00  0.00    -0.302 C  
ENDBRANCH  15  16
ENDBRANCH  14  15
ENDBRANCH  13  14
ENDBRANCH  12  13
ENDBRANCH   9  12
ENDBRANCH   5   6
ENDBRANCH   4   5
ENDBRANCH   3   4
ENDBRANCH   2   3
TORSDOF 9
ENDMDL
MODEL       81
REMARK 921   NORMALIZED FREE ENERGY PREDICTED BY IDOCK:   -4.34 KCAL/MOL
REMARK 922        TOTAL FREE ENERGY PREDICTED BY IDOCK:   -7.45 KCAL/MOL
REMARK 923 INTER-LIGAND FREE ENERGY PREDICTED BY IDOCK:   -6.74 KCAL/MOL
REMARK 924 INTRA-LIGAND FREE ENERGY PREDICTED BY IDOCK:   -0.71 KCAL/MOL
REMARK 927      BINDING AFFINITY PREDICTED BY RF-SCORE:    0.00 PKD
ROOT
HETATM    1  C   UNL     1     -10.061   4.385  66.402  1.00  0.00    -0.235 C  
HETATM    2  C   UNL     1     -10.164   5.680  67.178  1.00  0.00    -0.255 C  
ENDROOT
BRANCH   2   3
HETATM    3  C   UNL     1      -9.300   6.788  66.567  1.00  0.00    -0.197 C  
BRANCH   3   4
HETATM    4  C   UNL     1     -10.121   8.063  66.515  1.00  0.00    -0.200 C  
BRANCH   4   5
HETATM    5  O   UNL     1      -9.338   9.222  66.209  1.00  0.00    -0.168 OA 
BRANCH   5   6
HETATM    6  C   UNL     1     -10.108  10.305  65.842  1.00  0.00    -0.251 A  
HETATM    7  C   UNL     1     -10.859  11.059  66.744  1.00  0.00    -0.307 A  
HETATM    8  C   UNL     1     -11.636  12.123  66.317  1.00  0.00    -0.424 A  
HETATM    9  C   UNL     1     -11.688  12.474  64.971  1.00  0.00    -0.362 A  
HETATM   10  C   UNL     1     -10.135  10.659  64.492  1.00  0.00    -0.421 A  
HETATM   11  C   UNL     1     -10.925  11.741  64.061  1.00  0.00    -0.451 A  
BRANCH   9  12
HETATM   12  O   UNL     1     -12.457  13.507  64.483  1.00  0.00    -0.556 OA 
BRANCH  12  13
HETATM   13  C   UNL     1     -12.392  14.702  65.278  1.00  0.00    -0.215 C  
BRANCH  13  14
HETATM   14  C   UNL     1     -11.345  15.663  64.736  1.00  0.00    -0.348 C  
BRANCH  14  15
HETATM   15  C   UNL     1     -10.140  15.791  65.687  1.00  0.00    -0.371 C  
BRANCH  15  16
HETATM   16  N   UNL     1      -9.686  17.172  65.925  1.00  0.00    -0.529 NA 
HETATM   17  C   UNL     1     -10.526  17.921  66.886  1.00  0.00    -0.329 C  
HETATM   18  C   UNL     1     -10.319  17.509  68.351  1.00  0.00    -0.378 C  
HETATM   19  O   UNL     1      -8.948  17.657  68.737  1.00  0.00    -0.276 OA 
HETATM   20  C   UNL     1      -8.101  16.865  67.895  1.00  0.00    -0.188 C  
HETATM   21  C   UNL     1      -8.284  17.220  66.407  1.00  0.00    -0.282 C  
ENDBRANCH  15  16
ENDBRANCH  14  15
ENDBRANCH  13  14
ENDBRANCH  12  13
ENDBRANCH   9  12
ENDBRANCH   5   6
ENDBRANCH   4   5
ENDBRANCH   3   4
ENDBRANCH   2   3
TORSDOF 9
ENDMDL
MODEL       82
REMARK 921   NORMALIZED FREE ENERGY PREDICTED BY IDOCK:   -4.32 KCAL/MOL
REMARK 922        TOTAL FREE ENERGY PREDICTED BY IDOCK:   -7.43 KCAL/MOL
REMARK 923 INTER-LIGAND FREE ENERGY PREDICTED BY IDOCK:   -6.57 KCAL/MOL
REMARK 924 INTRA-LIGAND FREE ENERGY PREDICTED BY IDOCK:   -0.86 KCAL/MOL
REMARK 927      BINDING AFFINITY PREDICTED BY RF-SCORE:    0.00 PKD
ROOT
HETATM    1  C   UNL     1     -14.215   7.553  71.692  1.00  0.00    -0.592 C  
HETATM    2  C   UNL     1     -12.986   8.429  71.813  1.00  0.00    -0.368 C  
ENDROOT
BRANCH   2   3
HETATM    3  C   UNL     1     -13.263   9.870  71.373  1.00  0.00    -0.487 C  
BRANCH   3   4
HETATM    4  C   UNL     1     -11.942  10.520  71.001  1.00  0.00    -0.364 C  
BRANCH   4   5
HETATM    5  O   UNL     1     -11.224   9.794  69.998  1.00  0.00    -0.242 OA 
BRANCH   5   6
HETATM    6  C   UNL     1     -10.775  10.600  68.973  1.00  0.00    -0.221 A  
HETATM    7  C   UNL     1      -9.435  10.945  68.794  1.00  0.00    -0.196 A  
HETATM    8  C   UNL     1      -9.042  11.781  67.762  1.00  0.00    -0.178 A  
HETATM    9  C   UNL     1      -9.975  12.299  66.868  1.00  0.00    -0.213 A  
HETATM   10  C   UNL     1     -11.718  11.096  68.073  1.00  0.00    -0.288 A  
HETATM   11  C   UNL     1     -11.316  11.944  67.024  1.00  0.00    -0.392 A  
BRANCH   9  12
HETATM   12  O   UNL     1      -9.649  13.150  65.836  1.00  0.00    -0.218 OA 
BRANCH  12  13
HETATM   13  C   UNL     1     -10.777  13.557  65.044  1.00  0.00    -0.357 C  
BRANCH  13  14
HETATM   14  C   UNL     1     -10.916  15.072  65.028  1.00  0.00    -0.436 C  
BRANCH  14  15
HETATM   15  C   UNL     1      -9.891  15.750  65.957  1.00  0.00    -0.337 C  
BRANCH  15  16
HETATM   16  N   UNL     1     -10.479  16.546  67.048  1.00  0.00    -0.304 NA 
HETATM   17  C   UNL     1     -11.249  15.744  68.025  1.00  0.00    -0.338 C  
HETATM   18  C   UNL     1     -10.375  14.919  68.983  1.00  0.00    -0.245 C  
HETATM   19  O   UNL     1      -9.466  15.760  69.701  1.00  0.00    -0.276 OA 
HETATM   20  C   UNL     1      -8.626  16.484  68.793  1.00  0.00    -0.262 C  
HETATM   21  C   UNL     1      -9.452  17.314  67.791  1.00  0.00    -0.255 C  
ENDBRANCH  15  16
ENDBRANCH  14  15
ENDBRANCH  13  14
ENDBRANCH  12  13
ENDBRANCH   9  12
ENDBRANCH   5   6
ENDBRANCH   4   5
ENDBRANCH   3   4
ENDBRANCH   2   3
TORSDOF 9
ENDMDL
MODEL       83
REMARK 921   NORMALIZED FREE ENERGY PREDICTED BY IDOCK:   -4.31 KCAL/MOL
REMARK 922        TOTAL FREE ENERGY PREDICTED BY IDOCK:   -7.42 KCAL/MOL
REMARK 923 INTER-LIGAND FREE ENERGY PREDICTED BY IDOCK:   -6.26 KCAL/MOL
REMARK 924 INTRA-LIGAND FREE ENERGY PREDICTED BY IDOCK:   -1.16 KCAL/MOL
REMARK 927      BINDING AFFINITY PREDICTED BY RF-SCORE:    0.00 PKD
ROOT
HETATM    1  C   UNL     1      -9.887  19.215  68.591  1.00  0.00    -0.485 C  
HETATM    2  C   UNL     1     -10.628  19.771  67.394  1.00  0.00    -0.553 C  
ENDROOT
BRANCH   2   3
HETATM    3  C   UNL     1     -10.413  18.920  66.138  1.00  0.00    -0.521 C  
BRANCH   3   4
HETATM    4  C   UNL     1      -9.723  17.631  66.546  1.00  0.00    -0.304 C  
BRANCH   4   5
HETATM    5  O   UNL     1     -10.301  16.470  65.941  1.00  0.00    -0.336 OA 
BRANCH   5   6
HETATM    6  C   UNL     1     -10.726  15.540  66.866  1.00  0.00    -0.317 A  
HETATM    7  C   UNL     1     -10.357  15.566  68.211  1.00  0.00    -0.235 A  
HETATM    8  C   UNL     1     -10.793  14.591  69.092  1.00  0.00    -0.278 A  
HETATM    9  C   UNL     1     -11.617  13.556  68.662  1.00  0.00    -0.330 A  
HETATM   10  C   UNL     1     -11.569  14.519  66.424  1.00  0.00    -0.370 A  
HETATM   11  C   UNL     1     -12.011  13.530  67.323  1.00  0.00    -0.408 A  
BRANCH   9  12
HETATM   12  O   UNL     1     -12.066  12.547  69.485  1.00  0.00    -0.267 OA 
BRANCH  12  13
HETATM   13  C   UNL     1     -11.901  11.232  68.930  1.00  0.00    -0.345 C  
BRANCH  13  14
HETATM   14  C   UNL     1     -10.600  10.598  69.401  1.00  0.00    -0.270 C  
BRANCH  14  15
HETATM   15  C   UNL     1      -9.812   9.976  68.233  1.00  0.00    -0.146 C  
BRANCH  15  16
HETATM   16  N   UNL     1      -9.892  10.726  66.967  1.00  0.00    -0.183 NA 
HETATM   17  C   UNL     1      -8.733  11.614  66.723  1.00  0.00    -0.189 C  
HETATM   18  C   UNL     1      -7.455  10.873  66.303  1.00  0.00    -0.129 C  
HETATM   19  O   UNL     1      -7.680  10.087  65.127  1.00  0.00    -0.126 OA 
HETATM   20  C   UNL     1      -8.731   9.139  65.350  1.00  0.00    -0.186 C  
HETATM   21  C   UNL     1     -10.035   9.826  65.797  1.00  0.00    -0.279 C  
ENDBRANCH  15  16
ENDBRANCH  14  15
ENDBRANCH  13  14
ENDBRANCH  12  13
ENDBRANCH   9  12
ENDBRANCH   5   6
ENDBRANCH   4   5
ENDBRANCH   3   4
ENDBRANCH   2   3
TORSDOF 9
ENDMDL
MODEL       84
REMARK 921   NORMALIZED FREE ENERGY PREDICTED BY IDOCK:   -4.31 KCAL/MOL
REMARK 922        TOTAL FREE ENERGY PREDICTED BY IDOCK:   -7.41 KCAL/MOL
REMARK 923 INTER-LIGAND FREE ENERGY PREDICTED BY IDOCK:   -6.96 KCAL/MOL
REMARK 924 INTRA-LIGAND FREE ENERGY PREDICTED BY IDOCK:   -0.45 KCAL/MOL
REMARK 927      BINDING AFFINITY PREDICTED BY RF-SCORE:    0.00 PKD
ROOT
HETATM    1  C   UNL     1      -9.406   5.532  68.591  1.00  0.00    -0.149 C  
HETATM    2  C   UNL     1     -10.783   6.093  68.307  1.00  0.00    -0.361 C  
ENDROOT
BRANCH   2   3
HETATM    3  C   UNL     1     -10.838   6.827  66.963  1.00  0.00    -0.453 C  
BRANCH   3   4
HETATM    4  C   UNL     1     -10.610   8.307  67.216  1.00  0.00    -0.265 C  
BRANCH   4   5
HETATM    5  O   UNL     1     -10.015   8.981  66.102  1.00  0.00    -0.284 OA 
BRANCH   5   6
HETATM    6  C   UNL     1     -10.407  10.299  66.003  1.00  0.00    -0.178 A  
HETATM    7  C   UNL     1     -10.217  11.076  64.860  1.00  0.00    -0.373 A  
HETATM    8  C   UNL     1     -10.608  12.404  64.825  1.00  0.00    -0.331 A  
HETATM    9  C   UNL     1     -11.205  13.003  65.929  1.00  0.00    -0.289 A  
HETATM   10  C   UNL     1     -11.024  10.881  67.112  1.00  0.00    -0.334 A  
HETATM   11  C   UNL     1     -11.421  12.230  67.072  1.00  0.00    -0.419 A  
BRANCH   9  12
HETATM   12  O   UNL     1     -11.596  14.324  65.962  1.00  0.00    -0.342 OA 
BRANCH  12  13
HETATM   13  C   UNL     1     -10.784  15.187  65.149  1.00  0.00    -0.422 C  
BRANCH  13  14
HETATM   14  C   UNL     1      -9.914  16.090  66.010  1.00  0.00    -0.365 C  
BRANCH  14  15
HETATM   15  C   UNL     1     -10.362  17.562  65.929  1.00  0.00    -0.259 C  
BRANCH  15  16
HETATM   16  N   UNL     1     -10.678  18.183  67.227  1.00  0.00    -0.364 NA 
HETATM   17  C   UNL     1     -10.019  17.529  68.379  1.00  0.00    -0.335 C  
HETATM   18  C   UNL     1      -8.519  17.839  68.500  1.00  0.00    -0.296 C  
HETATM   19  O   UNL     1      -8.292  19.250  68.587  1.00  0.00    -0.357 OA 
HETATM   20  C   UNL     1      -8.826  19.917  67.437  1.00  0.00    -0.336 C  
HETATM   21  C   UNL     1     -10.327  19.623  67.253  1.00  0.00    -0.451 C  
ENDBRANCH  15  16
ENDBRANCH  14  15
ENDBRANCH  13  14
ENDBRANCH  12  13
ENDBRANCH   9  12
ENDBRANCH   5   6
ENDBRANCH   4   5
ENDBRANCH   3   4
ENDBRANCH   2   3
TORSDOF 9
ENDMDL
MODEL       85
REMARK 921   NORMALIZED FREE ENERGY PREDICTED BY IDOCK:   -4.30 KCAL/MOL
REMARK 922        TOTAL FREE ENERGY PREDICTED BY IDOCK:   -7.40 KCAL/MOL
REMARK 923 INTER-LIGAND FREE ENERGY PREDICTED BY IDOCK:   -6.75 KCAL/MOL
REMARK 924 INTRA-LIGAND FREE ENERGY PREDICTED BY IDOCK:   -0.64 KCAL/MOL
REMARK 927      BINDING AFFINITY PREDICTED BY RF-SCORE:    0.00 PKD
ROOT
HETATM    1  C   UNL     1     -12.325  15.139  74.283  1.00  0.00    -0.675 C  
HETATM    2  C   UNL     1     -12.341  16.421  73.477  1.00  0.00    -0.576 C  
ENDROOT
BRANCH   2   3
HETATM    3  C   UNL     1     -11.826  16.208  72.050  1.00  0.00    -0.615 C  
BRANCH   3   4
HETATM    4  C   UNL     1     -12.947  15.611  71.219  1.00  0.00    -0.492 C  
BRANCH   4   5
HETATM    5  O   UNL     1     -12.556  15.324  69.872  1.00  0.00    -0.275 OA 
BRANCH   5   6
HETATM    6  C   UNL     1     -12.322  13.983  69.658  1.00  0.00    -0.260 A  
HETATM    7  C   UNL     1     -12.355  13.023  70.670  1.00  0.00    -0.391 A  
HETATM    8  C   UNL     1     -12.087  11.691  70.402  1.00  0.00    -0.462 A  
HETATM    9  C   UNL     1     -11.778  11.269  69.112  1.00  0.00    -0.341 A  
HETATM   10  C   UNL     1     -12.034  13.571  68.356  1.00  0.00    -0.378 A  
HETATM   11  C   UNL     1     -11.763  12.216  68.087  1.00  0.00    -0.402 A  
BRANCH   9  12
HETATM   12  O   UNL     1     -11.482   9.964  68.788  1.00  0.00    -0.068 OA 
BRANCH  12  13
HETATM   13  C   UNL     1     -10.738   9.270  69.803  1.00  0.00    -0.231 C  
BRANCH  13  14
HETATM   14  C   UNL     1      -9.312   8.998  69.345  1.00  0.00    -0.158 C  
BRANCH  14  15
HETATM   15  C   UNL     1      -9.204   7.673  68.568  1.00  0.00    -0.143 C  
BRANCH  15  16
HETATM   16  N   UNL     1      -9.759   7.712  67.203  1.00  0.00    -0.168 NA 
HETATM   17  C   UNL     1      -8.751   7.498  66.141  1.00  0.00    -0.156 C  
HETATM   18  C   UNL     1      -8.288   6.039  66.004  1.00  0.00    -0.134 C  
HETATM   19  O   UNL     1      -9.399   5.170  65.757  1.00  0.00    -0.158 OA 
HETATM   20  C   UNL     1     -10.358   5.268  66.817  1.00  0.00    -0.273 C  
HETATM   21  C   UNL     1     -10.842   6.717  67.016  1.00  0.00    -0.397 C  
ENDBRANCH  15  16
ENDBRANCH  14  15
ENDBRANCH  13  14
ENDBRANCH  12  13
ENDBRANCH   9  12
ENDBRANCH   5   6
ENDBRANCH   4   5
ENDBRANCH   3   4
ENDBRANCH   2   3
TORSDOF 9
ENDMDL
MODEL       86
REMARK 921   NORMALIZED FREE ENERGY PREDICTED BY IDOCK:   -4.28 KCAL/MOL
REMARK 922        TOTAL FREE ENERGY PREDICTED BY IDOCK:   -7.37 KCAL/MOL
REMARK 923 INTER-LIGAND FREE ENERGY PREDICTED BY IDOCK:   -6.03 KCAL/MOL
REMARK 924 INTRA-LIGAND FREE ENERGY PREDICTED BY IDOCK:   -1.34 KCAL/MOL
REMARK 927      BINDING AFFINITY PREDICTED BY RF-SCORE:    0.00 PKD
ROOT
HETATM    1  C   UNL     1     -11.807  11.906  69.507  1.00  0.00    -0.395 C  
HETATM    2  C   UNL     1     -12.340  12.824  70.586  1.00  0.00    -0.381 C  
ENDROOT
BRANCH   2   3
HETATM    3  C   UNL     1     -12.434  14.277  70.109  1.00  0.00    -0.393 C  
BRANCH   3   4
HETATM    4  C   UNL     1     -11.525  14.447  68.906  1.00  0.00    -0.289 C  
BRANCH   4   5
HETATM    5  O   UNL     1     -12.189  15.027  67.779  1.00  0.00    -0.100 OA 
BRANCH   5   6
HETATM    6  C   UNL     1     -11.908  14.373  66.598  1.00  0.00    -0.398 A  
HETATM    7  C   UNL     1     -12.785  13.479  65.983  1.00  0.00    -0.307 A  
HETATM    8  C   UNL     1     -12.441  12.829  64.810  1.00  0.00    -0.539 A  
HETATM    9  C   UNL     1     -11.207  13.051  64.206  1.00  0.00    -0.373 A  
HETATM   10  C   UNL     1     -10.675  14.620  65.993  1.00  0.00    -0.313 A  
HETATM   11  C   UNL     1     -10.328  13.959  64.800  1.00  0.00    -0.419 A  
BRANCH   9  12
HETATM   12  O   UNL     1     -10.798  12.420  63.052  1.00  0.00    -0.238 OA 
BRANCH  12  13
HETATM   13  C   UNL     1      -9.560  11.705  63.191  1.00  0.00    -0.323 C  
BRANCH  13  14
HETATM   14  C   UNL     1      -9.766  10.394  63.934  1.00  0.00    -0.367 C  
BRANCH  14  15
HETATM   15  C   UNL     1      -9.000  10.368  65.271  1.00  0.00    -0.187 C  
BRANCH  15  16
HETATM   16  N   UNL     1      -9.814  10.702  66.453  1.00  0.00    -0.203 NA 
HETATM   17  C   UNL     1     -10.309   9.520  67.193  1.00  0.00    -0.253 C  
HETATM   18  C   UNL     1      -9.232   8.809  68.028  1.00  0.00    -0.139 C  
HETATM   19  O   UNL     1      -8.631   9.711  68.963  1.00  0.00    -0.122 OA 
HETATM   20  C   UNL     1      -8.046  10.826  68.281  1.00  0.00    -0.121 C  
HETATM   21  C   UNL     1      -9.077  11.565  67.407  1.00  0.00    -0.166 C  
ENDBRANCH  15  16
ENDBRANCH  14  15
ENDBRANCH  13  14
ENDBRANCH  12  13
ENDBRANCH   9  12
ENDBRANCH   5   6
ENDBRANCH   4   5
ENDBRANCH   3   4
ENDBRANCH   2   3
TORSDOF 9
ENDMDL
MODEL       87
REMARK 921   NORMALIZED FREE ENERGY PREDICTED BY IDOCK:   -4.26 KCAL/MOL
REMARK 922        TOTAL FREE ENERGY PREDICTED BY IDOCK:   -7.34 KCAL/MOL
REMARK 923 INTER-LIGAND FREE ENERGY PREDICTED BY IDOCK:   -6.65 KCAL/MOL
REMARK 924 INTRA-LIGAND FREE ENERGY PREDICTED BY IDOCK:   -0.69 KCAL/MOL
REMARK 927      BINDING AFFINITY PREDICTED BY RF-SCORE:    0.00 PKD
ROOT
HETATM    1  C   UNL     1     -12.239   6.567  71.888  1.00  0.00    -0.373 C  
HETATM    2  C   UNL     1     -11.917   7.973  72.347  1.00  0.00    -0.405 C  
ENDROOT
BRANCH   2   3
HETATM    3  C   UNL     1     -10.406   8.219  72.427  1.00  0.00    -0.402 C  
BRANCH   3   4
HETATM    4  C   UNL     1     -10.002   9.101  71.260  1.00  0.00    -0.303 C  
BRANCH   4   5
HETATM    5  O   UNL     1     -10.631   8.727  70.030  1.00  0.00    -0.215 OA 
BRANCH   5   6
HETATM    6  C   UNL     1     -10.929   9.810  69.231  1.00  0.00    -0.193 A  
HETATM    7  C   UNL     1     -11.511  10.984  69.709  1.00  0.00    -0.387 A  
HETATM    8  C   UNL     1     -11.814  12.032  68.856  1.00  0.00    -0.356 A  
HETATM    9  C   UNL     1     -11.543  11.946  67.494  1.00  0.00    -0.304 A  
HETATM   10  C   UNL     1     -10.634   9.717  67.870  1.00  0.00    -0.310 A  
HETATM   11  C   UNL     1     -10.941  10.785  67.006  1.00  0.00    -0.292 A  
BRANCH   9  12
HETATM   12  O   UNL     1     -11.839  12.946  66.594  1.00  0.00    -0.374 OA 
BRANCH  12  13
HETATM   13  C   UNL     1     -10.869  13.083  65.543  1.00  0.00    -0.278 C  
BRANCH  13  14
HETATM   14  C   UNL     1     -11.144  14.322  64.703  1.00  0.00    -0.371 C  
BRANCH  14  15
HETATM   15  C   UNL     1     -10.960  15.617  65.518  1.00  0.00    -0.300 C  
BRANCH  15  16
HETATM   16  N   UNL     1      -9.933  15.542  66.571  1.00  0.00    -0.257 NA 
HETATM   17  C   UNL     1      -8.744  16.383  66.308  1.00  0.00    -0.334 C  
HETATM   18  C   UNL     1      -8.980  17.885  66.526  1.00  0.00    -0.261 C  
HETATM   19  O   UNL     1      -9.434  18.145  67.859  1.00  0.00    -0.270 OA 
HETATM   20  C   UNL     1     -10.645  17.428  68.126  1.00  0.00    -0.376 C  
HETATM   21  C   UNL     1     -10.473  15.914  67.901  1.00  0.00    -0.288 C  
ENDBRANCH  15  16
ENDBRANCH  14  15
ENDBRANCH  13  14
ENDBRANCH  12  13
ENDBRANCH   9  12
ENDBRANCH   5   6
ENDBRANCH   4   5
ENDBRANCH   3   4
ENDBRANCH   2   3
TORSDOF 9
ENDMDL
MODEL       88
REMARK 921   NORMALIZED FREE ENERGY PREDICTED BY IDOCK:   -4.26 KCAL/MOL
REMARK 922        TOTAL FREE ENERGY PREDICTED BY IDOCK:   -7.33 KCAL/MOL
REMARK 923 INTER-LIGAND FREE ENERGY PREDICTED BY IDOCK:   -6.52 KCAL/MOL
REMARK 924 INTRA-LIGAND FREE ENERGY PREDICTED BY IDOCK:   -0.81 KCAL/MOL
REMARK 927      BINDING AFFINITY PREDICTED BY RF-SCORE:    0.00 PKD
ROOT
HETATM    1  C   UNL     1      -9.371   8.020  72.875  1.00  0.00    -0.338 C  
HETATM    2  C   UNL     1      -8.280   8.578  71.985  1.00  0.00    -0.192 C  
ENDROOT
BRANCH   2   3
HETATM    3  C   UNL     1      -8.506   8.228  70.511  1.00  0.00    -0.129 C  
BRANCH   3   4
HETATM    4  C   UNL     1      -9.681   9.042  70.000  1.00  0.00    -0.185 C  
BRANCH   4   5
HETATM    5  O   UNL     1      -9.657   9.232  68.581  1.00  0.00    -0.145 OA 
BRANCH   5   6
HETATM    6  C   UNL     1      -9.966  10.523  68.209  1.00  0.00    -0.159 A  
HETATM    7  C   UNL     1     -11.248  10.935  67.844  1.00  0.00    -0.387 A  
HETATM    8  C   UNL     1     -11.496  12.240  67.453  1.00  0.00    -0.422 A  
HETATM    9  C   UNL     1     -10.472  13.182  67.415  1.00  0.00    -0.242 A  
HETATM   10  C   UNL     1      -8.933  11.462  68.195  1.00  0.00    -0.169 A  
HETATM   11  C   UNL     1      -9.189  12.788  67.798  1.00  0.00    -0.199 A  
BRANCH   9  12
HETATM   12  O   UNL     1     -10.652  14.488  67.016  1.00  0.00    -0.273 OA 
BRANCH  12  13
HETATM   13  C   UNL     1     -10.461  15.446  68.070  1.00  0.00    -0.257 C  
BRANCH  13  14
HETATM   14  C   UNL     1     -11.762  15.709  68.814  1.00  0.00    -0.382 C  
BRANCH  14  15
HETATM   15  C   UNL     1     -11.680  15.260  70.285  1.00  0.00    -0.308 C  
BRANCH  15  16
HETATM   16  N   UNL     1     -12.768  15.761  71.143  1.00  0.00    -0.475 NA 
HETATM   17  C   UNL     1     -13.875  14.796  71.329  1.00  0.00    -0.390 C  
HETATM   18  C   UNL     1     -13.542  13.637  72.280  1.00  0.00    -0.571 C  
HETATM   19  O   UNL     1     -13.146  14.127  73.566  1.00  0.00    -0.461 OA 
HETATM   20  C   UNL     1     -12.008  14.989  73.447  1.00  0.00    -0.319 C  
HETATM   21  C   UNL     1     -12.278  16.160  72.484  1.00  0.00    -0.520 C  
ENDBRANCH  15  16
ENDBRANCH  14  15
ENDBRANCH  13  14
ENDBRANCH  12  13
ENDBRANCH   9  12
ENDBRANCH   5   6
ENDBRANCH   4   5
ENDBRANCH   3   4
ENDBRANCH   2   3
TORSDOF 9
ENDMDL
MODEL       89
REMARK 921   NORMALIZED FREE ENERGY PREDICTED BY IDOCK:   -4.24 KCAL/MOL
REMARK 922        TOTAL FREE ENERGY PREDICTED BY IDOCK:   -7.30 KCAL/MOL
REMARK 923 INTER-LIGAND FREE ENERGY PREDICTED BY IDOCK:   -6.28 KCAL/MOL
REMARK 924 INTRA-LIGAND FREE ENERGY PREDICTED BY IDOCK:   -1.02 KCAL/MOL
REMARK 927      BINDING AFFINITY PREDICTED BY RF-SCORE:    0.00 PKD
ROOT
HETATM    1  C   UNL     1     -11.247  12.144  63.396  1.00  0.00    -0.494 C  
HETATM    2  C   UNL     1      -9.840  11.620  63.594  1.00  0.00    -0.366 C  
ENDROOT
BRANCH   2   3
HETATM    3  C   UNL     1      -9.776  10.547  64.685  1.00  0.00    -0.369 C  
BRANCH   3   4
HETATM    4  C   UNL     1     -11.050  10.620  65.506  1.00  0.00     0.343 C  
BRANCH   4   5
HETATM    5  O   UNL     1     -10.855  10.260  66.878  1.00  0.00    -0.220 OA 
BRANCH   5   6
HETATM    6  C   UNL     1     -11.288  11.234  67.753  1.00  0.00    -0.285 A  
HETATM    7  C   UNL     1     -11.581  12.542  67.367  1.00  0.00    -0.434 A  
HETATM    8  C   UNL     1     -11.988  13.488  68.293  1.00  0.00    -0.377 A  
HETATM    9  C   UNL     1     -12.120  13.159  69.639  1.00  0.00    -0.255 A  
HETATM   10  C   UNL     1     -11.436  10.885  69.096  1.00  0.00    -0.373 A  
HETATM   11  C   UNL     1     -11.851  11.848  70.035  1.00  0.00    -0.407 A  
BRANCH   9  12
HETATM   12  O   UNL     1     -12.500  14.060  70.609  1.00  0.00    -0.326 OA 
BRANCH  12  13
HETATM   13  C   UNL     1     -12.443  15.430  70.181  1.00  0.00    -0.335 C  
BRANCH  13  14
HETATM   14  C   UNL     1     -11.083  16.042  70.487  1.00  0.00    -0.370 C  
BRANCH  14  15
HETATM   15  C   UNL     1     -10.581  16.926  69.330  1.00  0.00    -0.325 C  
BRANCH  15  16
HETATM   16  N   UNL     1      -9.165  16.730  68.975  1.00  0.00    -0.237 NA 
HETATM   17  C   UNL     1      -8.924  15.562  68.098  1.00  0.00    -0.179 C  
HETATM   18  C   UNL     1      -9.350  15.777  66.638  1.00  0.00    -0.258 C  
HETATM   19  O   UNL     1      -8.686  16.913  66.073  1.00  0.00    -0.468 OA 
HETATM   20  C   UNL     1      -8.974  18.093  66.833  1.00  0.00    -0.271 C  
HETATM   21  C   UNL     1      -8.588  17.926  68.314  1.00  0.00    -0.275 C  
ENDBRANCH  15  16
ENDBRANCH  14  15
ENDBRANCH  13  14
ENDBRANCH  12  13
ENDBRANCH   9  12
ENDBRANCH   5   6
ENDBRANCH   4   5
ENDBRANCH   3   4
ENDBRANCH   2   3
TORSDOF 9
ENDMDL
MODEL       90
REMARK 921   NORMALIZED FREE ENERGY PREDICTED BY IDOCK:   -4.21 KCAL/MOL
REMARK 922        TOTAL FREE ENERGY PREDICTED BY IDOCK:   -7.26 KCAL/MOL
REMARK 923 INTER-LIGAND FREE ENERGY PREDICTED BY IDOCK:   -6.42 KCAL/MOL
REMARK 924 INTRA-LIGAND FREE ENERGY PREDICTED BY IDOCK:   -0.84 KCAL/MOL
REMARK 927      BINDING AFFINITY PREDICTED BY RF-SCORE:    0.00 PKD
ROOT
HETATM    1  C   UNL     1     -14.144  15.588  72.280  1.00  0.00    -0.637 C  
HETATM    2  C   UNL     1     -14.020  14.284  71.521  1.00  0.00    -0.415 C  
ENDROOT
BRANCH   2   3
HETATM    3  C   UNL     1     -13.649  13.117  72.441  1.00  0.00    -0.667 C  
BRANCH   3   4
HETATM    4  C   UNL     1     -12.939  12.061  71.613  1.00  0.00    -0.334 C  
BRANCH   4   5
HETATM    5  O   UNL     1     -13.314  10.725  71.967  1.00  0.00    -0.447 OA 
BRANCH   5   6
HETATM    6  C   UNL     1     -12.396   9.784  71.552  1.00  0.00    -0.405 A  
HETATM    7  C   UNL     1     -11.273  10.090  70.781  1.00  0.00    -0.428 A  
HETATM    8  C   UNL     1     -10.396   9.100  70.370  1.00  0.00    -0.269 A  
HETATM    9  C   UNL     1     -10.608   7.769  70.716  1.00  0.00    -0.218 A  
HETATM   10  C   UNL     1     -12.610   8.456  71.923  1.00  0.00    -0.389 A  
HETATM   11  C   UNL     1     -11.716   7.453  71.504  1.00  0.00    -0.314 A  
BRANCH   9  12
HETATM   12  O   UNL     1      -9.784   6.738  70.320  1.00  0.00    -0.171 OA 
BRANCH  12  13
HETATM   13  C   UNL     1     -10.383   5.438  70.446  1.00  0.00    -0.283 C  
BRANCH  13  14
HETATM   14  C   UNL     1      -9.936   4.519  69.319  1.00  0.00    -0.192 C  
BRANCH  14  15
HETATM   15  C   UNL     1      -8.920   5.208  68.388  1.00  0.00    -0.106 C  
BRANCH  15  16
HETATM   16  N   UNL     1      -9.338   5.296  66.978  1.00  0.00    -0.119 NA 
HETATM   17  C   UNL     1     -10.691   5.868  66.789  1.00  0.00    -0.299 C  
HETATM   18  C   UNL     1     -10.760   7.389  66.995  1.00  0.00    -0.319 C  
HETATM   19  O   UNL     1      -9.854   8.067  66.117  1.00  0.00    -0.146 OA 
HETATM   20  C   UNL     1      -8.512   7.617  66.336  1.00  0.00    -0.137 C  
HETATM   21  C   UNL     1      -8.386   6.091  66.166  1.00  0.00    -0.126 C  
ENDBRANCH  15  16
ENDBRANCH  14  15
ENDBRANCH  13  14
ENDBRANCH  12  13
ENDBRANCH   9  12
ENDBRANCH   5   6
ENDBRANCH   4   5
ENDBRANCH   3   4
ENDBRANCH   2   3
TORSDOF 9
ENDMDL
MODEL       91
REMARK 921   NORMALIZED FREE ENERGY PREDICTED BY IDOCK:   -4.19 KCAL/MOL
REMARK 922        TOTAL FREE ENERGY PREDICTED BY IDOCK:   -7.24 KCAL/MOL
REMARK 923 INTER-LIGAND FREE ENERGY PREDICTED BY IDOCK:   -6.49 KCAL/MOL
REMARK 924 INTRA-LIGAND FREE ENERGY PREDICTED BY IDOCK:   -0.75 KCAL/MOL
REMARK 927      BINDING AFFINITY PREDICTED BY RF-SCORE:    0.00 PKD
ROOT
HETATM    1  C   UNL     1     -11.441  12.368  63.528  1.00  0.00    -0.561 C  
HETATM    2  C   UNL     1     -10.438  12.043  64.614  1.00  0.00    -0.338 C  
ENDROOT
BRANCH   2   3
HETATM    3  C   UNL     1     -11.120  11.624  65.920  1.00  0.00    -0.320 C  
BRANCH   3   4
HETATM    4  C   UNL     1     -10.119  11.771  67.052  1.00  0.00    -0.209 C  
BRANCH   4   5
HETATM    5  O   UNL     1     -10.719  12.202  68.278  1.00  0.00    -0.206 OA 
BRANCH   5   6
HETATM    6  C   UNL     1     -10.710  13.573  68.425  1.00  0.00    -0.259 A  
HETATM    7  C   UNL     1     -11.691  14.281  69.121  1.00  0.00    -0.360 A  
HETATM    8  C   UNL     1     -11.646  15.662  69.214  1.00  0.00    -0.375 A  
HETATM    9  C   UNL     1     -10.619  16.386  68.618  1.00  0.00    -0.305 A  
HETATM   10  C   UNL     1      -9.663  14.284  67.838  1.00  0.00    -0.222 A  
HETATM   11  C   UNL     1      -9.620  15.688  67.936  1.00  0.00    -0.206 A  
BRANCH   9  12
HETATM   12  O   UNL     1     -10.531  17.760  68.658  1.00  0.00    -0.354 OA 
BRANCH  12  13
HETATM   13  C   UNL     1     -10.699  18.388  67.376  1.00  0.00    -0.361 C  
BRANCH  13  14
HETATM   14  C   UNL     1     -10.350  19.867  67.442  1.00  0.00    -0.565 C  
BRANCH  14  15
HETATM   15  C   UNL     1      -9.064  20.187  66.657  1.00  0.00    -0.329 C  
BRANCH  15  16
HETATM   16  N   UNL     1      -7.815  19.808  67.339  1.00  0.00    -0.266 NA 
HETATM   17  C   UNL     1      -7.088  18.698  66.683  1.00  0.00    -0.214 C  
HETATM   18  C   UNL     1      -6.361  19.103  65.392  1.00  0.00    -0.276 C  
HETATM   19  O   UNL     1      -5.436  20.169  65.637  1.00  0.00    -0.164 OA 
HETATM   20  C   UNL     1      -6.115  21.308  66.180  1.00  0.00    -0.236 C  
HETATM   21  C   UNL     1      -6.883  20.954  67.468  1.00  0.00    -0.360 C  
ENDBRANCH  15  16
ENDBRANCH  14  15
ENDBRANCH  13  14
ENDBRANCH  12  13
ENDBRANCH   9  12
ENDBRANCH   5   6
ENDBRANCH   4   5
ENDBRANCH   3   4
ENDBRANCH   2   3
TORSDOF 9
ENDMDL
MODEL       92
REMARK 921   NORMALIZED FREE ENERGY PREDICTED BY IDOCK:   -4.17 KCAL/MOL
REMARK 922        TOTAL FREE ENERGY PREDICTED BY IDOCK:   -7.20 KCAL/MOL
REMARK 923 INTER-LIGAND FREE ENERGY PREDICTED BY IDOCK:   -6.14 KCAL/MOL
REMARK 924 INTRA-LIGAND FREE ENERGY PREDICTED BY IDOCK:   -1.06 KCAL/MOL
REMARK 927      BINDING AFFINITY PREDICTED BY RF-SCORE:    0.00 PKD
ROOT
HETATM    1  C   UNL     1     -12.816   7.543  71.480  1.00  0.00    -0.397 C  
HETATM    2  C   UNL     1     -11.965   8.287  72.487  1.00  0.00    -0.420 C  
ENDROOT
BRANCH   2   3
HETATM    3  C   UNL     1     -10.900   7.384  73.118  1.00  0.00    -0.435 C  
BRANCH   3   4
HETATM    4  C   UNL     1      -9.532   7.892  72.698  1.00  0.00    -0.222 C  
BRANCH   4   5
HETATM    5  O   UNL     1      -8.902   7.060  71.718  1.00  0.00    -0.126 OA 
BRANCH   5   6
HETATM    6  C   UNL     1      -9.213   7.427  70.426  1.00  0.00    -0.158 A  
HETATM    7  C   UNL     1      -8.975   8.700  69.907  1.00  0.00    -0.149 A  
HETATM    8  C   UNL     1      -9.331   9.022  68.608  1.00  0.00    -0.136 A  
HETATM    9  C   UNL     1      -9.936   8.082  67.779  1.00  0.00    -0.175 A  
HETATM   10  C   UNL     1      -9.801   6.468  69.599  1.00  0.00    -0.176 A  
HETATM   11  C   UNL     1     -10.161   6.798  68.279  1.00  0.00    -0.173 A  
BRANCH   9  12
HETATM   12  O   UNL     1     -10.332   8.348  66.487  1.00  0.00    -0.285 OA 
BRANCH  12  13
HETATM   13  C   UNL     1      -9.286   8.886  65.661  1.00  0.00    -0.204 C  
BRANCH  13  14
HETATM   14  C   UNL     1      -9.799  10.035  64.807  1.00  0.00    -0.325 C  
BRANCH  14  15
HETATM   15  C   UNL     1     -10.342  11.191  65.669  1.00  0.00    -0.254 C  
BRANCH  15  16
HETATM   16  N   UNL     1     -10.226  12.525  65.055  1.00  0.00    -0.289 NA 
HETATM   17  C   UNL     1     -10.980  12.668  63.789  1.00  0.00    -0.435 C  
HETATM   18  C   UNL     1     -12.500  12.791  63.977  1.00  0.00    -0.360 C  
HETATM   19  O   UNL     1     -12.824  13.898  64.826  1.00  0.00    -0.679 OA 
HETATM   20  C   UNL     1     -12.195  13.751  66.105  1.00  0.00    -0.459 C  
HETATM   21  C   UNL     1     -10.668  13.600  65.976  1.00  0.00    -0.280 C  
ENDBRANCH  15  16
ENDBRANCH  14  15
ENDBRANCH  13  14
ENDBRANCH  12  13
ENDBRANCH   9  12
ENDBRANCH   5   6
ENDBRANCH   4   5
ENDBRANCH   3   4
ENDBRANCH   2   3
TORSDOF 9
ENDMDL
MODEL       93
REMARK 921   NORMALIZED FREE ENERGY PREDICTED BY IDOCK:   -4.13 KCAL/MOL
REMARK 922        TOTAL FREE ENERGY PREDICTED BY IDOCK:   -7.15 KCAL/MOL
REMARK 923 INTER-LIGAND FREE ENERGY PREDICTED BY IDOCK:   -5.76 KCAL/MOL
REMARK 924 INTRA-LIGAND FREE ENERGY PREDICTED BY IDOCK:   -1.39 KCAL/MOL
REMARK 927      BINDING AFFINITY PREDICTED BY RF-SCORE:    0.00 PKD
ROOT
HETATM    1  C   UNL     1     -12.016  13.743  68.252  1.00  0.00    -0.392 C  
HETATM    2  C   UNL     1     -11.725  14.523  66.988  1.00  0.00    -0.412 C  
ENDROOT
BRANCH   2   3
HETATM    3  C   UNL     1     -12.487  13.966  65.781  1.00  0.00    -0.530 C  
BRANCH   3   4
HETATM    4  C   UNL     1     -11.980  12.564  65.498  1.00  0.00    -0.442 C  
BRANCH   4   5
HETATM    5  O   UNL     1     -10.575  12.520  65.226  1.00  0.00    -0.276 OA 
BRANCH   5   6
HETATM    6  C   UNL     1      -9.931  11.504  65.900  1.00  0.00    -0.230 A  
HETATM    7  C   UNL     1     -10.205  10.150  65.699  1.00  0.00    -0.288 A  
HETATM    8  C   UNL     1      -9.546   9.171  66.423  1.00  0.00    -0.309 A  
HETATM    9  C   UNL     1      -8.587   9.509  67.374  1.00  0.00    -0.125 A  
HETATM   10  C   UNL     1      -8.958  11.857  66.836  1.00  0.00    -0.196 A  
HETATM   11  C   UNL     1      -8.289  10.859  67.570  1.00  0.00    -0.117 A  
BRANCH   9  12
HETATM   12  O   UNL     1      -7.913   8.583  68.139  1.00  0.00    -0.108 OA 
BRANCH  12  13
HETATM   13  C   UNL     1      -7.540   9.069  69.439  1.00  0.00    -0.078 C  
BRANCH  13  14
HETATM   14  C   UNL     1      -8.230   8.276  70.539  1.00  0.00    -0.114 C  
BRANCH  14  15
HETATM   15  C   UNL     1      -9.496   8.991  71.051  1.00  0.00    -0.274 C  
BRANCH  15  16
HETATM   16  N   UNL     1     -10.699   8.777  70.228  1.00  0.00    -0.222 NA 
HETATM   17  C   UNL     1     -11.771   8.025  70.918  1.00  0.00    -0.251 C  
HETATM   18  C   UNL     1     -12.531   8.845  71.971  1.00  0.00    -0.392 C  
HETATM   19  O   UNL     1     -13.105  10.021  71.389  1.00  0.00    -0.367 OA 
HETATM   20  C   UNL     1     -12.087  10.835  70.794  1.00  0.00    -0.372 C  
HETATM   21  C   UNL     1     -11.274  10.055  69.744  1.00  0.00    -0.258 C  
ENDBRANCH  15  16
ENDBRANCH  14  15
ENDBRANCH  13  14
ENDBRANCH  12  13
ENDBRANCH   9  12
ENDBRANCH   5   6
ENDBRANCH   4   5
ENDBRANCH   3   4
ENDBRANCH   2   3
TORSDOF 9
ENDMDL
MODEL       94
REMARK 921   NORMALIZED FREE ENERGY PREDICTED BY IDOCK:   -4.10 KCAL/MOL
REMARK 922        TOTAL FREE ENERGY PREDICTED BY IDOCK:   -7.09 KCAL/MOL
REMARK 923 INTER-LIGAND FREE ENERGY PREDICTED BY IDOCK:   -6.22 KCAL/MOL
REMARK 924 INTRA-LIGAND FREE ENERGY PREDICTED BY IDOCK:   -0.86 KCAL/MOL
REMARK 927      BINDING AFFINITY PREDICTED BY RF-SCORE:    0.00 PKD
ROOT
HETATM    1  C   UNL     1      -8.395  13.568  66.970  1.00  0.00    -0.096 C  
HETATM    2  C   UNL     1      -8.412  15.071  67.148  1.00  0.00    -0.244 C  
ENDROOT
BRANCH   2   3
HETATM    3  C   UNL     1      -9.826  15.648  67.027  1.00  0.00    -0.237 C  
BRANCH   3   4
HETATM    4  C   UNL     1     -10.736  14.572  66.461  1.00  0.00    -0.312 C  
BRANCH   4   5
HETATM    5  O   UNL     1     -12.000  14.500  67.128  1.00  0.00    -0.406 OA 
BRANCH   5   6
HETATM    6  C   UNL     1     -12.017  13.567  68.143  1.00  0.00    -0.341 A  
HETATM    7  C   UNL     1     -12.270  13.884  69.478  1.00  0.00    -0.356 A  
HETATM    8  C   UNL     1     -12.248  12.910  70.462  1.00  0.00    -0.395 A  
HETATM    9  C   UNL     1     -11.975  11.582  70.148  1.00  0.00    -0.369 A  
HETATM   10  C   UNL     1     -11.760  12.236  67.810  1.00  0.00    -0.403 A  
HETATM   11  C   UNL     1     -11.740  11.248  68.813  1.00  0.00    -0.405 A  
BRANCH   9  12
HETATM   12  O   UNL     1     -11.918  10.574  71.084  1.00  0.00    -0.352 OA 
BRANCH  12  13
HETATM   13  C   UNL     1     -10.791   9.697  70.922  1.00  0.00    -0.339 C  
BRANCH  13  14
HETATM   14  C   UNL     1     -10.773   8.624  72.000  1.00  0.00    -0.427 C  
BRANCH  14  15
HETATM   15  C   UNL     1     -10.058   7.345  71.523  1.00  0.00    -0.185 C  
BRANCH  15  16
HETATM   16  N   UNL     1     -10.956   6.229  71.180  1.00  0.00    -0.268 NA 
HETATM   17  C   UNL     1     -10.250   5.013  70.718  1.00  0.00    -0.229 C  
HETATM   18  C   UNL     1      -9.560   4.226  71.842  1.00  0.00    -0.150 C  
HETATM   19  O   UNL     1     -10.499   3.848  72.855  1.00  0.00    -0.166 OA 
HETATM   20  C   UNL     1     -11.137   5.006  73.406  1.00  0.00    -0.335 C  
HETATM   21  C   UNL     1     -11.828   5.849  72.317  1.00  0.00    -0.208 C  
ENDBRANCH  15  16
ENDBRANCH  14  15
ENDBRANCH  13  14
ENDBRANCH  12  13
ENDBRANCH   9  12
ENDBRANCH   5   6
ENDBRANCH   4   5
ENDBRANCH   3   4
ENDBRANCH   2   3
TORSDOF 9
ENDMDL
MODEL       95
REMARK 921   NORMALIZED FREE ENERGY PREDICTED BY IDOCK:   -4.09 KCAL/MOL
REMARK 922        TOTAL FREE ENERGY PREDICTED BY IDOCK:   -7.07 KCAL/MOL
REMARK 923 INTER-LIGAND FREE ENERGY PREDICTED BY IDOCK:   -6.50 KCAL/MOL
REMARK 924 INTRA-LIGAND FREE ENERGY PREDICTED BY IDOCK:   -0.57 KCAL/MOL
REMARK 927      BINDING AFFINITY PREDICTED BY RF-SCORE:    0.00 PKD
ROOT
HETATM    1  C   UNL     1     -12.519  15.077  74.324  1.00  0.00    -0.504 C  
HETATM    2  C   UNL     1     -12.724  16.231  73.364  1.00  0.00    -0.566 C  
ENDROOT
BRANCH   2   3
HETATM    3  C   UNL     1     -11.984  16.014  72.040  1.00  0.00    -0.622 C  
BRANCH   3   4
HETATM    4  C   UNL     1     -12.876  15.200  71.121  1.00  0.00    -0.401 C  
BRANCH   4   5
HETATM    5  O   UNL     1     -12.140  14.381  70.207  1.00  0.00    -0.289 OA 
BRANCH   5   6
HETATM    6  C   UNL     1     -12.276  13.034  70.467  1.00  0.00    -0.313 A  
HETATM    7  C   UNL     1     -13.085  12.522  71.482  1.00  0.00    -0.373 A  
HETATM    8  C   UNL     1     -13.165  11.160  71.717  1.00  0.00    -0.486 A  
HETATM    9  C   UNL     1     -12.441  10.258  70.943  1.00  0.00    -0.370 A  
HETATM   10  C   UNL     1     -11.560  12.140  69.670  1.00  0.00    -0.361 A  
HETATM   11  C   UNL     1     -11.644  10.755  69.910  1.00  0.00    -0.410 A  
BRANCH   9  12
HETATM   12  O   UNL     1     -12.462   8.895  71.141  1.00  0.00    -0.291 OA 
BRANCH  12  13
HETATM   13  C   UNL     1     -11.606   8.452  72.207  1.00  0.00    -0.383 C  
BRANCH  13  14
HETATM   14  C   UNL     1     -10.153   8.804  71.924  1.00  0.00    -0.409 C  
BRANCH  14  15
HETATM   15  C   UNL     1      -9.361   7.588  71.408  1.00  0.00    -0.141 C  
BRANCH  15  16
HETATM   16  N   UNL     1      -9.265   6.466  72.358  1.00  0.00    -0.138 NA 
HETATM   17  C   UNL     1      -9.147   5.141  71.710  1.00  0.00    -0.138 C  
HETATM   18  C   UNL     1      -7.761   4.861  71.107  1.00  0.00    -0.083 C  
HETATM   19  O   UNL     1      -6.737   4.973  72.102  1.00  0.00    -0.048 OA 
HETATM   20  C   UNL     1      -6.747   6.280  72.689  1.00  0.00    -0.069 C  
HETATM   21  C   UNL     1      -8.123   6.625  73.290  1.00  0.00    -0.107 C  
ENDBRANCH  15  16
ENDBRANCH  14  15
ENDBRANCH  13  14
ENDBRANCH  12  13
ENDBRANCH   9  12
ENDBRANCH   5   6
ENDBRANCH   4   5
ENDBRANCH   3   4
ENDBRANCH   2   3
TORSDOF 9
ENDMDL
MODEL       96
REMARK 921   NORMALIZED FREE ENERGY PREDICTED BY IDOCK:   -4.08 KCAL/MOL
REMARK 922        TOTAL FREE ENERGY PREDICTED BY IDOCK:   -7.07 KCAL/MOL
REMARK 923 INTER-LIGAND FREE ENERGY PREDICTED BY IDOCK:   -6.34 KCAL/MOL
REMARK 924 INTRA-LIGAND FREE ENERGY PREDICTED BY IDOCK:   -0.73 KCAL/MOL
REMARK 927      BINDING AFFINITY PREDICTED BY RF-SCORE:    0.00 PKD
ROOT
HETATM    1  C   UNL     1      -7.366  20.092  66.833  1.00  0.00    -0.282 C  
HETATM    2  C   UNL     1      -8.556  19.174  67.015  1.00  0.00    -0.309 C  
ENDROOT
BRANCH   2   3
HETATM    3  C   UNL     1      -9.840  19.774  66.433  1.00  0.00    -0.556 C  
BRANCH   3   4
HETATM    4  C   UNL     1     -10.742  18.638  65.988  1.00  0.00    -0.246 C  
BRANCH   4   5
HETATM    5  O   UNL     1     -10.016  17.479  65.563  1.00  0.00    -0.552 OA 
BRANCH   5   6
HETATM    6  C   UNL     1     -10.580  16.302  66.007  1.00  0.00    -0.281 A  
HETATM    7  C   UNL     1     -10.854  16.036  67.349  1.00  0.00    -0.277 A  
HETATM    8  C   UNL     1     -11.398  14.825  67.742  1.00  0.00    -0.344 A  
HETATM    9  C   UNL     1     -11.691  13.836  66.807  1.00  0.00    -0.391 A  
HETATM   10  C   UNL     1     -10.887  15.328  65.056  1.00  0.00    -0.457 A  
HETATM   11  C   UNL     1     -11.441  14.098  65.459  1.00  0.00    -0.324 A  
BRANCH   9  12
HETATM   12  O   UNL     1     -12.213  12.605  67.138  1.00  0.00    -0.445 OA 
BRANCH  12  13
HETATM   13  C   UNL     1     -11.880  12.175  68.468  1.00  0.00    -0.310 C  
BRANCH  13  14
HETATM   14  C   UNL     1     -11.445  10.716  68.478  1.00  0.00    -0.333 C  
BRANCH  14  15
HETATM   15  C   UNL     1     -10.530  10.384  67.285  1.00  0.00    -0.252 C  
BRANCH  15  16
HETATM   16  N   UNL     1     -10.353   8.945  67.026  1.00  0.00    -0.268 NA 
HETATM   17  C   UNL     1      -9.396   8.646  65.937  1.00  0.00    -0.195 C  
HETATM   18  C   UNL     1      -7.923   8.844  66.327  1.00  0.00    -0.103 C  
HETATM   19  O   UNL     1      -7.582   8.044  67.464  1.00  0.00    -0.098 OA 
HETATM   20  C   UNL     1      -8.419   8.372  68.579  1.00  0.00    -0.132 C  
HETATM   21  C   UNL     1      -9.913   8.213  68.238  1.00  0.00    -0.186 C  
ENDBRANCH  15  16
ENDBRANCH  14  15
ENDBRANCH  13  14
ENDBRANCH  12  13
ENDBRANCH   9  12
ENDBRANCH   5   6
ENDBRANCH   4   5
ENDBRANCH   3   4
ENDBRANCH   2   3
TORSDOF 9
ENDMDL
MODEL       97
REMARK 921   NORMALIZED FREE ENERGY PREDICTED BY IDOCK:   -4.08 KCAL/MOL
REMARK 922        TOTAL FREE ENERGY PREDICTED BY IDOCK:   -7.07 KCAL/MOL
REMARK 923 INTER-LIGAND FREE ENERGY PREDICTED BY IDOCK:   -6.54 KCAL/MOL
REMARK 924 INTRA-LIGAND FREE ENERGY PREDICTED BY IDOCK:   -0.53 KCAL/MOL
REMARK 927      BINDING AFFINITY PREDICTED BY RF-SCORE:    0.00 PKD
ROOT
HETATM    1  C   UNL     1      -9.514   3.539  72.152  1.00  0.00    -0.191 C  
HETATM    2  C   UNL     1      -9.550   4.934  71.565  1.00  0.00    -0.218 C  
ENDROOT
BRANCH   2   3
HETATM    3  C   UNL     1     -10.973   5.500  71.516  1.00  0.00    -0.220 C  
BRANCH   3   4
HETATM    4  C   UNL     1     -11.398   5.849  72.931  1.00  0.00    -0.226 C  
BRANCH   4   5
HETATM    5  O   UNL     1     -10.856   7.092  73.389  1.00  0.00    -0.351 OA 
BRANCH   5   6
HETATM    6  C   UNL     1     -11.053   8.123  72.495  1.00  0.00    -0.377 A  
HETATM    7  C   UNL     1     -10.039   8.660  71.701  1.00  0.00    -0.365 A  
HETATM    8  C   UNL     1     -10.287   9.714  70.838  1.00  0.00    -0.334 A  
HETATM    9  C   UNL     1     -11.559  10.268  70.734  1.00  0.00    -0.355 A  
HETATM   10  C   UNL     1     -12.338   8.656  72.386  1.00  0.00    -0.426 A  
HETATM   11  C   UNL     1     -12.587   9.726  71.507  1.00  0.00    -0.493 A  
BRANCH   9  12
HETATM   12  O   UNL     1     -11.863  11.329  69.910  1.00  0.00    -0.297 OA 
BRANCH  12  13
HETATM   13  C   UNL     1     -11.619  11.068  68.518  1.00  0.00    -0.310 C  
BRANCH  13  14
HETATM   14  C   UNL     1     -11.215  12.340  67.786  1.00  0.00    -0.331 C  
BRANCH  14  15
HETATM   15  C   UNL     1     -11.358  13.585  68.682  1.00  0.00    -0.288 C  
BRANCH  15  16
HETATM   16  N   UNL     1     -11.722  14.820  67.966  1.00  0.00    -0.342 NA 
HETATM   17  C   UNL     1     -11.774  16.020  68.831  1.00  0.00    -0.319 C  
HETATM   18  C   UNL     1     -10.393  16.559  69.235  1.00  0.00    -0.318 C  
HETATM   19  O   UNL     1      -9.604  16.866  68.080  1.00  0.00    -0.243 OA 
HETATM   20  C   UNL     1      -9.441  15.703  67.260  1.00  0.00    -0.216 C  
HETATM   21  C   UNL     1     -10.797  15.104  66.843  1.00  0.00    -0.317 C  
ENDBRANCH  15  16
ENDBRANCH  14  15
ENDBRANCH  13  14
ENDBRANCH  12  13
ENDBRANCH   9  12
ENDBRANCH   5   6
ENDBRANCH   4   5
ENDBRANCH   3   4
ENDBRANCH   2   3
TORSDOF 9
ENDMDL
MODEL       98
REMARK 921   NORMALIZED FREE ENERGY PREDICTED BY IDOCK:   -4.08 KCAL/MOL
REMARK 922        TOTAL FREE ENERGY PREDICTED BY IDOCK:   -7.06 KCAL/MOL
REMARK 923 INTER-LIGAND FREE ENERGY PREDICTED BY IDOCK:   -6.21 KCAL/MOL
REMARK 924 INTRA-LIGAND FREE ENERGY PREDICTED BY IDOCK:   -0.85 KCAL/MOL
REMARK 927      BINDING AFFINITY PREDICTED BY RF-SCORE:    0.00 PKD
ROOT
HETATM    1  C   UNL     1     -11.391  15.132  64.598  1.00  0.00    -0.362 C  
HETATM    2  C   UNL     1     -11.928  13.721  64.487  1.00  0.00    -0.458 C  
ENDROOT
BRANCH   2   3
HETATM    3  C   UNL     1     -12.309  13.142  65.853  1.00  0.00    -0.462 C  
BRANCH   3   4
HETATM    4  C   UNL     1     -11.235  12.155  66.273  1.00  0.00    -0.334 C  
BRANCH   4   5
HETATM    5  O   UNL     1     -10.551  12.546  67.468  1.00  0.00    -0.216 OA 
BRANCH   5   6
HETATM    6  C   UNL     1     -10.880  11.760  68.553  1.00  0.00    -0.224 A  
HETATM    7  C   UNL     1     -11.986  11.998  69.371  1.00  0.00    -0.334 A  
HETATM    8  C   UNL     1     -12.255  11.192  70.463  1.00  0.00    -0.475 A  
HETATM    9  C   UNL     1     -11.430  10.116  70.778  1.00  0.00    -0.357 A  
HETATM   10  C   UNL     1     -10.056  10.673  68.844  1.00  0.00    -0.215 A  
HETATM   11  C   UNL     1     -10.333   9.854  69.955  1.00  0.00    -0.320 A  
BRANCH   9  12
HETATM   12  O   UNL     1     -11.633   9.291  71.862  1.00  0.00    -0.372 OA 
BRANCH  12  13
HETATM   13  C   UNL     1     -12.913   8.638  71.860  1.00  0.00    -0.372 C  
BRANCH  13  14
HETATM   14  C   UNL     1     -12.800   7.214  71.337  1.00  0.00    -0.431 C  
BRANCH  14  15
HETATM   15  C   UNL     1     -11.769   6.393  72.135  1.00  0.00    -0.321 C  
BRANCH  15  16
HETATM   16  N   UNL     1     -10.829   5.615  71.309  1.00  0.00    -0.245 NA 
HETATM   17  C   UNL     1      -9.760   6.431  70.690  1.00  0.00    -0.179 C  
HETATM   18  C   UNL     1      -8.665   6.875  71.672  1.00  0.00    -0.124 C  
HETATM   19  O   UNL     1      -8.061   5.745  72.312  1.00  0.00    -0.106 OA 
HETATM   20  C   UNL     1      -9.047   4.978  73.012  1.00  0.00    -0.124 C  
HETATM   21  C   UNL     1     -10.185   4.524  72.079  1.00  0.00    -0.181 C  
ENDBRANCH  15  16
ENDBRANCH  14  15
ENDBRANCH  13  14
ENDBRANCH  12  13
ENDBRANCH   9  12
ENDBRANCH   5   6
ENDBRANCH   4   5
ENDBRANCH   3   4
ENDBRANCH   2   3
TORSDOF 9
ENDMDL
MODEL       99
REMARK 921   NORMALIZED FREE ENERGY PREDICTED BY IDOCK:   -4.08 KCAL/MOL
REMARK 922        TOTAL FREE ENERGY PREDICTED BY IDOCK:   -7.06 KCAL/MOL
REMARK 923 INTER-LIGAND FREE ENERGY PREDICTED BY IDOCK:   -6.18 KCAL/MOL
REMARK 924 INTRA-LIGAND FREE ENERGY PREDICTED BY IDOCK:   -0.88 KCAL/MOL
REMARK 927      BINDING AFFINITY PREDICTED BY RF-SCORE:    0.00 PKD
ROOT
HETATM    1  C   UNL     1     -12.359  12.216  63.520  1.00  0.00    -0.682 C  
HETATM    2  C   UNL     1     -10.848  12.211  63.606  1.00  0.00    -0.523 C  
ENDROOT
BRANCH   2   3
HETATM    3  C   UNL     1     -10.302  10.849  64.047  1.00  0.00    -0.417 C  
BRANCH   3   4
HETATM    4  C   UNL     1     -10.405  10.758  65.558  1.00  0.00    -0.241 C  
BRANCH   4   5
HETATM    5  O   UNL     1      -9.147  10.500  66.191  1.00  0.00    -0.155 OA 
BRANCH   5   6
HETATM    6  C   UNL     1      -8.538  11.646  66.658  1.00  0.00    -0.179 A  
HETATM    7  C   UNL     1      -9.205  12.860  66.824  1.00  0.00    -0.230 A  
HETATM    8  C   UNL     1      -8.538  13.988  67.273  1.00  0.00    -0.228 A  
HETATM    9  C   UNL     1      -7.180  13.942  67.574  1.00  0.00    -0.161 A  
HETATM   10  C   UNL     1      -7.181  11.580  66.975  1.00  0.00    -0.146 A  
HETATM   11  C   UNL     1      -6.506  12.728  67.432  1.00  0.00    -0.141 A  
BRANCH   9  12
HETATM   12  O   UNL     1      -6.458  15.033  68.004  1.00  0.00    -0.119 OA 
BRANCH  12  13
HETATM   13  C   UNL     1      -7.059  15.726  69.110  1.00  0.00    -0.176 C  
BRANCH  13  14
HETATM   14  C   UNL     1      -6.823  17.226  69.011  1.00  0.00    -0.245 C  
BRANCH  14  15
HETATM   15  C   UNL     1      -7.773  17.888  67.994  1.00  0.00    -0.245 C  
BRANCH  15  16
HETATM   16  N   UNL     1      -9.149  18.091  68.479  1.00  0.00    -0.288 NA 
HETATM   17  C   UNL     1      -9.512  19.513  68.671  1.00  0.00    -0.397 C  
HETATM   18  C   UNL     1      -9.769  20.275  67.362  1.00  0.00    -0.444 C  
HETATM   19  O   UNL     1     -10.800  19.643  66.595  1.00  0.00    -0.462 OA 
HETATM   20  C   UNL     1     -10.444  18.288  66.296  1.00  0.00    -0.376 C  
HETATM   21  C   UNL     1     -10.152  17.480  67.575  1.00  0.00    -0.326 C  
ENDBRANCH  15  16
ENDBRANCH  14  15
ENDBRANCH  13  14
ENDBRANCH  12  13
ENDBRANCH   9  12
ENDBRANCH   5   6
ENDBRANCH   4   5
ENDBRANCH   3   4
ENDBRANCH   2   3
TORSDOF 9
ENDMDL
MODEL      100
REMARK 921   NORMALIZED FREE ENERGY PREDICTED BY IDOCK:   -4.08 KCAL/MOL
REMARK 922        TOTAL FREE ENERGY PREDICTED BY IDOCK:   -7.06 KCAL/MOL
REMARK 923 INTER-LIGAND FREE ENERGY PREDICTED BY IDOCK:   -6.13 KCAL/MOL
REMARK 924 INTRA-LIGAND FREE ENERGY PREDICTED BY IDOCK:   -0.93 KCAL/MOL
REMARK 927      BINDING AFFINITY PREDICTED BY RF-SCORE:    0.00 PKD
ROOT
HETATM    1  C   UNL     1      -9.692   9.766  65.284  1.00  0.00    -0.371 C  
HETATM    2  C   UNL     1      -9.377   8.524  66.090  1.00  0.00    -0.279 C  
ENDROOT
BRANCH   2   3
HETATM    3  C   UNL     1     -10.534   8.131  67.015  1.00  0.00    -0.396 C  
BRANCH   3   4
HETATM    4  C   UNL     1     -10.074   8.293  68.453  1.00  0.00    -0.201 C  
BRANCH   4   5
HETATM    5  O   UNL     1     -10.827   9.275  69.174  1.00  0.00    -0.213 OA 
BRANCH   5   6
HETATM    6  C   UNL     1     -10.532  10.565  68.787  1.00  0.00    -0.196 A  
HETATM    7  C   UNL     1      -9.234  11.072  68.720  1.00  0.00    -0.167 A  
HETATM    8  C   UNL     1      -8.997  12.385  68.349  1.00  0.00    -0.133 A  
HETATM    9  C   UNL     1     -10.049  13.239  68.030  1.00  0.00    -0.235 A  
HETATM   10  C   UNL     1     -11.595  11.404  68.451  1.00  0.00    -0.385 A  
HETATM   11  C   UNL     1     -11.351  12.737  68.074  1.00  0.00    -0.335 A  
BRANCH   9  12
HETATM   12  O   UNL     1      -9.879  14.559  67.675  1.00  0.00    -0.220 OA 
BRANCH  12  13
HETATM   13  C   UNL     1      -9.364  14.738  66.346  1.00  0.00    -0.291 C  
BRANCH  13  14
HETATM   14  C   UNL     1     -10.364  15.475  65.467  1.00  0.00    -0.419 C  
BRANCH  14  15
HETATM   15  C   UNL     1     -10.223  17.003  65.597  1.00  0.00    -0.176 C  
BRANCH  15  16
HETATM   16  N   UNL     1      -9.521  17.456  66.811  1.00  0.00    -0.264 NA 
HETATM   17  C   UNL     1      -8.418  18.406  66.546  1.00  0.00    -0.270 C  
HETATM   18  C   UNL     1      -8.888  19.824  66.185  1.00  0.00    -0.336 C  
HETATM   19  O   UNL     1      -9.718  20.368  67.218  1.00  0.00    -0.419 OA 
HETATM   20  C   UNL     1     -10.858  19.529  67.440  1.00  0.00    -0.414 C  
HETATM   21  C   UNL     1     -10.447  18.086  67.784  1.00  0.00    -0.408 C  
ENDBRANCH  15  16
ENDBRANCH  14  15
ENDBRANCH  13  14
ENDBRANCH  12  13
ENDBRANCH   9  12
ENDBRANCH   5   6
ENDBRANCH   4   5
ENDBRANCH   3   4
ENDBRANCH   2   3
TORSDOF 9
ENDMDL
MODEL      101
REMARK 921   NORMALIZED FREE ENERGY PREDICTED BY IDOCK:   -4.07 KCAL/MOL
REMARK 922        TOTAL FREE ENERGY PREDICTED BY IDOCK:   -7.06 KCAL/MOL
REMARK 923 INTER-LIGAND FREE ENERGY PREDICTED BY IDOCK:   -6.09 KCAL/MOL
REMARK 924 INTRA-LIGAND FREE ENERGY PREDICTED BY IDOCK:   -0.96 KCAL/MOL
REMARK 927      BINDING AFFINITY PREDICTED BY RF-SCORE:    0.00 PKD
ROOT
HETATM    1  C   UNL     1      -8.677  15.145  66.618  1.00  0.00    -0.308 C  
HETATM    2  C   UNL     1      -9.189  16.460  66.067  1.00  0.00    -0.328 C  
ENDROOT
BRANCH   2   3
HETATM    3  C   UNL     1     -10.693  16.415  65.778  1.00  0.00    -0.245 C  
BRANCH   3   4
HETATM    4  C   UNL     1     -10.971  15.236  64.863  1.00  0.00    -0.430 C  
BRANCH   4   5
HETATM    5  O   UNL     1     -12.121  14.480  65.256  1.00  0.00    -0.372 OA 
BRANCH   5   6
HETATM    6  C   UNL     1     -11.795  13.338  65.957  1.00  0.00    -0.395 A  
HETATM    7  C   UNL     1     -12.079  13.156  67.311  1.00  0.00    -0.329 A  
HETATM    8  C   UNL     1     -11.706  11.998  67.971  1.00  0.00    -0.398 A  
HETATM    9  C   UNL     1     -11.038  10.977  67.302  1.00  0.00    -0.294 A  
HETATM   10  C   UNL     1     -11.143  12.315  65.268  1.00  0.00    -0.359 A  
HETATM   11  C   UNL     1     -10.766  11.138  65.942  1.00  0.00    -0.261 A  
BRANCH   9  12
HETATM   12  O   UNL     1     -10.623   9.812  67.908  1.00  0.00    -0.227 OA 
BRANCH  12  13
HETATM   13  C   UNL     1      -9.376   9.939  68.611  1.00  0.00    -0.149 C  
BRANCH  13  14
HETATM   14  C   UNL     1      -9.292   8.945  69.761  1.00  0.00    -0.169 C  
BRANCH  14  15
HETATM   15  C   UNL     1     -10.644   8.251  70.016  1.00  0.00    -0.235 C  
BRANCH  15  16
HETATM   16  N   UNL     1     -11.232   8.515  71.340  1.00  0.00    -0.251 NA 
HETATM   17  C   UNL     1     -12.441   7.712  71.629  1.00  0.00    -0.335 C  
HETATM   18  C   UNL     1     -12.150   6.239  71.956  1.00  0.00    -0.266 C  
HETATM   19  O   UNL     1     -11.255   6.128  73.069  1.00  0.00    -0.242 OA 
HETATM   20  C   UNL     1     -10.024   6.808  72.793  1.00  0.00    -0.173 C  
HETATM   21  C   UNL     1     -10.258   8.287  72.435  1.00  0.00    -0.327 C  
ENDBRANCH  15  16
ENDBRANCH  14  15
ENDBRANCH  13  14
ENDBRANCH  12  13
ENDBRANCH   9  12
ENDBRANCH   5   6
ENDBRANCH   4   5
ENDBRANCH   3   4
ENDBRANCH   2   3
TORSDOF 9
ENDMDL
MODEL      102
REMARK 921   NORMALIZED FREE ENERGY PREDICTED BY IDOCK:   -4.05 KCAL/MOL
REMARK 922        TOTAL FREE ENERGY PREDICTED BY IDOCK:   -7.02 KCAL/MOL
REMARK 923 INTER-LIGAND FREE ENERGY PREDICTED BY IDOCK:   -6.19 KCAL/MOL
REMARK 924 INTRA-LIGAND FREE ENERGY PREDICTED BY IDOCK:   -0.82 KCAL/MOL
REMARK 927      BINDING AFFINITY PREDICTED BY RF-SCORE:    0.00 PKD
ROOT
HETATM    1  C   UNL     1     -10.188  17.170  68.513  1.00  0.00    -0.346 C  
HETATM    2  C   UNL     1     -10.518  15.730  68.180  1.00  0.00    -0.263 C  
ENDROOT
BRANCH   2   3
HETATM    3  C   UNL     1     -11.785  15.251  68.898  1.00  0.00    -0.362 C  
BRANCH   3   4
HETATM    4  C   UNL     1     -11.912  13.752  68.695  1.00  0.00    -0.366 C  
BRANCH   4   5
HETATM    5  O   UNL     1     -11.828  13.363  67.319  1.00  0.00    -0.352 OA 
BRANCH   5   6
HETATM    6  C   UNL     1     -11.288  12.106  67.151  1.00  0.00    -0.331 A  
HETATM    7  C   UNL     1     -10.695  11.674  65.964  1.00  0.00    -0.328 A  
HETATM    8  C   UNL     1     -10.191  10.390  65.841  1.00  0.00    -0.302 A  
HETATM    9  C   UNL     1     -10.258   9.492  66.902  1.00  0.00    -0.249 A  
HETATM   10  C   UNL     1     -11.345  11.222  68.229  1.00  0.00    -0.359 A  
HETATM   11  C   UNL     1     -10.830   9.918  68.102  1.00  0.00    -0.282 A  
BRANCH   9  12
HETATM   12  O   UNL     1      -9.794   8.197  66.834  1.00  0.00    -0.200 OA 
BRANCH  12  13
HETATM   13  C   UNL     1     -10.826   7.205  66.958  1.00  0.00    -0.312 C  
BRANCH  13  14
HETATM   14  C   UNL     1     -10.452   6.152  67.991  1.00  0.00    -0.284 C  
BRANCH  14  15
HETATM   15  C   UNL     1     -10.992   6.507  69.390  1.00  0.00    -0.337 C  
BRANCH  15  16
HETATM   16  N   UNL     1      -9.965   6.599  70.442  1.00  0.00    -0.175 NA 
HETATM   17  C   UNL     1      -9.733   7.975  70.933  1.00  0.00    -0.164 C  
HETATM   18  C   UNL     1     -10.844   8.507  71.852  1.00  0.00    -0.322 C  
HETATM   19  O   UNL     1     -11.030   7.647  72.982  1.00  0.00    -0.371 OA 
HETATM   20  C   UNL     1     -11.358   6.319  72.554  1.00  0.00    -0.275 C  
HETATM   21  C   UNL     1     -10.287   5.743  71.609  1.00  0.00    -0.214 C  
ENDBRANCH  15  16
ENDBRANCH  14  15
ENDBRANCH  13  14
ENDBRANCH  12  13
ENDBRANCH   9  12
ENDBRANCH   5   6
ENDBRANCH   4   5
ENDBRANCH   3   4
ENDBRANCH   2   3
TORSDOF 9
ENDMDL
MODEL      103
REMARK 921   NORMALIZED FREE ENERGY PREDICTED BY IDOCK:   -4.05 KCAL/MOL
REMARK 922        TOTAL FREE ENERGY PREDICTED BY IDOCK:   -7.01 KCAL/MOL
REMARK 923 INTER-LIGAND FREE ENERGY PREDICTED BY IDOCK:   -6.49 KCAL/MOL
REMARK 924 INTRA-LIGAND FREE ENERGY PREDICTED BY IDOCK:   -0.53 KCAL/MOL
REMARK 927      BINDING AFFINITY PREDICTED BY RF-SCORE:    0.00 PKD
ROOT
HETATM    1  C   UNL     1     -11.855   6.694  70.995  1.00  0.00    -0.427 C  
HETATM    2  C   UNL     1     -11.271   8.056  71.304  1.00  0.00    -0.287 C  
ENDROOT
BRANCH   2   3
HETATM    3  C   UNL     1     -10.216   8.476  70.276  1.00  0.00    -0.206 C  
BRANCH   3   4
HETATM    4  C   UNL     1     -10.294   9.981  70.094  1.00  0.00    -0.266 C  
BRANCH   4   5
HETATM    5  O   UNL     1     -11.639  10.468  70.031  1.00  0.00    -0.265 OA 
BRANCH   5   6
HETATM    6  C   UNL     1     -11.706  11.818  69.756  1.00  0.00    -0.335 A  
HETATM    7  C   UNL     1     -12.344  12.742  70.583  1.00  0.00    -0.381 A  
HETATM    8  C   UNL     1     -12.403  14.084  70.246  1.00  0.00    -0.425 A  
HETATM    9  C   UNL     1     -11.824  14.551  69.069  1.00  0.00    -0.318 A  
HETATM   10  C   UNL     1     -11.103  12.275  68.583  1.00  0.00    -0.291 A  
HETATM   11  C   UNL     1     -11.164  13.639  68.244  1.00  0.00    -0.302 A  
BRANCH   9  12
HETATM   12  O   UNL     1     -11.868  15.868  68.669  1.00  0.00    -0.388 OA 
BRANCH  12  13
HETATM   13  C   UNL     1     -10.700  16.293  67.948  1.00  0.00    -0.329 C  
BRANCH  13  14
HETATM   14  C   UNL     1     -10.289  17.701  68.352  1.00  0.00    -0.375 C  
BRANCH  14  15
HETATM   15  C   UNL     1      -8.915  18.085  67.771  1.00  0.00    -0.255 C  
BRANCH  15  16
HETATM   16  N   UNL     1      -8.351  19.338  68.300  1.00  0.00    -0.325 NA 
HETATM   17  C   UNL     1      -7.012  19.180  68.913  1.00  0.00    -0.336 C  
HETATM   18  C   UNL     1      -5.876  18.998  67.895  1.00  0.00    -0.198 C  
HETATM   19  O   UNL     1      -5.829  20.096  66.977  1.00  0.00    -0.170 OA 
HETATM   20  C   UNL     1      -7.075  20.226  66.283  1.00  0.00    -0.270 C  
HETATM   21  C   UNL     1      -8.257  20.389  67.258  1.00  0.00    -0.336 C  
ENDBRANCH  15  16
ENDBRANCH  14  15
ENDBRANCH  13  14
ENDBRANCH  12  13
ENDBRANCH   9  12
ENDBRANCH   5   6
ENDBRANCH   4   5
ENDBRANCH   3   4
ENDBRANCH   2   3
TORSDOF 9
ENDMDL
MODEL      104
REMARK 921   NORMALIZED FREE ENERGY PREDICTED BY IDOCK:   -4.04 KCAL/MOL
REMARK 922        TOTAL FREE ENERGY PREDICTED BY IDOCK:   -7.00 KCAL/MOL
REMARK 923 INTER-LIGAND FREE ENERGY PREDICTED BY IDOCK:   -5.78 KCAL/MOL
REMARK 924 INTRA-LIGAND FREE ENERGY PREDICTED BY IDOCK:   -1.22 KCAL/MOL
REMARK 927      BINDING AFFINITY PREDICTED BY RF-SCORE:    0.00 PKD
ROOT
HETATM    1  C   UNL     1     -10.773  11.491  63.673  1.00  0.00    -0.491 C  
HETATM    2  C   UNL     1     -12.202  11.971  63.536  1.00  0.00    -0.653 C  
ENDROOT
BRANCH   2   3
HETATM    3  C   UNL     1     -12.311  13.494  63.667  1.00  0.00    -0.377 C  
BRANCH   3   4
HETATM    4  C   UNL     1     -12.779  13.822  65.073  1.00  0.00    -0.336 C  
BRANCH   4   5
HETATM    5  O   UNL     1     -11.802  14.538  65.836  1.00  0.00    -0.369 OA 
BRANCH   5   6
HETATM    6  C   UNL     1     -10.947  13.706  66.526  1.00  0.00    -0.295 A  
HETATM    7  C   UNL     1     -11.371  12.587  67.243  1.00  0.00    -0.373 A  
HETATM    8  C   UNL     1     -10.470  11.799  67.940  1.00  0.00    -0.219 A  
HETATM    9  C   UNL     1      -9.111  12.101  67.944  1.00  0.00    -0.185 A  
HETATM   10  C   UNL     1      -9.584  14.009  66.505  1.00  0.00    -0.307 A  
HETATM   11  C   UNL     1      -8.671  13.206  67.214  1.00  0.00    -0.210 A  
BRANCH   9  12
HETATM   12  O   UNL     1      -8.171  11.369  68.635  1.00  0.00    -0.150 OA 
BRANCH  12  13
HETATM   13  C   UNL     1      -7.533  10.353  67.843  1.00  0.00    -0.087 C  
BRANCH  13  14
HETATM   14  C   UNL     1      -7.921   8.962  68.321  1.00  0.00    -0.105 C  
BRANCH  14  15
HETATM   15  C   UNL     1      -8.729   8.196  67.256  1.00  0.00    -0.124 C  
BRANCH  15  16
HETATM   16  N   UNL     1     -10.172   8.090  67.536  1.00  0.00    -0.223 NA 
HETATM   17  C   UNL     1     -10.794   6.854  67.011  1.00  0.00    -0.366 C  
HETATM   18  C   UNL     1     -10.456   5.592  67.821  1.00  0.00    -0.211 C  
HETATM   19  O   UNL     1     -10.838   5.746  69.193  1.00  0.00    -0.304 OA 
HETATM   20  C   UNL     1     -10.178   6.877  69.774  1.00  0.00    -0.196 C  
HETATM   21  C   UNL     1     -10.463   8.170  68.987  1.00  0.00    -0.198 C  
ENDBRANCH  15  16
ENDBRANCH  14  15
ENDBRANCH  13  14
ENDBRANCH  12  13
ENDBRANCH   9  12
ENDBRANCH   5   6
ENDBRANCH   4   5
ENDBRANCH   3   4
ENDBRANCH   2   3
TORSDOF 9
ENDMDL
MODEL      105
REMARK 921   NORMALIZED FREE ENERGY PREDICTED BY IDOCK:   -4.03 KCAL/MOL
REMARK 922        TOTAL FREE ENERGY PREDICTED BY IDOCK:   -6.98 KCAL/MOL
REMARK 923 INTER-LIGAND FREE ENERGY PREDICTED BY IDOCK:   -6.37 KCAL/MOL
REMARK 924 INTRA-LIGAND FREE ENERGY PREDICTED BY IDOCK:   -0.61 KCAL/MOL
REMARK 927      BINDING AFFINITY PREDICTED BY RF-SCORE:    0.00 PKD
ROOT
HETATM    1  C   UNL     1      -9.077   3.247  66.081  1.00  0.00    -0.156 C  
HETATM    2  C   UNL     1     -10.141   4.199  65.576  1.00  0.00    -0.198 C  
ENDROOT
BRANCH   2   3
HETATM    3  C   UNL     1      -9.873   5.644  66.011  1.00  0.00    -0.056 C  
BRANCH   3   4
HETATM    4  C   UNL     1     -10.877   6.014  67.088  1.00  0.00    -0.329 C  
BRANCH   4   5
HETATM    5  O   UNL     1     -10.381   5.802  68.414  1.00  0.00    -0.178 OA 
BRANCH   5   6
HETATM    6  C   UNL     1     -10.710   6.825  69.278  1.00  0.00    -0.253 A  
HETATM    7  C   UNL     1     -10.026   8.040  69.331  1.00  0.00    -0.190 A  
HETATM    8  C   UNL     1     -10.383   9.023  70.238  1.00  0.00    -0.243 A  
HETATM    9  C   UNL     1     -11.440   8.830  71.122  1.00  0.00    -0.286 A  
HETATM   10  C   UNL     1     -11.785   6.625  70.145  1.00  0.00    -0.412 A  
HETATM   11  C   UNL     1     -12.146   7.628  71.064  1.00  0.00    -0.282 A  
BRANCH   9  12
HETATM   12  O   UNL     1     -11.829   9.762  72.059  1.00  0.00    -0.261 OA 
BRANCH  12  13
HETATM   13  C   UNL     1     -13.046  10.448  71.722  1.00  0.00    -0.462 C  
BRANCH  13  14
HETATM   14  C   UNL     1     -12.753  11.785  71.057  1.00  0.00    -0.372 C  
BRANCH  14  15
HETATM   15  C   UNL     1     -13.214  12.969  71.929  1.00  0.00    -0.430 C  
BRANCH  15  16
HETATM   16  N   UNL     1     -13.586  14.180  71.176  1.00  0.00    -0.254 NA 
HETATM   17  C   UNL     1     -13.773  15.378  72.025  1.00  0.00    -0.509 C  
HETATM   18  C   UNL     1     -12.461  15.994  72.536  1.00  0.00    -0.473 C  
HETATM   19  O   UNL     1     -11.599  16.340  71.447  1.00  0.00    -0.448 OA 
HETATM   20  C   UNL     1     -11.305  15.184  70.652  1.00  0.00    -0.293 C  
HETATM   21  C   UNL     1     -12.588  14.510  70.130  1.00  0.00    -0.288 C  
ENDBRANCH  15  16
ENDBRANCH  14  15
ENDBRANCH  13  14
ENDBRANCH  12  13
ENDBRANCH   9  12
ENDBRANCH   5   6
ENDBRANCH   4   5
ENDBRANCH   3   4
ENDBRANCH   2   3
TORSDOF 9
ENDMDL
MODEL      106
REMARK 921   NORMALIZED FREE ENERGY PREDICTED BY IDOCK:   -4.02 KCAL/MOL
REMARK 922        TOTAL FREE ENERGY PREDICTED BY IDOCK:   -6.98 KCAL/MOL
REMARK 923 INTER-LIGAND FREE ENERGY PREDICTED BY IDOCK:   -6.89 KCAL/MOL
REMARK 924 INTRA-LIGAND FREE ENERGY PREDICTED BY IDOCK:   -0.09 KCAL/MOL
REMARK 927      BINDING AFFINITY PREDICTED BY RF-SCORE:    0.00 PKD
ROOT
HETATM    1  C   UNL     1      -9.609   9.993  64.919  1.00  0.00    -0.375 C  
HETATM    2  C   UNL     1      -9.415   9.786  66.406  1.00  0.00    -0.237 C  
ENDROOT
BRANCH   2   3
HETATM    3  C   UNL     1     -10.696   9.295  67.090  1.00  0.00    -0.222 C  
BRANCH   3   4
HETATM    4  C   UNL     1     -11.035  10.255  68.216  1.00  0.00    -0.264 C  
BRANCH   4   5
HETATM    5  O   UNL     1     -12.086  11.166  67.878  1.00  0.00    -0.627 OA 
BRANCH   5   6
HETATM    6  C   UNL     1     -11.631  12.282  67.208  1.00  0.00    -0.357 A  
HETATM    7  C   UNL     1     -10.714  13.185  67.746  1.00  0.00    -0.252 A  
HETATM    8  C   UNL     1     -10.310  14.304  67.038  1.00  0.00    -0.267 A  
HETATM    9  C   UNL     1     -10.807  14.560  65.763  1.00  0.00    -0.315 A  
HETATM   10  C   UNL     1     -12.123  12.515  65.923  1.00  0.00    -0.420 A  
HETATM   11  C   UNL     1     -11.710  13.653  65.205  1.00  0.00    -0.346 A  
BRANCH   9  12
HETATM   12  O   UNL     1     -10.460  15.666  65.018  1.00  0.00    -0.402 OA 
BRANCH  12  13
HETATM   13  C   UNL     1     -10.190  16.834  65.810  1.00  0.00    -0.291 C  
BRANCH  13  14
HETATM   14  C   UNL     1      -8.733  16.872  66.249  1.00  0.00    -0.321 C  
BRANCH  14  15
HETATM   15  C   UNL     1      -8.113  18.268  66.052  1.00  0.00    -0.080 C  
BRANCH  15  16
HETATM   16  N   UNL     1      -7.811  18.990  67.300  1.00  0.00    -0.244 NA 
HETATM   17  C   UNL     1      -8.309  20.384  67.320  1.00  0.00    -0.335 C  
HETATM   18  C   UNL     1      -9.828  20.503  67.517  1.00  0.00    -0.394 C  
HETATM   19  O   UNL     1     -10.240  19.856  68.727  1.00  0.00    -0.451 OA 
HETATM   20  C   UNL     1      -9.868  18.473  68.709  1.00  0.00    -0.376 C  
HETATM   21  C   UNL     1      -8.354  18.292  68.490  1.00  0.00    -0.310 C  
ENDBRANCH  15  16
ENDBRANCH  14  15
ENDBRANCH  13  14
ENDBRANCH  12  13
ENDBRANCH   9  12
ENDBRANCH   5   6
ENDBRANCH   4   5
ENDBRANCH   3   4
ENDBRANCH   2   3
TORSDOF 9
ENDMDL
MODEL      107
REMARK 921   NORMALIZED FREE ENERGY PREDICTED BY IDOCK:   -4.01 KCAL/MOL
REMARK 922        TOTAL FREE ENERGY PREDICTED BY IDOCK:   -6.96 KCAL/MOL
REMARK 923 INTER-LIGAND FREE ENERGY PREDICTED BY IDOCK:   -5.96 KCAL/MOL
REMARK 924 INTRA-LIGAND FREE ENERGY PREDICTED BY IDOCK:   -1.00 KCAL/MOL
REMARK 927      BINDING AFFINITY PREDICTED BY RF-SCORE:    0.00 PKD
ROOT
HETATM    1  C   UNL     1     -11.428  11.975  63.521  1.00  0.00    -0.536 C  
HETATM    2  C   UNL     1     -10.032  11.611  63.980  1.00  0.00    -0.328 C  
ENDROOT
BRANCH   2   3
HETATM    3  C   UNL     1     -10.013  10.301  64.776  1.00  0.00    -0.392 C  
BRANCH   3   4
HETATM    4  C   UNL     1      -9.711  10.627  66.227  1.00  0.00    -0.199 C  
BRANCH   4   5
HETATM    5  O   UNL     1     -10.873  10.599  67.062  1.00  0.00    -0.267 OA 
BRANCH   5   6
HETATM    6  C   UNL     1     -11.217  11.845  67.542  1.00  0.00    -0.296 A  
HETATM    7  C   UNL     1     -12.051  12.731  66.859  1.00  0.00    -0.267 A  
HETATM    8  C   UNL     1     -12.343  13.982  67.376  1.00  0.00    -0.150 A  
HETATM    9  C   UNL     1     -11.814  14.392  68.596  1.00  0.00    -0.331 A  
HETATM   10  C   UNL     1     -10.696  12.235  68.776  1.00  0.00    -0.247 A  
HETATM   11  C   UNL     1     -10.996  13.506  69.299  1.00  0.00    -0.169 A  
BRANCH   9  12
HETATM   12  O   UNL     1     -12.051  15.630  69.152  1.00  0.00    -0.344 OA 
BRANCH  12  13
HETATM   13  C   UNL     1     -10.924  16.171  69.859  1.00  0.00    -0.362 C  
BRANCH  13  14
HETATM   14  C   UNL     1     -10.079  17.053  68.950  1.00  0.00    -0.307 C  
BRANCH  14  15
HETATM   15  C   UNL     1     -10.836  17.440  67.665  1.00  0.00    -0.233 C  
BRANCH  15  16
HETATM   16  N   UNL     1      -9.994  17.535  66.460  1.00  0.00    -0.308 NA 
HETATM   17  C   UNL     1      -8.894  16.546  66.419  1.00  0.00    -0.310 C  
HETATM   18  C   UNL     1      -9.350  15.116  66.092  1.00  0.00    -0.311 C  
HETATM   19  O   UNL     1     -10.046  15.073  64.842  1.00  0.00    -0.320 OA 
HETATM   20  C   UNL     1     -11.184  15.942  64.870  1.00  0.00    -0.337 C  
HETATM   21  C   UNL     1     -10.788  17.389  65.216  1.00  0.00     0.056 C  
ENDBRANCH  15  16
ENDBRANCH  14  15
ENDBRANCH  13  14
ENDBRANCH  12  13
ENDBRANCH   9  12
ENDBRANCH   5   6
ENDBRANCH   4   5
ENDBRANCH   3   4
ENDBRANCH   2   3
TORSDOF 9
ENDMDL
MODEL      108
REMARK 921   NORMALIZED FREE ENERGY PREDICTED BY IDOCK:   -4.00 KCAL/MOL
REMARK 922        TOTAL FREE ENERGY PREDICTED BY IDOCK:   -6.95 KCAL/MOL
REMARK 923 INTER-LIGAND FREE ENERGY PREDICTED BY IDOCK:   -5.98 KCAL/MOL
REMARK 924 INTRA-LIGAND FREE ENERGY PREDICTED BY IDOCK:   -0.97 KCAL/MOL
REMARK 927      BINDING AFFINITY PREDICTED BY RF-SCORE:    0.00 PKD
ROOT
HETATM    1  C   UNL     1     -10.341  11.339  65.443  1.00  0.00    -0.328 C  
HETATM    2  C   UNL     1     -11.476  12.324  65.263  1.00  0.00    -0.399 C  
ENDROOT
BRANCH   2   3
HETATM    3  C   UNL     1     -11.286  13.581  66.119  1.00  0.00    -0.325 C  
BRANCH   3   4
HETATM    4  C   UNL     1     -11.875  13.319  67.493  1.00  0.00    -0.358 C  
BRANCH   4   5
HETATM    5  O   UNL     1     -10.878  13.102  68.498  1.00  0.00    -0.246 OA 
BRANCH   5   6
HETATM    6  C   UNL     1     -11.211  12.089  69.372  1.00  0.00    -0.196 A  
HETATM    7  C   UNL     1     -12.271  12.168  70.276  1.00  0.00    -0.344 A  
HETATM    8  C   UNL     1     -12.546  11.130  71.150  1.00  0.00    -0.513 A  
HETATM    9  C   UNL     1     -11.772   9.974  71.151  1.00  0.00    -0.387 A  
HETATM   10  C   UNL     1     -10.439  10.927  69.348  1.00  0.00    -0.205 A  
HETATM   11  C   UNL     1     -10.721   9.874  70.238  1.00  0.00    -0.367 A  
BRANCH   9  12
HETATM   12  O   UNL     1     -11.982   8.917  72.010  1.00  0.00    -0.341 OA 
BRANCH  12  13
HETATM   13  C   UNL     1     -11.113   7.798  71.772  1.00  0.00    -0.245 C  
BRANCH  13  14
HETATM   14  C   UNL     1     -11.878   6.630  71.167  1.00  0.00    -0.414 C  
BRANCH  14  15
HETATM   15  C   UNL     1     -11.012   5.834  70.172  1.00  0.00    -0.298 C  
BRANCH  15  16
HETATM   16  N   UNL     1     -10.167   6.659  69.292  1.00  0.00    -0.175 NA 
HETATM   17  C   UNL     1      -8.826   6.085  69.040  1.00  0.00    -0.121 C  
HETATM   18  C   UNL     1      -8.829   4.897  68.065  1.00  0.00    -0.104 C  
HETATM   19  O   UNL     1      -9.409   5.265  66.809  1.00  0.00    -0.125 OA 
HETATM   20  C   UNL     1     -10.751   5.734  66.994  1.00  0.00    -0.289 C  
HETATM   21  C   UNL     1     -10.812   6.914  67.982  1.00  0.00    -0.200 C  
ENDBRANCH  15  16
ENDBRANCH  14  15
ENDBRANCH  13  14
ENDBRANCH  12  13
ENDBRANCH   9  12
ENDBRANCH   5   6
ENDBRANCH   4   5
ENDBRANCH   3   4
ENDBRANCH   2   3
TORSDOF 9
ENDMDL
MODEL      109
REMARK 921   NORMALIZED FREE ENERGY PREDICTED BY IDOCK:   -4.00 KCAL/MOL
REMARK 922        TOTAL FREE ENERGY PREDICTED BY IDOCK:   -6.94 KCAL/MOL
REMARK 923 INTER-LIGAND FREE ENERGY PREDICTED BY IDOCK:   -6.20 KCAL/MOL
REMARK 924 INTRA-LIGAND FREE ENERGY PREDICTED BY IDOCK:   -0.74 KCAL/MOL
REMARK 927      BINDING AFFINITY PREDICTED BY RF-SCORE:    0.00 PKD
ROOT
HETATM    1  C   UNL     1     -10.339  19.829  65.923  1.00  0.00    -0.582 C  
HETATM    2  C   UNL     1      -9.478  20.503  66.970  1.00  0.00    -0.516 C  
ENDROOT
BRANCH   2   3
HETATM    3  C   UNL     1      -9.452  19.717  68.285  1.00  0.00    -0.453 C  
BRANCH   3   4
HETATM    4  C   UNL     1     -10.536  18.656  68.231  1.00  0.00    -0.270 C  
BRANCH   4   5
HETATM    5  O   UNL     1     -10.243  17.513  69.041  1.00  0.00    -0.345 OA 
BRANCH   5   6
HETATM    6  C   UNL     1     -10.735  16.340  68.510  1.00  0.00    -0.307 A  
HETATM    7  C   UNL     1     -11.418  15.381  69.258  1.00  0.00    -0.344 A  
HETATM    8  C   UNL     1     -11.869  14.207  68.677  1.00  0.00    -0.383 A  
HETATM    9  C   UNL     1     -11.656  13.951  67.326  1.00  0.00    -0.365 A  
HETATM   10  C   UNL     1     -10.531  16.105  67.149  1.00  0.00    -0.305 A  
HETATM   11  C   UNL     1     -10.992  14.912  66.562  1.00  0.00    -0.327 A  
BRANCH   9  12
HETATM   12  O   UNL     1     -12.061  12.795  66.697  1.00  0.00    -0.468 OA 
BRANCH  12  13
HETATM   13  C   UNL     1     -11.394  11.614  67.172  1.00  0.00    -0.306 C  
BRANCH  13  14
HETATM   14  C   UNL     1     -10.054  11.424  66.475  1.00  0.00    -0.250 C  
BRANCH  14  15
HETATM   15  C   UNL     1      -9.900  10.000  65.910  1.00  0.00    -0.264 C  
BRANCH  15  16
HETATM   16  N   UNL     1      -8.746   9.250  66.436  1.00  0.00    -0.129 NA 
HETATM   17  C   UNL     1      -8.585   7.904  65.840  1.00  0.00    -0.153 C  
HETATM   18  C   UNL     1      -8.033   7.917  64.406  1.00  0.00    -0.132 C  
HETATM   19  O   UNL     1      -6.772   8.593  64.349  1.00  0.00    -0.070 OA 
HETATM   20  C   UNL     1      -6.901   9.939  64.822  1.00  0.00    -0.129 C  
HETATM   21  C   UNL     1      -7.474   9.988  66.251  1.00  0.00    -0.106 C  
ENDBRANCH  15  16
ENDBRANCH  14  15
ENDBRANCH  13  14
ENDBRANCH  12  13
ENDBRANCH   9  12
ENDBRANCH   5   6
ENDBRANCH   4   5
ENDBRANCH   3   4
ENDBRANCH   2   3
TORSDOF 9
ENDMDL
MODEL      110
REMARK 921   NORMALIZED FREE ENERGY PREDICTED BY IDOCK:   -3.99 KCAL/MOL
REMARK 922        TOTAL FREE ENERGY PREDICTED BY IDOCK:   -6.92 KCAL/MOL
REMARK 923 INTER-LIGAND FREE ENERGY PREDICTED BY IDOCK:   -6.20 KCAL/MOL
REMARK 924 INTRA-LIGAND FREE ENERGY PREDICTED BY IDOCK:   -0.72 KCAL/MOL
REMARK 927      BINDING AFFINITY PREDICTED BY RF-SCORE:    0.00 PKD
ROOT
HETATM    1  C   UNL     1      -7.800   7.410  68.733  1.00  0.00    -0.121 C  
HETATM    2  C   UNL     1      -7.680   7.991  67.340  1.00  0.00    -0.102 C  
ENDROOT
BRANCH   2   3
HETATM    3  C   UNL     1      -8.278   9.399  67.251  1.00  0.00    -0.117 C  
BRANCH   3   4
HETATM    4  C   UNL     1      -9.615   9.308  66.538  1.00  0.00    -0.224 C  
BRANCH   4   5
HETATM    5  O   UNL     1     -10.722   9.187  67.436  1.00  0.00    -0.277 OA 
BRANCH   5   6
HETATM    6  C   UNL     1     -11.119  10.399  67.961  1.00  0.00    -0.298 A  
HETATM    7  C   UNL     1     -11.386  11.526  67.184  1.00  0.00    -0.354 A  
HETATM    8  C   UNL     1     -11.756  12.726  67.766  1.00  0.00    -0.412 A  
HETATM    9  C   UNL     1     -11.877  12.843  69.148  1.00  0.00    -0.303 A  
HETATM   10  C   UNL     1     -11.256  10.495  69.347  1.00  0.00    -0.327 A  
HETATM   11  C   UNL     1     -11.634  11.716  69.935  1.00  0.00    -0.366 A  
BRANCH   9  12
HETATM   12  O   UNL     1     -12.222  14.014  69.786  1.00  0.00    -0.327 OA 
BRANCH  12  13
HETATM   13  C   UNL     1     -12.160  15.173  68.940  1.00  0.00    -0.194 C  
BRANCH  13  14
HETATM   14  C   UNL     1     -10.825  15.889  69.089  1.00  0.00    -0.268 C  
BRANCH  14  15
HETATM   15  C   UNL     1     -10.525  16.796  67.880  1.00  0.00    -0.335 C  
BRANCH  15  16
HETATM   16  N   UNL     1     -10.114  18.167  68.227  1.00  0.00    -0.366 NA 
HETATM   17  C   UNL     1      -8.655  18.398  68.129  1.00  0.00    -0.284 C  
HETATM   18  C   UNL     1      -8.136  18.514  66.687  1.00  0.00    -0.264 C  
HETATM   19  O   UNL     1      -8.809  19.563  65.983  1.00  0.00    -0.393 OA 
HETATM   20  C   UNL     1     -10.223  19.328  65.963  1.00  0.00    -0.435 C  
HETATM   21  C   UNL     1     -10.796  19.180  67.385  1.00  0.00    -0.435 C  
ENDBRANCH  15  16
ENDBRANCH  14  15
ENDBRANCH  13  14
ENDBRANCH  12  13
ENDBRANCH   9  12
ENDBRANCH   5   6
ENDBRANCH   4   5
ENDBRANCH   3   4
ENDBRANCH   2   3
TORSDOF 9
ENDMDL
MODEL      111
REMARK 921   NORMALIZED FREE ENERGY PREDICTED BY IDOCK:   -3.95 KCAL/MOL
REMARK 922        TOTAL FREE ENERGY PREDICTED BY IDOCK:   -6.87 KCAL/MOL
REMARK 923 INTER-LIGAND FREE ENERGY PREDICTED BY IDOCK:   -6.15 KCAL/MOL
REMARK 924 INTRA-LIGAND FREE ENERGY PREDICTED BY IDOCK:   -0.71 KCAL/MOL
REMARK 927      BINDING AFFINITY PREDICTED BY RF-SCORE:    0.00 PKD
ROOT
HETATM    1  C   UNL     1     -11.273  14.492  65.117  1.00  0.00    -0.367 C  
HETATM    2  C   UNL     1     -11.931  13.637  66.179  1.00  0.00    -0.453 C  
ENDROOT
BRANCH   2   3
HETATM    3  C   UNL     1     -11.861  14.286  67.565  1.00  0.00    -0.429 C  
BRANCH   3   4
HETATM    4  C   UNL     1     -11.469  13.221  68.573  1.00  0.00    -0.312 C  
BRANCH   4   5
HETATM    5  O   UNL     1     -12.220  12.011  68.432  1.00  0.00    -0.373 OA 
BRANCH   5   6
HETATM    6  C   UNL     1     -12.005  11.124  69.465  1.00  0.00    -0.355 A  
HETATM    7  C   UNL     1     -12.908  10.924  70.510  1.00  0.00    -0.301 A  
HETATM    8  C   UNL     1     -12.629  10.039  71.538  1.00  0.00    -0.525 A  
HETATM    9  C   UNL     1     -11.439   9.319  71.557  1.00  0.00    -0.384 A  
HETATM   10  C   UNL     1     -10.816  10.394  69.461  1.00  0.00    -0.295 A  
HETATM   11  C   UNL     1     -10.536   9.494  70.507  1.00  0.00    -0.358 A  
BRANCH   9  12
HETATM   12  O   UNL     1     -11.096   8.440  72.562  1.00  0.00    -0.361 OA 
BRANCH  12  13
HETATM   13  C   UNL     1      -9.699   8.105  72.584  1.00  0.00    -0.290 C  
BRANCH  13  14
HETATM   14  C   UNL     1      -9.495   6.603  72.452  1.00  0.00    -0.154 C  
BRANCH  14  15
HETATM   15  C   UNL     1      -8.435   6.261  71.387  1.00  0.00    -0.127 C  
BRANCH  15  16
HETATM   16  N   UNL     1      -8.780   5.122  70.518  1.00  0.00    -0.117 NA 
HETATM   17  C   UNL     1     -10.233   4.970  70.280  1.00  0.00    -0.258 C  
HETATM   18  C   UNL     1     -10.817   6.002  69.303  1.00  0.00    -0.358 C  
HETATM   19  O   UNL     1     -10.142   5.954  68.041  1.00  0.00    -0.138 OA 
HETATM   20  C   UNL     1      -8.741   6.199  68.211  1.00  0.00    -0.114 C  
HETATM   21  C   UNL     1      -8.104   5.205  69.201  1.00  0.00    -0.084 C  
ENDBRANCH  15  16
ENDBRANCH  14  15
ENDBRANCH  13  14
ENDBRANCH  12  13
ENDBRANCH   9  12
ENDBRANCH   5   6
ENDBRANCH   4   5
ENDBRANCH   3   4
ENDBRANCH   2   3
TORSDOF 9
ENDMDL
MODEL      112
REMARK 921   NORMALIZED FREE ENERGY PREDICTED BY IDOCK:   -3.94 KCAL/MOL
REMARK 922        TOTAL FREE ENERGY PREDICTED BY IDOCK:   -6.85 KCAL/MOL
REMARK 923 INTER-LIGAND FREE ENERGY PREDICTED BY IDOCK:   -6.07 KCAL/MOL
REMARK 924 INTRA-LIGAND FREE ENERGY PREDICTED BY IDOCK:   -0.79 KCAL/MOL
REMARK 927      BINDING AFFINITY PREDICTED BY RF-SCORE:    0.00 PKD
ROOT
HETATM    1  C   UNL     1     -14.355   7.279  71.402  1.00  0.00    -0.484 C  
HETATM    2  C   UNL     1     -14.404   8.578  72.179  1.00  0.00    -0.529 C  
ENDROOT
BRANCH   2   3
HETATM    3  C   UNL     1     -13.004   9.083  72.543  1.00  0.00    -0.429 C  
BRANCH   3   4
HETATM    4  C   UNL     1     -12.814  10.456  71.925  1.00  0.00    -0.415 C  
BRANCH   4   5
HETATM    5  O   UNL     1     -12.072  10.423  70.701  1.00  0.00    -0.293 OA 
BRANCH   5   6
HETATM    6  C   UNL     1     -12.033  11.646  70.066  1.00  0.00    -0.351 A  
HETATM    7  C   UNL     1     -12.170  12.865  70.730  1.00  0.00    -0.348 A  
HETATM    8  C   UNL     1     -12.149  14.064  70.038  1.00  0.00    -0.412 A  
HETATM    9  C   UNL     1     -11.987  14.089  68.656  1.00  0.00    -0.354 A  
HETATM   10  C   UNL     1     -11.850  11.657  68.682  1.00  0.00    -0.370 A  
HETATM   11  C   UNL     1     -11.828  12.877  67.982  1.00  0.00    -0.390 A  
BRANCH   9  12
HETATM   12  O   UNL     1     -11.979  15.247  67.911  1.00  0.00    -0.234 OA 
BRANCH  12  13
HETATM   13  C   UNL     1     -12.084  15.024  66.495  1.00  0.00     0.146 C  
BRANCH  13  14
HETATM   14  C   UNL     1     -10.776  15.354  65.791  1.00  0.00    -0.360 C  
BRANCH  14  15
HETATM   15  C   UNL     1      -9.882  16.272  66.646  1.00  0.00    -0.253 C  
BRANCH  15  16
HETATM   16  N   UNL     1      -8.452  15.918  66.641  1.00  0.00    -0.261 NA 
HETATM   17  C   UNL     1      -7.645  16.673  67.626  1.00  0.00    -0.153 C  
HETATM   18  C   UNL     1      -7.843  16.214  69.079  1.00  0.00    -0.227 C  
HETATM   19  O   UNL     1      -7.545  14.821  69.221  1.00  0.00    -0.151 OA 
HETATM   20  C   UNL     1      -8.378  14.038  68.357  1.00  0.00    -0.162 C  
HETATM   21  C   UNL     1      -8.238  14.471  66.885  1.00  0.00    -0.039 C  
ENDBRANCH  15  16
ENDBRANCH  14  15
ENDBRANCH  13  14
ENDBRANCH  12  13
ENDBRANCH   9  12
ENDBRANCH   5   6
ENDBRANCH   4   5
ENDBRANCH   3   4
ENDBRANCH   2   3
TORSDOF 9
ENDMDL
MODEL      113
REMARK 921   NORMALIZED FREE ENERGY PREDICTED BY IDOCK:   -3.94 KCAL/MOL
REMARK 922        TOTAL FREE ENERGY PREDICTED BY IDOCK:   -6.85 KCAL/MOL
REMARK 923 INTER-LIGAND FREE ENERGY PREDICTED BY IDOCK:   -5.86 KCAL/MOL
REMARK 924 INTRA-LIGAND FREE ENERGY PREDICTED BY IDOCK:   -0.98 KCAL/MOL
REMARK 927      BINDING AFFINITY PREDICTED BY RF-SCORE:    0.00 PKD
ROOT
HETATM    1  C   UNL     1     -12.254  12.971  70.619  1.00  0.00    -0.390 C  
HETATM    2  C   UNL     1     -12.534  14.273  71.340  1.00  0.00    -0.437 C  
ENDROOT
BRANCH   2   3
HETATM    3  C   UNL     1     -12.445  15.480  70.400  1.00  0.00    -0.443 C  
BRANCH   3   4
HETATM    4  C   UNL     1     -11.166  15.365  69.591  1.00  0.00    -0.283 C  
BRANCH   4   5
HETATM    5  O   UNL     1     -11.374  15.541  68.186  1.00  0.00    -0.328 OA 
BRANCH   5   6
HETATM    6  C   UNL     1     -11.080  14.410  67.455  1.00  0.00    -0.302 A  
HETATM    7  C   UNL     1     -12.052  13.566  66.915  1.00  0.00    -0.417 A  
HETATM    8  C   UNL     1     -11.700  12.427  66.211  1.00  0.00    -0.457 A  
HETATM    9  C   UNL     1     -10.363  12.090  66.019  1.00  0.00    -0.238 A  
HETATM   10  C   UNL     1      -9.736  14.095  67.253  1.00  0.00    -0.236 A  
HETATM   11  C   UNL     1      -9.381  12.937  66.536  1.00  0.00    -0.224 A  
BRANCH   9  12
HETATM   12  O   UNL     1      -9.951  10.961  65.346  1.00  0.00    -0.233 OA 
BRANCH  12  13
HETATM   13  C   UNL     1     -10.401   9.735  65.946  1.00  0.00    -0.078 C  
BRANCH  13  14
HETATM   14  C   UNL     1      -9.698   9.484  67.272  1.00  0.00    -0.215 C  
BRANCH  14  15
HETATM   15  C   UNL     1     -10.578   8.673  68.241  1.00  0.00    -0.128 C  
BRANCH  15  16
HETATM   16  N   UNL     1      -9.870   8.144  69.420  1.00  0.00    -0.178 NA 
HETATM   17  C   UNL     1     -10.647   8.238  70.676  1.00  0.00    -0.215 C  
HETATM   18  C   UNL     1     -11.782   7.207  70.788  1.00  0.00    -0.323 C  
HETATM   19  O   UNL     1     -11.276   5.873  70.665  1.00  0.00    -0.294 OA 
HETATM   20  C   UNL     1     -10.601   5.705  69.413  1.00  0.00    -0.304 C  
HETATM   21  C   UNL     1      -9.465   6.730  69.235  1.00  0.00    -0.142 C  
ENDBRANCH  15  16
ENDBRANCH  14  15
ENDBRANCH  13  14
ENDBRANCH  12  13
ENDBRANCH   9  12
ENDBRANCH   5   6
ENDBRANCH   4   5
ENDBRANCH   3   4
ENDBRANCH   2   3
TORSDOF 9
ENDMDL
MODEL      114
REMARK 921   NORMALIZED FREE ENERGY PREDICTED BY IDOCK:   -3.93 KCAL/MOL
REMARK 922        TOTAL FREE ENERGY PREDICTED BY IDOCK:   -6.83 KCAL/MOL
REMARK 923 INTER-LIGAND FREE ENERGY PREDICTED BY IDOCK:   -6.34 KCAL/MOL
REMARK 924 INTRA-LIGAND FREE ENERGY PREDICTED BY IDOCK:   -0.49 KCAL/MOL
REMARK 927      BINDING AFFINITY PREDICTED BY RF-SCORE:    0.00 PKD
ROOT
HETATM    1  C   UNL     1     -12.359  15.662  74.105  1.00  0.00    -0.799 C  
HETATM    2  C   UNL     1     -13.529  15.946  73.188  1.00  0.00    -0.650 C  
ENDROOT
BRANCH   2   3
HETATM    3  C   UNL     1     -13.307  15.381  71.781  1.00  0.00    -0.567 C  
BRANCH   3   4
HETATM    4  C   UNL     1     -14.115  14.103  71.645  1.00  0.00    -0.351 C  
BRANCH   4   5
HETATM    5  O   UNL     1     -13.466  12.965  72.221  1.00  0.00    -0.562 OA 
BRANCH   5   6
HETATM    6  C   UNL     1     -12.883  12.147  71.276  1.00  0.00    -0.250 A  
HETATM    7  C   UNL     1     -12.787  10.761  71.410  1.00  0.00    -0.557 A  
HETATM    8  C   UNL     1     -12.168   9.990  70.441  1.00  0.00    -0.249 A  
HETATM    9  C   UNL     1     -11.625  10.575  69.301  1.00  0.00    -0.236 A  
HETATM   10  C   UNL     1     -12.361  12.745  70.129  1.00  0.00    -0.235 A  
HETATM   11  C   UNL     1     -11.733  11.958  69.145  1.00  0.00    -0.380 A  
BRANCH   9  12
HETATM   12  O   UNL     1     -10.979   9.865  68.313  1.00  0.00    -0.240 OA 
BRANCH  12  13
HETATM   13  C   UNL     1     -10.658  10.649  67.152  1.00  0.00    -0.260 C  
BRANCH  13  14
HETATM   14  C   UNL     1     -10.158   9.767  66.018  1.00  0.00    -0.322 C  
BRANCH  14  15
HETATM   15  C   UNL     1      -9.420   8.521  66.544  1.00  0.00    -0.218 C  
BRANCH  15  16
HETATM   16  N   UNL     1      -8.034   8.378  66.064  1.00  0.00    -0.097 NA 
HETATM   17  C   UNL     1      -7.215   9.599  66.229  1.00  0.00    -0.094 C  
HETATM   18  C   UNL     1      -6.776   9.867  67.678  1.00  0.00    -0.073 C  
HETATM   19  O   UNL     1      -6.046   8.754  68.206  1.00  0.00    -0.048 OA 
HETATM   20  C   UNL     1      -6.841   7.564  68.161  1.00  0.00    -0.063 C  
HETATM   21  C   UNL     1      -7.329   7.257  66.733  1.00  0.00    -0.088 C  
ENDBRANCH  15  16
ENDBRANCH  14  15
ENDBRANCH  13  14
ENDBRANCH  12  13
ENDBRANCH   9  12
ENDBRANCH   5   6
ENDBRANCH   4   5
ENDBRANCH   3   4
ENDBRANCH   2   3
TORSDOF 9
ENDMDL
MODEL      115
REMARK 921   NORMALIZED FREE ENERGY PREDICTED BY IDOCK:   -3.92 KCAL/MOL
REMARK 922        TOTAL FREE ENERGY PREDICTED BY IDOCK:   -6.82 KCAL/MOL
REMARK 923 INTER-LIGAND FREE ENERGY PREDICTED BY IDOCK:   -5.92 KCAL/MOL
REMARK 924 INTRA-LIGAND FREE ENERGY PREDICTED BY IDOCK:   -0.90 KCAL/MOL
REMARK 927      BINDING AFFINITY PREDICTED BY RF-SCORE:    0.00 PKD
ROOT
HETATM    1  C   UNL     1      -8.802  16.288  67.211  1.00  0.00    -0.204 C  
HETATM    2  C   UNL     1      -9.121  16.190  68.687  1.00  0.00    -0.218 C  
ENDROOT
BRANCH   2   3
HETATM    3  C   UNL     1     -10.494  16.785  69.019  1.00  0.00    -0.336 C  
BRANCH   3   4
HETATM    4  C   UNL     1     -11.460  15.644  69.279  1.00  0.00    -0.362 C  
BRANCH   4   5
HETATM    5  O   UNL     1     -12.089  15.159  68.088  1.00  0.00    -0.205 OA 
BRANCH   5   6
HETATM    6  C   UNL     1     -11.777  13.844  67.817  1.00  0.00    -0.366 A  
HETATM    7  C   UNL     1     -11.583  12.877  68.804  1.00  0.00    -0.351 A  
HETATM    8  C   UNL     1     -11.246  11.575  68.476  1.00  0.00    -0.315 A  
HETATM    9  C   UNL     1     -11.092  11.190  67.148  1.00  0.00    -0.287 A  
HETATM   10  C   UNL     1     -11.646  13.467  66.479  1.00  0.00    -0.394 A  
HETATM   11  C   UNL     1     -11.304  12.142  66.149  1.00  0.00    -0.414 A  
BRANCH   9  12
HETATM   12  O   UNL     1     -10.738   9.917  66.759  1.00  0.00    -0.176 OA 
BRANCH  12  13
HETATM   13  C   UNL     1      -9.776   9.295  67.627  1.00  0.00    -0.157 C  
BRANCH  13  14
HETATM   14  C   UNL     1     -10.237   7.908  68.049  1.00  0.00    -0.256 C  
BRANCH  14  15
HETATM   15  C   UNL     1     -10.691   7.879  69.521  1.00  0.00    -0.192 C  
BRANCH  15  16
HETATM   16  N   UNL     1     -11.462   6.684  69.905  1.00  0.00    -0.366 NA 
HETATM   17  C   UNL     1     -10.627   5.484  70.138  1.00  0.00    -0.297 C  
HETATM   18  C   UNL     1      -9.847   5.511  71.461  1.00  0.00    -0.171 C  
HETATM   19  O   UNL     1     -10.732   5.672  72.575  1.00  0.00    -0.214 OA 
HETATM   20  C   UNL     1     -11.492   6.880  72.444  1.00  0.00    -0.259 C  
HETATM   21  C   UNL     1     -12.279   6.917  71.120  1.00  0.00    -0.379 C  
ENDBRANCH  15  16
ENDBRANCH  14  15
ENDBRANCH  13  14
ENDBRANCH  12  13
ENDBRANCH   9  12
ENDBRANCH   5   6
ENDBRANCH   4   5
ENDBRANCH   3   4
ENDBRANCH   2   3
TORSDOF 9
ENDMDL
MODEL      116
REMARK 921   NORMALIZED FREE ENERGY PREDICTED BY IDOCK:   -3.92 KCAL/MOL
REMARK 922        TOTAL FREE ENERGY PREDICTED BY IDOCK:   -6.81 KCAL/MOL
REMARK 923 INTER-LIGAND FREE ENERGY PREDICTED BY IDOCK:   -6.49 KCAL/MOL
REMARK 924 INTRA-LIGAND FREE ENERGY PREDICTED BY IDOCK:   -0.32 KCAL/MOL
REMARK 927      BINDING AFFINITY PREDICTED BY RF-SCORE:    0.00 PKD
ROOT
HETATM    1  C   UNL     1     -13.149   7.122  71.438  1.00  0.00    -0.408 C  
HETATM    2  C   UNL     1     -11.800   7.443  72.044  1.00  0.00    -0.335 C  
ENDROOT
BRANCH   2   3
HETATM    3  C   UNL     1     -11.457   8.932  71.928  1.00  0.00    -0.442 C  
BRANCH   3   4
HETATM    4  C   UNL     1     -12.748   9.708  71.745  1.00  0.00    -0.420 C  
BRANCH   4   5
HETATM    5  O   UNL     1     -12.614  11.100  72.055  1.00  0.00    -0.181 OA 
BRANCH   5   6
HETATM    6  C   UNL     1     -12.329  11.869  70.947  1.00  0.00    -0.300 A  
HETATM    7  C   UNL     1     -11.929  11.337  69.720  1.00  0.00    -0.431 A  
HETATM    8  C   UNL     1     -11.630  12.159  68.647  1.00  0.00    -0.372 A  
HETATM    9  C   UNL     1     -11.723  13.543  68.759  1.00  0.00    -0.337 A  
HETATM   10  C   UNL     1     -12.445  13.254  71.068  1.00  0.00    -0.422 A  
HETATM   11  C   UNL     1     -12.142  14.087  69.974  1.00  0.00    -0.412 A  
BRANCH   9  12
HETATM   12  O   UNL     1     -11.419  14.413  67.735  1.00  0.00    -0.301 OA 
BRANCH  12  13
HETATM   13  C   UNL     1     -12.079  14.101  66.497  1.00  0.00    -0.454 C  
BRANCH  13  14
HETATM   14  C   UNL     1     -11.080  13.643  65.444  1.00  0.00    -0.304 C  
BRANCH  14  15
HETATM   15  C   UNL     1     -11.064  12.109  65.300  1.00  0.00    -0.321 C  
BRANCH  15  16
HETATM   16  N   UNL     1      -9.734  11.528  65.044  1.00  0.00    -0.245 NA 
HETATM   17  C   UNL     1      -8.775  11.718  66.155  1.00  0.00    -0.057 C  
HETATM   18  C   UNL     1      -9.033  10.810  67.367  1.00  0.00    -0.139 C  
HETATM   19  O   UNL     1      -9.019   9.430  66.986  1.00  0.00    -0.129 OA 
HETATM   20  C   UNL     1     -10.007   9.176  65.980  1.00  0.00    -0.223 C  
HETATM   21  C   UNL     1      -9.811  10.078  64.747  1.00  0.00    -0.254 C  
ENDBRANCH  15  16
ENDBRANCH  14  15
ENDBRANCH  13  14
ENDBRANCH  12  13
ENDBRANCH   9  12
ENDBRANCH   5   6
ENDBRANCH   4   5
ENDBRANCH   3   4
ENDBRANCH   2   3
TORSDOF 9
ENDMDL
MODEL      117
REMARK 921   NORMALIZED FREE ENERGY PREDICTED BY IDOCK:   -3.91 KCAL/MOL
REMARK 922        TOTAL FREE ENERGY PREDICTED BY IDOCK:   -6.80 KCAL/MOL
REMARK 923 INTER-LIGAND FREE ENERGY PREDICTED BY IDOCK:   -5.86 KCAL/MOL
REMARK 924 INTRA-LIGAND FREE ENERGY PREDICTED BY IDOCK:   -0.94 KCAL/MOL
REMARK 927      BINDING AFFINITY PREDICTED BY RF-SCORE:    0.00 PKD
ROOT
HETATM    1  C   UNL     1     -11.722  11.914  69.529  1.00  0.00    -0.410 C  
HETATM    2  C   UNL     1     -12.133  12.805  70.682  1.00  0.00    -0.316 C  
ENDROOT
BRANCH   2   3
HETATM    3  C   UNL     1     -11.994  14.291  70.338  1.00  0.00    -0.402 C  
BRANCH   3   4
HETATM    4  C   UNL     1     -10.994  14.429  69.204  1.00  0.00    -0.265 C  
BRANCH   4   5
HETATM    5  O   UNL     1     -11.498  15.188  68.101  1.00  0.00    -0.320 OA 
BRANCH   5   6
HETATM    6  C   UNL     1     -11.443  14.500  66.908  1.00  0.00    -0.364 A  
HETATM    7  C   UNL     1     -12.518  13.784  66.380  1.00  0.00    -0.404 A  
HETATM    8  C   UNL     1     -12.399  13.088  65.189  1.00  0.00    -0.536 A  
HETATM    9  C   UNL     1     -11.201  13.084  64.480  1.00  0.00    -0.339 A  
HETATM   10  C   UNL     1     -10.242  14.521  66.198  1.00  0.00    -0.317 A  
HETATM   11  C   UNL     1     -10.124  13.813  64.987  1.00  0.00    -0.310 A  
BRANCH   9  12
HETATM   12  O   UNL     1     -11.015  12.394  63.302  1.00  0.00    -0.438 OA 
BRANCH  12  13
HETATM   13  C   UNL     1      -9.861  11.538  63.309  1.00  0.00    -0.409 C  
BRANCH  13  14
HETATM   14  C   UNL     1     -10.012  10.426  64.337  1.00  0.00    -0.388 C  
BRANCH  14  15
HETATM   15  C   UNL     1      -8.685  10.133  65.062  1.00  0.00    -0.173 C  
BRANCH  15  16
HETATM   16  N   UNL     1      -7.988   8.917  64.606  1.00  0.00    -0.124 NA 
HETATM   17  C   UNL     1      -6.631   9.170  64.072  1.00  0.00    -0.089 C  
HETATM   18  C   UNL     1      -5.580   9.470  65.153  1.00  0.00    -0.051 C  
HETATM   19  O   UNL     1      -5.503   8.403  66.104  1.00  0.00    -0.034 OA 
HETATM   20  C   UNL     1      -6.777   8.189  66.724  1.00  0.00    -0.064 C  
HETATM   21  C   UNL     1      -7.877   7.905  65.683  1.00  0.00    -0.109 C  
ENDBRANCH  15  16
ENDBRANCH  14  15
ENDBRANCH  13  14
ENDBRANCH  12  13
ENDBRANCH   9  12
ENDBRANCH   5   6
ENDBRANCH   4   5
ENDBRANCH   3   4
ENDBRANCH   2   3
TORSDOF 9
ENDMDL
MODEL      118
REMARK 921   NORMALIZED FREE ENERGY PREDICTED BY IDOCK:   -3.90 KCAL/MOL
REMARK 922        TOTAL FREE ENERGY PREDICTED BY IDOCK:   -6.79 KCAL/MOL
REMARK 923 INTER-LIGAND FREE ENERGY PREDICTED BY IDOCK:   -6.05 KCAL/MOL
REMARK 924 INTRA-LIGAND FREE ENERGY PREDICTED BY IDOCK:   -0.74 KCAL/MOL
REMARK 927      BINDING AFFINITY PREDICTED BY RF-SCORE:    0.00 PKD
ROOT
HETATM    1  C   UNL     1      -7.355   7.590  74.447  1.00  0.00    -0.150 C  
HETATM    2  C   UNL     1      -8.196   7.936  73.236  1.00  0.00    -0.234 C  
ENDROOT
BRANCH   2   3
HETATM    3  C   UNL     1      -9.027   6.742  72.755  1.00  0.00    -0.139 C  
BRANCH   3   4
HETATM    4  C   UNL     1      -9.794   7.162  71.514  1.00  0.00    -0.171 C  
BRANCH   4   5
HETATM    5  O   UNL     1     -11.211   7.204  71.718  1.00  0.00    -0.237 OA 
BRANCH   5   6
HETATM    6  C   UNL     1     -11.724   8.481  71.638  1.00  0.00    -0.306 A  
HETATM    7  C   UNL     1     -11.181   9.482  70.832  1.00  0.00    -0.411 A  
HETATM    8  C   UNL     1     -11.722  10.756  70.810  1.00  0.00    -0.400 A  
HETATM    9  C   UNL     1     -12.830  11.076  71.590  1.00  0.00    -0.435 A  
HETATM   10  C   UNL     1     -12.847   8.782  72.411  1.00  0.00    -0.434 A  
HETATM   11  C   UNL     1     -13.396  10.077  72.384  1.00  0.00    -0.261 A  
BRANCH   9  12
HETATM   12  O   UNL     1     -13.400  12.329  71.626  1.00  0.00    -0.342 OA 
BRANCH  12  13
HETATM   13  C   UNL     1     -12.457  13.398  71.444  1.00  0.00    -0.223 C  
BRANCH  13  14
HETATM   14  C   UNL     1     -13.065  14.530  70.629  1.00  0.00    -0.304 C  
BRANCH  14  15
HETATM   15  C   UNL     1     -12.076  15.697  70.445  1.00  0.00    -0.394 C  
BRANCH  15  16
HETATM   16  N   UNL     1     -11.860  16.107  69.046  1.00  0.00    -0.277 NA 
HETATM   17  C   UNL     1     -10.656  16.943  68.847  1.00  0.00    -0.353 C  
HETATM   18  C   UNL     1      -9.334  16.162  68.912  1.00  0.00    -0.235 C  
HETATM   19  O   UNL     1      -9.317  15.103  67.948  1.00  0.00    -0.184 OA 
HETATM   20  C   UNL     1     -10.412  14.206  68.166  1.00  0.00    -0.244 C  
HETATM   21  C   UNL     1     -11.766  14.941  68.135  1.00  0.00    -0.318 C  
ENDBRANCH  15  16
ENDBRANCH  14  15
ENDBRANCH  13  14
ENDBRANCH  12  13
ENDBRANCH   9  12
ENDBRANCH   5   6
ENDBRANCH   4   5
ENDBRANCH   3   4
ENDBRANCH   2   3
TORSDOF 9
ENDMDL
MODEL      119
REMARK 921   NORMALIZED FREE ENERGY PREDICTED BY IDOCK:   -3.89 KCAL/MOL
REMARK 922        TOTAL FREE ENERGY PREDICTED BY IDOCK:   -6.78 KCAL/MOL
REMARK 923 INTER-LIGAND FREE ENERGY PREDICTED BY IDOCK:   -5.63 KCAL/MOL
REMARK 924 INTRA-LIGAND FREE ENERGY PREDICTED BY IDOCK:   -1.15 KCAL/MOL
REMARK 927      BINDING AFFINITY PREDICTED BY RF-SCORE:    0.00 PKD
ROOT
HETATM    1  C   UNL     1      -7.175  13.110  68.684  1.00  0.00    -0.106 C  
HETATM    2  C   UNL     1      -7.094  14.023  67.480  1.00  0.00    -0.179 C  
ENDROOT
BRANCH   2   3
HETATM    3  C   UNL     1      -7.919  15.300  67.671  1.00  0.00    -0.177 C  
BRANCH   3   4
HETATM    4  C   UNL     1      -8.868  15.438  66.495  1.00  0.00    -0.312 C  
BRANCH   4   5
HETATM    5  O   UNL     1     -10.241  15.520  66.889  1.00  0.00    -0.267 OA 
BRANCH   5   6
HETATM    6  C   UNL     1     -10.721  14.335  67.406  1.00  0.00    -0.282 A  
HETATM    7  C   UNL     1     -10.699  13.126  66.712  1.00  0.00    -0.274 A  
HETATM    8  C   UNL     1     -11.218  11.970  67.270  1.00  0.00    -0.371 A  
HETATM    9  C   UNL     1     -11.776  11.980  68.545  1.00  0.00    -0.332 A  
HETATM   10  C   UNL     1     -11.259  14.356  68.694  1.00  0.00    -0.280 A  
HETATM   11  C   UNL     1     -11.785  13.179  69.259  1.00  0.00    -0.376 A  
BRANCH   9  12
HETATM   12  O   UNL     1     -12.326  10.869  69.144  1.00  0.00    -0.435 OA 
BRANCH  12  13
HETATM   13  C   UNL     1     -12.448  10.983  70.572  1.00  0.00    -0.344 C  
BRANCH  13  14
HETATM   14  C   UNL     1     -11.769   9.816  71.274  1.00  0.00    -0.472 C  
BRANCH  14  15
HETATM   15  C   UNL     1     -12.079   8.474  70.582  1.00  0.00     0.035 C  
BRANCH  15  16
HETATM   16  N   UNL     1     -11.040   7.443  70.745  1.00  0.00    -0.259 NA 
HETATM   17  C   UNL     1     -11.271   6.228  69.932  1.00  0.00    -0.429 C  
HETATM   18  C   UNL     1     -10.976   6.411  68.435  1.00  0.00    -0.309 C  
HETATM   19  O   UNL     1      -9.628   6.847  68.228  1.00  0.00    -0.130 OA 
HETATM   20  C   UNL     1      -9.387   8.080  68.916  1.00  0.00    -0.150 C  
HETATM   21  C   UNL     1      -9.689   7.961  70.422  1.00  0.00    -0.179 C  
ENDBRANCH  15  16
ENDBRANCH  14  15
ENDBRANCH  13  14
ENDBRANCH  12  13
ENDBRANCH   9  12
ENDBRANCH   5   6
ENDBRANCH   4   5
ENDBRANCH   3   4
ENDBRANCH   2   3
TORSDOF 9
ENDMDL
MODEL      120
REMARK 921   NORMALIZED FREE ENERGY PREDICTED BY IDOCK:   -3.89 KCAL/MOL
REMARK 922        TOTAL FREE ENERGY PREDICTED BY IDOCK:   -6.78 KCAL/MOL
REMARK 923 INTER-LIGAND FREE ENERGY PREDICTED BY IDOCK:   -6.02 KCAL/MOL
REMARK 924 INTRA-LIGAND FREE ENERGY PREDICTED BY IDOCK:   -0.76 KCAL/MOL
REMARK 927      BINDING AFFINITY PREDICTED BY RF-SCORE:    0.00 PKD
ROOT
HETATM    1  C   UNL     1      -9.766   9.264  68.797  1.00  0.00    -0.162 C  
HETATM    2  C   UNL     1     -10.360   8.630  67.557  1.00  0.00    -0.336 C  
ENDROOT
BRANCH   2   3
HETATM    3  C   UNL     1      -9.301   8.373  66.479  1.00  0.00    -0.259 C  
BRANCH   3   4
HETATM    4  C   UNL     1      -9.563   9.312  65.316  1.00  0.00    -0.105 C  
BRANCH   4   5
HETATM    5  O   UNL     1      -8.814  10.529  65.399  1.00  0.00    -0.173 OA 
BRANCH   5   6
HETATM    6  C   UNL     1      -9.552  11.579  65.903  1.00  0.00    -0.230 A  
HETATM    7  C   UNL     1      -9.064  12.482  66.848  1.00  0.00    -0.213 A  
HETATM    8  C   UNL     1      -9.859  13.503  67.340  1.00  0.00    -0.227 A  
HETATM    9  C   UNL     1     -11.171  13.661  66.903  1.00  0.00    -0.312 A  
HETATM   10  C   UNL     1     -10.860  11.737  65.441  1.00  0.00    -0.347 A  
HETATM   11  C   UNL     1     -11.665  12.777  65.942  1.00  0.00    -0.464 A  
BRANCH   9  12
HETATM   12  O   UNL     1     -12.016  14.644  67.370  1.00  0.00    -0.384 OA 
BRANCH  12  13
HETATM   13  C   UNL     1     -11.836  14.948  68.763  1.00  0.00    -0.296 C  
BRANCH  13  14
HETATM   14  C   UNL     1     -11.366  16.382  68.953  1.00  0.00    -0.272 C  
BRANCH  14  15
HETATM   15  C   UNL     1      -9.856  16.454  69.249  1.00  0.00    -0.240 C  
BRANCH  15  16
HETATM   16  N   UNL     1      -9.195  17.688  68.788  1.00  0.00    -0.253 NA 
HETATM   17  C   UNL     1      -7.923  17.453  68.070  1.00  0.00    -0.224 C  
HETATM   18  C   UNL     1      -8.100  16.912  66.643  1.00  0.00    -0.263 C  
HETATM   19  O   UNL     1      -8.909  17.795  65.857  1.00  0.00    -0.512 OA 
HETATM   20  C   UNL     1     -10.195  17.973  66.464  1.00  0.00    -0.382 C  
HETATM   21  C   UNL     1     -10.077  18.493  67.909  1.00  0.00    -0.369 C  
ENDBRANCH  15  16
ENDBRANCH  14  15
ENDBRANCH  13  14
ENDBRANCH  12  13
ENDBRANCH   9  12
ENDBRANCH   5   6
ENDBRANCH   4   5
ENDBRANCH   3   4
ENDBRANCH   2   3
TORSDOF 9
ENDMDL
MODEL      121
REMARK 921   NORMALIZED FREE ENERGY PREDICTED BY IDOCK:   -3.89 KCAL/MOL
REMARK 922        TOTAL FREE ENERGY PREDICTED BY IDOCK:   -6.77 KCAL/MOL
REMARK 923 INTER-LIGAND FREE ENERGY PREDICTED BY IDOCK:   -5.82 KCAL/MOL
REMARK 924 INTRA-LIGAND FREE ENERGY PREDICTED BY IDOCK:   -0.95 KCAL/MOL
REMARK 927      BINDING AFFINITY PREDICTED BY RF-SCORE:    0.00 PKD
ROOT
HETATM    1  C   UNL     1     -10.273   8.965  66.400  1.00  0.00    -0.273 C  
HETATM    2  C   UNL     1      -9.297   8.164  67.236  1.00  0.00    -0.174 C  
ENDROOT
BRANCH   2   3
HETATM    3  C   UNL     1      -9.844   7.878  68.639  1.00  0.00    -0.177 C  
BRANCH   3   4
HETATM    4  C   UNL     1      -9.324   8.945  69.584  1.00  0.00    -0.163 C  
BRANCH   4   5
HETATM    5  O   UNL     1     -10.369   9.693  70.214  1.00  0.00    -0.242 OA 
BRANCH   5   6
HETATM    6  C   UNL     1     -10.603  10.906  69.601  1.00  0.00    -0.129 A  
HETATM    7  C   UNL     1     -11.794  11.620  69.734  1.00  0.00    -0.428 A  
HETATM    8  C   UNL     1     -11.987  12.822  69.074  1.00  0.00    -0.288 A  
HETATM    9  C   UNL     1     -10.994  13.355  68.257  1.00  0.00    -0.259 A  
HETATM   10  C   UNL     1      -9.591  11.438  68.801  1.00  0.00    -0.139 A  
HETATM   11  C   UNL     1      -9.789  12.661  68.132  1.00  0.00    -0.226 A  
BRANCH   9  12
HETATM   12  O   UNL     1     -11.134  14.534  67.559  1.00  0.00    -0.288 OA 
BRANCH  12  13
HETATM   13  C   UNL     1     -11.682  15.608  68.341  1.00  0.00    -0.290 C  
BRANCH  13  14
HETATM   14  C   UNL     1     -10.579  16.455  68.957  1.00  0.00    -0.308 C  
BRANCH  14  15
HETATM   15  C   UNL     1     -10.470  17.834  68.279  1.00  0.00    -0.364 C  
BRANCH  15  16
HETATM   16  N   UNL     1     -10.409  17.793  66.807  1.00  0.00    -0.348 NA 
HETATM   17  C   UNL     1     -10.645  19.104  66.162  1.00  0.00    -0.439 C  
HETATM   18  C   UNL     1      -9.460  20.076  66.270  1.00  0.00    -0.382 C  
HETATM   19  O   UNL     1      -8.273  19.502  65.711  1.00  0.00    -0.427 OA 
HETATM   20  C   UNL     1      -7.946  18.276  66.377  1.00  0.00    -0.261 C  
HETATM   21  C   UNL     1      -9.110  17.269  66.320  1.00  0.00    -0.215 C  
ENDBRANCH  15  16
ENDBRANCH  14  15
ENDBRANCH  13  14
ENDBRANCH  12  13
ENDBRANCH   9  12
ENDBRANCH   5   6
ENDBRANCH   4   5
ENDBRANCH   3   4
ENDBRANCH   2   3
TORSDOF 9
ENDMDL
MODEL      122
REMARK 921   NORMALIZED FREE ENERGY PREDICTED BY IDOCK:   -3.87 KCAL/MOL
REMARK 922        TOTAL FREE ENERGY PREDICTED BY IDOCK:   -6.75 KCAL/MOL
REMARK 923 INTER-LIGAND FREE ENERGY PREDICTED BY IDOCK:   -5.78 KCAL/MOL
REMARK 924 INTRA-LIGAND FREE ENERGY PREDICTED BY IDOCK:   -0.97 KCAL/MOL
REMARK 927      BINDING AFFINITY PREDICTED BY RF-SCORE:    0.00 PKD
ROOT
HETATM    1  C   UNL     1     -12.480  13.010  70.865  1.00  0.00    -0.396 C  
HETATM    2  C   UNL     1     -13.102  14.156  71.636  1.00  0.00    -0.425 C  
ENDROOT
BRANCH   2   3
HETATM    3  C   UNL     1     -13.079  15.464  70.839  1.00  0.00    -0.528 C  
BRANCH   3   4
HETATM    4  C   UNL     1     -11.749  15.561  70.114  1.00  0.00    -0.347 C  
BRANCH   4   5
HETATM    5  O   UNL     1     -11.891  15.780  68.707  1.00  0.00    -0.387 OA 
BRANCH   5   6
HETATM    6  C   UNL     1     -11.360  14.757  67.950  1.00  0.00    -0.316 A  
HETATM    7  C   UNL     1     -12.122  13.936  67.118  1.00  0.00    -0.422 A  
HETATM    8  C   UNL     1     -11.539  12.906  66.399  1.00  0.00    -0.425 A  
HETATM    9  C   UNL     1     -10.172  12.660  66.484  1.00  0.00    -0.243 A  
HETATM   10  C   UNL     1      -9.984  14.535  68.029  1.00  0.00    -0.222 A  
HETATM   11  C   UNL     1      -9.395  13.488  67.296  1.00  0.00    -0.233 A  
BRANCH   9  12
HETATM   12  O   UNL     1      -9.538  11.640  65.810  1.00  0.00    -0.226 OA 
BRANCH  12  13
HETATM   13  C   UNL     1      -8.820  10.739  66.669  1.00  0.00    -0.145 C  
BRANCH  13  14
HETATM   14  C   UNL     1      -9.775   9.923  67.528  1.00  0.00    -0.193 C  
BRANCH  14  15
HETATM   15  C   UNL     1     -10.309   8.690  66.775  1.00  0.00    -0.266 C  
BRANCH  15  16
HETATM   16  N   UNL     1     -10.440   7.474  67.597  1.00  0.00    -0.241 NA 
HETATM   17  C   UNL     1     -10.639   6.237  66.810  1.00  0.00    -0.265 C  
HETATM   18  C   UNL     1      -9.369   5.731  66.109  1.00  0.00    -0.144 C  
HETATM   19  O   UNL     1      -8.318   5.502  67.054  1.00  0.00    -0.108 OA 
HETATM   20  C   UNL     1      -8.019   6.705  67.773  1.00  0.00    -0.112 C  
HETATM   21  C   UNL     1      -9.265   7.273  68.479  1.00  0.00    -0.138 C  
ENDBRANCH  15  16
ENDBRANCH  14  15
ENDBRANCH  13  14
ENDBRANCH  12  13
ENDBRANCH   9  12
ENDBRANCH   5   6
ENDBRANCH   4   5
ENDBRANCH   3   4
ENDBRANCH   2   3
TORSDOF 9
ENDMDL
MODEL      123
REMARK 921   NORMALIZED FREE ENERGY PREDICTED BY IDOCK:   -3.86 KCAL/MOL
REMARK 922        TOTAL FREE ENERGY PREDICTED BY IDOCK:   -6.74 KCAL/MOL
REMARK 923 INTER-LIGAND FREE ENERGY PREDICTED BY IDOCK:   -5.80 KCAL/MOL
REMARK 924 INTRA-LIGAND FREE ENERGY PREDICTED BY IDOCK:   -0.93 KCAL/MOL
REMARK 927      BINDING AFFINITY PREDICTED BY RF-SCORE:    0.00 PKD
ROOT
HETATM    1  C   UNL     1      -9.454  16.139  67.103  1.00  0.00    -0.231 C  
HETATM    2  C   UNL     1     -10.014  15.565  68.387  1.00  0.00    -0.214 C  
ENDROOT
BRANCH   2   3
HETATM    3  C   UNL     1     -11.545  15.510  68.371  1.00  0.00    -0.368 C  
BRANCH   3   4
HETATM    4  C   UNL     1     -11.970  14.108  67.972  1.00  0.00    -0.337 C  
BRANCH   4   5
HETATM    5  O   UNL     1     -12.245  13.983  66.573  1.00  0.00    -0.447 OA 
BRANCH   5   6
HETATM    6  C   UNL     1     -11.572  12.932  65.987  1.00  0.00    -0.375 A  
HETATM    7  C   UNL     1     -10.865  11.971  66.710  1.00  0.00    -0.307 A  
HETATM    8  C   UNL     1     -10.184  10.950  66.069  1.00  0.00    -0.311 A  
HETATM    9  C   UNL     1     -10.187  10.851  64.680  1.00  0.00    -0.345 A  
HETATM   10  C   UNL     1     -11.600  12.834  64.595  1.00  0.00    -0.384 A  
HETATM   11  C   UNL     1     -10.908  11.794  63.947  1.00  0.00    -0.468 A  
BRANCH   9  12
HETATM   12  O   UNL     1      -9.513   9.871  63.985  1.00  0.00    -0.277 OA 
BRANCH  12  13
HETATM   13  C   UNL     1      -8.372   9.347  64.684  1.00  0.00    -0.157 C  
BRANCH  13  14
HETATM   14  C   UNL     1      -8.532   7.857  64.951  1.00  0.00    -0.045 C  
BRANCH  14  15
HETATM   15  C   UNL     1      -8.758   7.565  66.447  1.00  0.00    -0.145 C  
BRANCH  15  16
HETATM   16  N   UNL     1     -10.165   7.623  66.880  1.00  0.00    -0.282 NA 
HETATM   17  C   UNL     1     -10.858   6.316  66.837  1.00  0.00    -0.354 C  
HETATM   18  C   UNL     1     -10.459   5.359  67.970  1.00  0.00    -0.123 C  
HETATM   19  O   UNL     1     -10.692   5.954  69.251  1.00  0.00    -0.272 OA 
HETATM   20  C   UNL     1      -9.956   7.177  69.378  1.00  0.00    -0.164 C  
HETATM   21  C   UNL     1     -10.300   8.170  68.252  1.00  0.00    -0.197 C  
ENDBRANCH  15  16
ENDBRANCH  14  15
ENDBRANCH  13  14
ENDBRANCH  12  13
ENDBRANCH   9  12
ENDBRANCH   5   6
ENDBRANCH   4   5
ENDBRANCH   3   4
ENDBRANCH   2   3
TORSDOF 9
ENDMDL
MODEL      124
REMARK 921   NORMALIZED FREE ENERGY PREDICTED BY IDOCK:   -3.86 KCAL/MOL
REMARK 922        TOTAL FREE ENERGY PREDICTED BY IDOCK:   -6.73 KCAL/MOL
REMARK 923 INTER-LIGAND FREE ENERGY PREDICTED BY IDOCK:   -6.02 KCAL/MOL
REMARK 924 INTRA-LIGAND FREE ENERGY PREDICTED BY IDOCK:   -0.71 KCAL/MOL
REMARK 927      BINDING AFFINITY PREDICTED BY RF-SCORE:    0.00 PKD
ROOT
HETATM    1  C   UNL     1     -13.779  14.691  72.479  1.00  0.00    -0.572 C  
HETATM    2  C   UNL     1     -12.972  13.734  71.628  1.00  0.00    -0.448 C  
ENDROOT
BRANCH   2   3
HETATM    3  C   UNL     1     -13.243  12.271  71.994  1.00  0.00    -0.508 C  
BRANCH   3   4
HETATM    4  C   UNL     1     -12.497  11.385  71.012  1.00  0.00    -0.383 C  
BRANCH   4   5
HETATM    5  O   UNL     1     -13.146  10.129  70.786  1.00  0.00    -0.369 OA 
BRANCH   5   6
HETATM    6  C   UNL     1     -12.478   9.071  71.363  1.00  0.00    -0.317 A  
HETATM    7  C   UNL     1     -11.207   9.176  71.928  1.00  0.00    -0.400 A  
HETATM    8  C   UNL     1     -10.570   8.073  72.472  1.00  0.00    -0.397 A  
HETATM    9  C   UNL     1     -11.183   6.824  72.474  1.00  0.00    -0.268 A  
HETATM   10  C   UNL     1     -13.113   7.828  71.376  1.00  0.00    -0.310 A  
HETATM   11  C   UNL     1     -12.464   6.709  71.931  1.00  0.00    -0.334 A  
BRANCH   9  12
HETATM   12  O   UNL     1     -10.594   5.687  72.981  1.00  0.00    -0.211 OA 
BRANCH  12  13
HETATM   13  C   UNL     1     -10.517   4.606  72.037  1.00  0.00    -0.128 C  
BRANCH  13  14
HETATM   14  C   UNL     1      -9.422   4.852  71.010  1.00  0.00    -0.225 C  
BRANCH  14  15
HETATM   15  C   UNL     1     -10.003   5.191  69.624  1.00  0.00    -0.243 C  
BRANCH  15  16
HETATM   16  N   UNL     1      -9.002   5.323  68.552  1.00  0.00    -0.107 NA 
HETATM   17  C   UNL     1      -8.262   4.074  68.266  1.00  0.00    -0.091 C  
HETATM   18  C   UNL     1      -9.079   3.027  67.492  1.00  0.00    -0.180 C  
HETATM   19  O   UNL     1      -9.559   3.563  66.255  1.00  0.00    -0.171 OA 
HETATM   20  C   UNL     1     -10.369   4.721  66.489  1.00  0.00    -0.244 C  
HETATM   21  C   UNL     1      -9.607   5.799  67.284  1.00  0.00    -0.117 C  
ENDBRANCH  15  16
ENDBRANCH  14  15
ENDBRANCH  13  14
ENDBRANCH  12  13
ENDBRANCH   9  12
ENDBRANCH   5   6
ENDBRANCH   4   5
ENDBRANCH   3   4
ENDBRANCH   2   3
TORSDOF 9
ENDMDL
MODEL      125
REMARK 921   NORMALIZED FREE ENERGY PREDICTED BY IDOCK:   -3.86 KCAL/MOL
REMARK 922        TOTAL FREE ENERGY PREDICTED BY IDOCK:   -6.72 KCAL/MOL
REMARK 923 INTER-LIGAND FREE ENERGY PREDICTED BY IDOCK:   -6.07 KCAL/MOL
REMARK 924 INTRA-LIGAND FREE ENERGY PREDICTED BY IDOCK:   -0.65 KCAL/MOL
REMARK 927      BINDING AFFINITY PREDICTED BY RF-SCORE:    0.00 PKD
ROOT
HETATM    1  C   UNL     1     -10.132  15.044  65.556  1.00  0.00    -0.400 C  
HETATM    2  C   UNL     1     -11.281  14.076  65.746  1.00  0.00    -0.303 C  
ENDROOT
BRANCH   2   3
HETATM    3  C   UNL     1     -11.974  14.266  67.100  1.00  0.00    -0.449 C  
BRANCH   3   4
HETATM    4  C   UNL     1     -11.628  13.083  67.985  1.00  0.00    -0.343 C  
BRANCH   4   5
HETATM    5  O   UNL     1     -12.005  13.277  69.353  1.00  0.00    -0.306 OA 
BRANCH   5   6
HETATM    6  C   UNL     1     -12.061  12.098  70.065  1.00  0.00    -0.277 A  
HETATM    7  C   UNL     1     -11.344  10.953  69.719  1.00  0.00    -0.374 A  
HETATM    8  C   UNL     1     -11.458   9.786  70.455  1.00  0.00    -0.370 A  
HETATM    9  C   UNL     1     -12.293   9.722  71.568  1.00  0.00    -0.405 A  
HETATM   10  C   UNL     1     -12.886  12.055  71.190  1.00  0.00    -0.331 A  
HETATM   11  C   UNL     1     -13.000  10.867  71.937  1.00  0.00    -0.502 A  
BRANCH   9  12
HETATM   12  O   UNL     1     -12.464   8.586  72.327  1.00  0.00    -0.359 OA 
BRANCH  12  13
HETATM   13  C   UNL     1     -12.670   7.396  71.548  1.00  0.00    -0.372 C  
BRANCH  13  14
HETATM   14  C   UNL     1     -11.897   6.221  72.129  1.00  0.00    -0.365 C  
BRANCH  14  15
HETATM   15  C   UNL     1     -10.880   5.652  71.122  1.00  0.00    -0.218 C  
BRANCH  15  16
HETATM   16  N   UNL     1      -9.558   6.300  71.147  1.00  0.00    -0.174 NA 
HETATM   17  C   UNL     1      -8.441   5.371  71.430  1.00  0.00    -0.126 C  
HETATM   18  C   UNL     1      -8.068   4.463  70.248  1.00  0.00    -0.062 C  
HETATM   19  O   UNL     1      -7.732   5.239  69.092  1.00  0.00    -0.079 OA 
HETATM   20  C   UNL     1      -8.827   6.084  68.718  1.00  0.00    -0.116 C  
HETATM   21  C   UNL     1      -9.260   7.003  69.876  1.00  0.00    -0.144 C  
ENDBRANCH  15  16
ENDBRANCH  14  15
ENDBRANCH  13  14
ENDBRANCH  12  13
ENDBRANCH   9  12
ENDBRANCH   5   6
ENDBRANCH   4   5
ENDBRANCH   3   4
ENDBRANCH   2   3
TORSDOF 9
ENDMDL
MODEL      126
REMARK 921   NORMALIZED FREE ENERGY PREDICTED BY IDOCK:   -3.85 KCAL/MOL
REMARK 922        TOTAL FREE ENERGY PREDICTED BY IDOCK:   -6.72 KCAL/MOL
REMARK 923 INTER-LIGAND FREE ENERGY PREDICTED BY IDOCK:   -6.12 KCAL/MOL
REMARK 924 INTRA-LIGAND FREE ENERGY PREDICTED BY IDOCK:   -0.60 KCAL/MOL
REMARK 927      BINDING AFFINITY PREDICTED BY RF-SCORE:    0.00 PKD
ROOT
HETATM    1  C   UNL     1      -9.249   5.151  66.602  1.00  0.00    -0.129 C  
HETATM    2  C   UNL     1      -9.347   6.474  65.873  1.00  0.00     0.032 C  
ENDROOT
BRANCH   2   3
HETATM    3  C   UNL     1      -9.992   7.561  66.740  1.00  0.00    -0.307 C  
BRANCH   3   4
HETATM    4  C   UNL     1      -9.303   8.881  66.444  1.00  0.00    -0.204 C  
BRANCH   4   5
HETATM    5  O   UNL     1      -9.085   9.675  67.615  1.00  0.00    -0.131 OA 
BRANCH   5   6
HETATM    6  C   UNL     1      -9.618  10.942  67.508  1.00  0.00    -0.155 A  
HETATM    7  C   UNL     1      -8.858  12.076  67.221  1.00  0.00    -0.183 A  
HETATM    8  C   UNL     1      -9.441  13.330  67.152  1.00  0.00    -0.240 A  
HETATM    9  C   UNL     1     -10.806  13.496  67.364  1.00  0.00    -0.269 A  
HETATM   10  C   UNL     1     -10.991  11.091  67.704  1.00  0.00    -0.332 A  
HETATM   11  C   UNL     1     -11.581  12.366  67.631  1.00  0.00    -0.421 A  
BRANCH   9  12
HETATM   12  O   UNL     1     -11.440  14.719  67.329  1.00  0.00    -0.350 OA 
BRANCH  12  13
HETATM   13  C   UNL     1     -10.677  15.782  67.921  1.00  0.00    -0.302 C  
BRANCH  13  14
HETATM   14  C   UNL     1     -11.455  16.454  69.044  1.00  0.00    -0.205 C  
BRANCH  14  15
HETATM   15  C   UNL     1     -11.914  15.439  70.108  1.00  0.00    -0.349 C  
BRANCH  15  16
HETATM   16  N   UNL     1     -12.990  15.918  70.993  1.00  0.00    -0.429 NA 
HETATM   17  C   UNL     1     -14.128  14.980  71.113  1.00  0.00    -0.339 C  
HETATM   18  C   UNL     1     -13.836  13.753  71.990  1.00  0.00    -0.485 C  
HETATM   19  O   UNL     1     -13.432  14.147  73.306  1.00  0.00    -0.518 OA 
HETATM   20  C   UNL     1     -12.266  14.978  73.245  1.00  0.00    -0.386 C  
HETATM   21  C   UNL     1     -12.494  16.216  72.358  1.00  0.00    -0.424 C  
ENDBRANCH  15  16
ENDBRANCH  14  15
ENDBRANCH  13  14
ENDBRANCH  12  13
ENDBRANCH   9  12
ENDBRANCH   5   6
ENDBRANCH   4   5
ENDBRANCH   3   4
ENDBRANCH   2   3
TORSDOF 9
ENDMDL
MODEL      127
REMARK 921   NORMALIZED FREE ENERGY PREDICTED BY IDOCK:   -3.85 KCAL/MOL
REMARK 922        TOTAL FREE ENERGY PREDICTED BY IDOCK:   -6.71 KCAL/MOL
REMARK 923 INTER-LIGAND FREE ENERGY PREDICTED BY IDOCK:   -5.82 KCAL/MOL
REMARK 924 INTRA-LIGAND FREE ENERGY PREDICTED BY IDOCK:   -0.90 KCAL/MOL
REMARK 927      BINDING AFFINITY PREDICTED BY RF-SCORE:    0.00 PKD
ROOT
HETATM    1  C   UNL     1      -9.706  14.439  66.092  1.00  0.00    -0.335 C  
HETATM    2  C   UNL     1     -11.066  14.937  65.650  1.00  0.00    -0.348 C  
ENDROOT
BRANCH   2   3
HETATM    3  C   UNL     1     -12.196  14.019  66.126  1.00  0.00    -0.494 C  
BRANCH   3   4
HETATM    4  C   UNL     1     -11.628  12.626  66.332  1.00  0.00    -0.384 C  
BRANCH   4   5
HETATM    5  O   UNL     1     -12.242  11.925  67.419  1.00  0.00    -0.502 OA 
BRANCH   5   6
HETATM    6  C   UNL     1     -11.332  11.242  68.196  1.00  0.00    -0.303 A  
HETATM    7  C   UNL     1     -11.647  10.670  69.429  1.00  0.00    -0.352 A  
HETATM    8  C   UNL     1     -10.685  10.016  70.182  1.00  0.00    -0.361 A  
HETATM    9  C   UNL     1      -9.374   9.907  69.728  1.00  0.00    -0.221 A  
HETATM   10  C   UNL     1     -10.026  11.123  67.719  1.00  0.00    -0.193 A  
HETATM   11  C   UNL     1      -9.052  10.457  68.486  1.00  0.00    -0.145 A  
BRANCH   9  12
HETATM   12  O   UNL     1      -8.371   9.288  70.439  1.00  0.00    -0.161 OA 
BRANCH  12  13
HETATM   13  C   UNL     1      -7.601   8.357  69.661  1.00  0.00    -0.089 C  
BRANCH  13  14
HETATM   14  C   UNL     1      -8.416   7.115  69.330  1.00  0.00    -0.134 C  
BRANCH  14  15
HETATM   15  C   UNL     1      -8.739   6.291  70.591  1.00  0.00    -0.140 C  
BRANCH  15  16
HETATM   16  N   UNL     1      -9.891   5.382  70.454  1.00  0.00    -0.190 NA 
HETATM   17  C   UNL     1     -10.198   4.616  71.683  1.00  0.00    -0.163 C  
HETATM   18  C   UNL     1     -10.875   5.447  72.784  1.00  0.00    -0.263 C  
HETATM   19  O   UNL     1     -12.086   6.043  72.306  1.00  0.00    -0.301 OA 
HETATM   20  C   UNL     1     -11.821   6.879  71.173  1.00  0.00    -0.349 C  
HETATM   21  C   UNL     1     -11.120   6.102  70.043  1.00  0.00    -0.392 C  
ENDBRANCH  15  16
ENDBRANCH  14  15
ENDBRANCH  13  14
ENDBRANCH  12  13
ENDBRANCH   9  12
ENDBRANCH   5   6
ENDBRANCH   4   5
ENDBRANCH   3   4
ENDBRANCH   2   3
TORSDOF 9
ENDMDL
MODEL      128
REMARK 921   NORMALIZED FREE ENERGY PREDICTED BY IDOCK:   -3.83 KCAL/MOL
REMARK 922        TOTAL FREE ENERGY PREDICTED BY IDOCK:   -6.69 KCAL/MOL
REMARK 923 INTER-LIGAND FREE ENERGY PREDICTED BY IDOCK:   -5.96 KCAL/MOL
REMARK 924 INTRA-LIGAND FREE ENERGY PREDICTED BY IDOCK:   -0.73 KCAL/MOL
REMARK 927      BINDING AFFINITY PREDICTED BY RF-SCORE:    0.00 PKD
ROOT
HETATM    1  C   UNL     1      -9.302  18.806  66.683  1.00  0.00    -0.339 C  
HETATM    2  C   UNL     1     -10.601  18.340  67.305  1.00  0.00    -0.406 C  
ENDROOT
BRANCH   2   3
HETATM    3  C   UNL     1     -10.370  17.582  68.616  1.00  0.00    -0.369 C  
BRANCH   3   4
HETATM    4  C   UNL     1     -11.151  16.281  68.561  1.00  0.00    -0.368 C  
BRANCH   4   5
HETATM    5  O   UNL     1     -11.784  15.954  69.803  1.00  0.00    -0.332 OA 
BRANCH   5   6
HETATM    6  C   UNL     1     -11.997  14.601  69.955  1.00  0.00    -0.329 A  
HETATM    7  C   UNL     1     -12.405  14.013  71.153  1.00  0.00    -0.443 A  
HETATM    8  C   UNL     1     -12.579  12.644  71.256  1.00  0.00    -0.339 A  
HETATM    9  C   UNL     1     -12.353  11.810  70.165  1.00  0.00    -0.195 A  
HETATM   10  C   UNL     1     -11.786  13.779  68.846  1.00  0.00    -0.396 A  
HETATM   11  C   UNL     1     -11.965  12.387  68.954  1.00  0.00    -0.289 A  
BRANCH   9  12
HETATM   12  O   UNL     1     -12.489  10.440  70.211  1.00  0.00    -0.282 OA 
BRANCH  12  13
HETATM   13  C   UNL     1     -12.355   9.890  71.532  1.00  0.00    -0.412 C  
BRANCH  13  14
HETATM   14  C   UNL     1     -11.845   8.458  71.479  1.00  0.00    -0.345 C  
BRANCH  14  15
HETATM   15  C   UNL     1     -10.853   8.246  70.319  1.00  0.00    -0.240 C  
BRANCH  15  16
HETATM   16  N   UNL     1      -9.447   8.530  70.652  1.00  0.00    -0.166 NA 
HETATM   17  C   UNL     1      -8.545   7.369  70.480  1.00  0.00    -0.139 C  
HETATM   18  C   UNL     1      -8.222   7.039  69.015  1.00  0.00    -0.125 C  
HETATM   19  O   UNL     1      -7.640   8.167  68.352  1.00  0.00    -0.100 OA 
HETATM   20  C   UNL     1      -8.526   9.292  68.404  1.00  0.00    -0.120 C  
HETATM   21  C   UNL     1      -8.903   9.654  69.852  1.00  0.00    -0.221 C  
ENDBRANCH  15  16
ENDBRANCH  14  15
ENDBRANCH  13  14
ENDBRANCH  12  13
ENDBRANCH   9  12
ENDBRANCH   5   6
ENDBRANCH   4   5
ENDBRANCH   3   4
ENDBRANCH   2   3
TORSDOF 9
ENDMDL
MODEL      129
REMARK 921   NORMALIZED FREE ENERGY PREDICTED BY IDOCK:   -3.82 KCAL/MOL
REMARK 922        TOTAL FREE ENERGY PREDICTED BY IDOCK:   -6.67 KCAL/MOL
REMARK 923 INTER-LIGAND FREE ENERGY PREDICTED BY IDOCK:   -6.04 KCAL/MOL
REMARK 924 INTRA-LIGAND FREE ENERGY PREDICTED BY IDOCK:   -0.63 KCAL/MOL
REMARK 927      BINDING AFFINITY PREDICTED BY RF-SCORE:    0.00 PKD
ROOT
HETATM    1  C   UNL     1     -10.000  10.718  63.793  1.00  0.00    -0.411 C  
HETATM    2  C   UNL     1     -11.190  11.647  63.682  1.00  0.00    -0.497 C  
ENDROOT
BRANCH   2   3
HETATM    3  C   UNL     1     -11.084  12.836  64.643  1.00  0.00    -0.349 C  
BRANCH   3   4
HETATM    4  C   UNL     1     -10.803  12.302  66.036  1.00  0.00    -0.275 C  
BRANCH   4   5
HETATM    5  O   UNL     1     -11.993  12.048  66.790  1.00  0.00    -0.616 OA 
BRANCH   5   6
HETATM    6  C   UNL     1     -11.741  11.431  67.996  1.00  0.00    -0.254 A  
HETATM    7  C   UNL     1     -12.199  11.916  69.222  1.00  0.00    -0.169 A  
HETATM    8  C   UNL     1     -11.894  11.270  70.407  1.00  0.00    -0.443 A  
HETATM    9  C   UNL     1     -11.121  10.112  70.412  1.00  0.00    -0.324 A  
HETATM   10  C   UNL     1     -10.982  10.260  67.984  1.00  0.00    -0.345 A  
HETATM   11  C   UNL     1     -10.674   9.605  69.191  1.00  0.00    -0.237 A  
BRANCH   9  12
HETATM   12  O   UNL     1     -10.767   9.437  71.559  1.00  0.00    -0.346 OA 
BRANCH  12  13
HETATM   13  C   UNL     1      -9.548   8.686  71.434  1.00  0.00    -0.243 C  
BRANCH  13  14
HETATM   14  C   UNL     1      -9.159   8.051  72.761  1.00  0.00    -0.303 C  
BRANCH  14  15
HETATM   15  C   UNL     1     -10.029   6.820  73.083  1.00  0.00    -0.192 C  
BRANCH  15  16
HETATM   16  N   UNL     1      -9.281   5.646  73.564  1.00  0.00    -0.134 NA 
HETATM   17  C   UNL     1     -10.063   4.767  74.463  1.00  0.00    -0.235 C  
HETATM   18  C   UNL     1     -11.113   3.909  73.740  1.00  0.00    -0.206 C  
HETATM   19  O   UNL     1     -10.506   3.099  72.728  1.00  0.00    -0.163 OA 
HETATM   20  C   UNL     1      -9.820   3.918  71.773  1.00  0.00    -0.179 C  
HETATM   21  C   UNL     1      -8.767   4.819  72.446  1.00  0.00    -0.119 C  
ENDBRANCH  15  16
ENDBRANCH  14  15
ENDBRANCH  13  14
ENDBRANCH  12  13
ENDBRANCH   9  12
ENDBRANCH   5   6
ENDBRANCH   4   5
ENDBRANCH   3   4
ENDBRANCH   2   3
TORSDOF 9
ENDMDL
MODEL      130
REMARK 921   NORMALIZED FREE ENERGY PREDICTED BY IDOCK:   -3.80 KCAL/MOL
REMARK 922        TOTAL FREE ENERGY PREDICTED BY IDOCK:   -6.64 KCAL/MOL
REMARK 923 INTER-LIGAND FREE ENERGY PREDICTED BY IDOCK:   -6.03 KCAL/MOL
REMARK 924 INTRA-LIGAND FREE ENERGY PREDICTED BY IDOCK:   -0.61 KCAL/MOL
REMARK 927      BINDING AFFINITY PREDICTED BY RF-SCORE:    0.00 PKD
ROOT
HETATM    1  C   UNL     1      -8.358   5.915  64.782  1.00  0.00    -0.103 C  
HETATM    2  C   UNL     1      -8.559   6.781  66.008  1.00  0.00    -0.149 C  
ENDROOT
BRANCH   2   3
HETATM    3  C   UNL     1      -9.812   6.382  66.795  1.00  0.00    -0.209 C  
BRANCH   3   4
HETATM    4  C   UNL     1     -10.622   7.635  67.074  1.00  0.00    -0.336 C  
BRANCH   4   5
HETATM    5  O   UNL     1     -10.125   8.387  68.186  1.00  0.00    -0.185 OA 
BRANCH   5   6
HETATM    6  C   UNL     1     -10.616   9.675  68.222  1.00  0.00    -0.225 A  
HETATM    7  C   UNL     1     -11.100  10.284  69.380  1.00  0.00    -0.299 A  
HETATM    8  C   UNL     1     -11.606  11.573  69.354  1.00  0.00    -0.388 A  
HETATM    9  C   UNL     1     -11.643  12.302  68.168  1.00  0.00    -0.339 A  
HETATM   10  C   UNL     1     -10.628  10.401  67.030  1.00  0.00    -0.305 A  
HETATM   11  C   UNL     1     -11.142  11.711  67.007  1.00  0.00    -0.359 A  
BRANCH   9  12
HETATM   12  O   UNL     1     -12.152  13.578  68.075  1.00  0.00    -0.347 OA 
BRANCH  12  13
HETATM   13  C   UNL     1     -11.863  14.401  69.216  1.00  0.00    -0.325 C  
BRANCH  13  14
HETATM   14  C   UNL     1     -11.690  15.858  68.811  1.00  0.00    -0.355 C  
BRANCH  14  15
HETATM   15  C   UNL     1     -10.225  16.315  68.935  1.00  0.00    -0.256 C  
BRANCH  15  16
HETATM   16  N   UNL     1      -9.583  16.677  67.659  1.00  0.00    -0.237 NA 
HETATM   17  C   UNL     1     -10.406  17.561  66.804  1.00  0.00    -0.314 C  
HETATM   18  C   UNL     1     -10.465  19.018  67.286  1.00  0.00    -0.451 C  
HETATM   19  O   UNL     1      -9.151  19.579  67.386  1.00  0.00    -0.295 OA 
HETATM   20  C   UNL     1      -8.345  18.811  68.287  1.00  0.00    -0.330 C  
HETATM   21  C   UNL     1      -8.268  17.331  67.865  1.00  0.00    -0.219 C  
ENDBRANCH  15  16
ENDBRANCH  14  15
ENDBRANCH  13  14
ENDBRANCH  12  13
ENDBRANCH   9  12
ENDBRANCH   5   6
ENDBRANCH   4   5
ENDBRANCH   3   4
ENDBRANCH   2   3
TORSDOF 9
ENDMDL
MODEL      131
REMARK 921   NORMALIZED FREE ENERGY PREDICTED BY IDOCK:   -3.79 KCAL/MOL
REMARK 922        TOTAL FREE ENERGY PREDICTED BY IDOCK:   -6.62 KCAL/MOL
REMARK 923 INTER-LIGAND FREE ENERGY PREDICTED BY IDOCK:   -6.01 KCAL/MOL
REMARK 924 INTRA-LIGAND FREE ENERGY PREDICTED BY IDOCK:   -0.61 KCAL/MOL
REMARK 927      BINDING AFFINITY PREDICTED BY RF-SCORE:    0.00 PKD
ROOT
HETATM    1  C   UNL     1     -13.516   7.421  71.431  1.00  0.00    -0.405 C  
HETATM    2  C   UNL     1     -12.689   8.260  72.382  1.00  0.00    -0.287 C  
ENDROOT
BRANCH   2   3
HETATM    3  C   UNL     1     -11.187   8.012  72.210  1.00  0.00    -0.402 C  
BRANCH   3   4
HETATM    4  C   UNL     1     -10.605   9.146  71.386  1.00  0.00    -0.341 C  
BRANCH   4   5
HETATM    5  O   UNL     1     -11.006   9.103  70.012  1.00  0.00    -0.231 OA 
BRANCH   5   6
HETATM    6  C   UNL     1     -10.697  10.260  69.328  1.00  0.00    -0.234 A  
HETATM    7  C   UNL     1     -11.618  11.277  69.076  1.00  0.00    -0.386 A  
HETATM    8  C   UNL     1     -11.260  12.407  68.361  1.00  0.00    -0.316 A  
HETATM    9  C   UNL     1      -9.966  12.564  67.874  1.00  0.00    -0.212 A  
HETATM   10  C   UNL     1      -9.390  10.413  68.863  1.00  0.00    -0.190 A  
HETATM   11  C   UNL     1      -9.028  11.564  68.138  1.00  0.00    -0.172 A  
BRANCH   9  12
HETATM   12  O   UNL     1      -9.555  13.654  67.140  1.00  0.00    -0.226 OA 
BRANCH  12  13
HETATM   13  C   UNL     1      -8.201  14.055  67.408  1.00  0.00    -0.190 C  
BRANCH  13  14
HETATM   14  C   UNL     1      -8.146  15.486  67.923  1.00  0.00    -0.147 C  
BRANCH  14  15
HETATM   15  C   UNL     1      -9.334  16.323  67.414  1.00  0.00    -0.221 C  
BRANCH  15  16
HETATM   16  N   UNL     1      -9.631  17.523  68.216  1.00  0.00    -0.287 NA 
HETATM   17  C   UNL     1      -8.482  18.446  68.360  1.00  0.00    -0.326 C  
HETATM   18  C   UNL     1      -8.174  19.262  67.095  1.00  0.00    -0.268 C  
HETATM   19  O   UNL     1      -9.317  20.020  66.683  1.00  0.00    -0.358 OA 
HETATM   20  C   UNL     1     -10.431  19.154  66.433  1.00  0.00    -0.463 C  
HETATM   21  C   UNL     1     -10.771  18.292  67.663  1.00  0.00    -0.348 C  
ENDBRANCH  15  16
ENDBRANCH  14  15
ENDBRANCH  13  14
ENDBRANCH  12  13
ENDBRANCH   9  12
ENDBRANCH   5   6
ENDBRANCH   4   5
ENDBRANCH   3   4
ENDBRANCH   2   3
TORSDOF 9
ENDMDL
MODEL      132
REMARK 921   NORMALIZED FREE ENERGY PREDICTED BY IDOCK:   -3.78 KCAL/MOL
REMARK 922        TOTAL FREE ENERGY PREDICTED BY IDOCK:   -6.61 KCAL/MOL
REMARK 923 INTER-LIGAND FREE ENERGY PREDICTED BY IDOCK:   -5.22 KCAL/MOL
REMARK 924 INTRA-LIGAND FREE ENERGY PREDICTED BY IDOCK:   -1.39 KCAL/MOL
REMARK 927      BINDING AFFINITY PREDICTED BY RF-SCORE:    0.00 PKD
ROOT
HETATM    1  C   UNL     1     -10.798  11.569  63.696  1.00  0.00    -0.488 C  
HETATM    2  C   UNL     1      -9.341  11.505  63.291  1.00  0.00    -0.232 C  
ENDROOT
BRANCH   2   3
HETATM    3  C   UNL     1      -8.929  10.098  62.846  1.00  0.00    -0.262 C  
BRANCH   3   4
HETATM    4  C   UNL     1      -7.810   9.617  63.752  1.00  0.00    -0.139 C  
BRANCH   4   5
HETATM    5  O   UNL     1      -8.181   8.488  64.551  1.00  0.00    -0.155 OA 
BRANCH   5   6
HETATM    6  C   UNL     1      -8.760   8.849  65.749  1.00  0.00    -0.176 A  
HETATM    7  C   UNL     1      -9.911   8.250  66.262  1.00  0.00    -0.227 A  
HETATM    8  C   UNL     1     -10.465   8.669  67.459  1.00  0.00    -0.335 A  
HETATM    9  C   UNL     1      -9.886   9.703  68.191  1.00  0.00    -0.150 A  
HETATM   10  C   UNL     1      -8.158   9.873  66.482  1.00  0.00    -0.117 A  
HETATM   11  C   UNL     1      -8.723  10.297  67.700  1.00  0.00    -0.121 A  
BRANCH   9  12
HETATM   12  O   UNL     1     -10.402  10.178  69.376  1.00  0.00    -0.202 OA 
BRANCH  12  13
HETATM   13  C   UNL     1     -10.669  11.590  69.366  1.00  0.00    -0.068 C  
BRANCH  13  14
HETATM   14  C   UNL     1     -11.958  11.897  68.617  1.00  0.00    -0.291 C  
BRANCH  14  15
HETATM   15  C   UNL     1     -11.686  12.621  67.285  1.00  0.00    -0.370 C  
BRANCH  15  16
HETATM   16  N   UNL     1     -12.235  13.986  67.203  1.00  0.00    -0.388 NA 
HETATM   17  C   UNL     1     -11.613  14.939  68.149  1.00  0.00    -0.334 C  
HETATM   18  C   UNL     1     -10.201  15.390  67.746  1.00  0.00    -0.241 C  
HETATM   19  O   UNL     1     -10.205  15.982  66.443  1.00  0.00    -0.279 OA 
HETATM   20  C   UNL     1     -10.706  15.056  65.471  1.00  0.00    -0.359 C  
HETATM   21  C   UNL     1     -12.114  14.551  65.837  1.00  0.00    -0.280 C  
ENDBRANCH  15  16
ENDBRANCH  14  15
ENDBRANCH  13  14
ENDBRANCH  12  13
ENDBRANCH   9  12
ENDBRANCH   5   6
ENDBRANCH   4   5
ENDBRANCH   3   4
ENDBRANCH   2   3
TORSDOF 9
ENDMDL
MODEL      133
REMARK 921   NORMALIZED FREE ENERGY PREDICTED BY IDOCK:   -3.78 KCAL/MOL
REMARK 922        TOTAL FREE ENERGY PREDICTED BY IDOCK:   -6.60 KCAL/MOL
REMARK 923 INTER-LIGAND FREE ENERGY PREDICTED BY IDOCK:   -5.69 KCAL/MOL
REMARK 924 INTRA-LIGAND FREE ENERGY PREDICTED BY IDOCK:   -0.91 KCAL/MOL
REMARK 927      BINDING AFFINITY PREDICTED BY RF-SCORE:    0.00 PKD
ROOT
HETATM    1  C   UNL     1     -13.250   9.029  72.066  1.00  0.00    -0.486 C  
HETATM    2  C   UNL     1     -11.815   8.788  72.485  1.00  0.00    -0.272 C  
ENDROOT
BRANCH   2   3
HETATM    3  C   UNL     1     -11.500   7.295  72.625  1.00  0.00    -0.304 C  
BRANCH   3   4
HETATM    4  C   UNL     1     -10.517   6.909  71.535  1.00  0.00    -0.212 C  
BRANCH   4   5
HETATM    5  O   UNL     1     -11.136   6.228  70.438  1.00  0.00    -0.296 OA 
BRANCH   5   6
HETATM    6  C   UNL     1     -10.899   6.841  69.226  1.00  0.00    -0.264 A  
HETATM    7  C   UNL     1     -11.157   6.240  67.994  1.00  0.00    -0.365 A  
HETATM    8  C   UNL     1     -10.876   6.892  66.806  1.00  0.00    -0.270 A  
HETATM    9  C   UNL     1     -10.329   8.172  66.805  1.00  0.00    -0.291 A  
HETATM   10  C   UNL     1     -10.370   8.132  69.241  1.00  0.00    -0.222 A  
HETATM   11  C   UNL     1     -10.087   8.794  68.031  1.00  0.00    -0.241 A  
BRANCH   9  12
HETATM   12  O   UNL     1     -10.009   8.864  65.658  1.00  0.00    -0.108 OA 
BRANCH  12  13
HETATM   13  C   UNL     1      -8.892   9.754  65.812  1.00  0.00    -0.153 C  
BRANCH  13  14
HETATM   14  C   UNL     1      -9.130  11.064  65.075  1.00  0.00    -0.182 C  
BRANCH  14  15
HETATM   15  C   UNL     1     -10.558  11.596  65.302  1.00  0.00    -0.281 C  
BRANCH  15  16
HETATM   16  N   UNL     1     -10.744  13.020  64.971  1.00  0.00    -0.303 NA 
HETATM   17  C   UNL     1     -12.088  13.541  65.309  1.00  0.00    -0.411 C  
HETATM   18  C   UNL     1     -12.309  13.772  66.812  1.00  0.00    -0.321 C  
HETATM   19  O   UNL     1     -11.326  14.669  67.343  1.00  0.00    -0.328 OA 
HETATM   20  C   UNL     1     -10.007  14.154  67.128  1.00  0.00    -0.255 C  
HETATM   21  C   UNL     1      -9.737  13.880  65.636  1.00  0.00    -0.128 C  
ENDBRANCH  15  16
ENDBRANCH  14  15
ENDBRANCH  13  14
ENDBRANCH  12  13
ENDBRANCH   9  12
ENDBRANCH   5   6
ENDBRANCH   4   5
ENDBRANCH   3   4
ENDBRANCH   2   3
TORSDOF 9
ENDMDL
MODEL      134
REMARK 921   NORMALIZED FREE ENERGY PREDICTED BY IDOCK:   -3.77 KCAL/MOL
REMARK 922        TOTAL FREE ENERGY PREDICTED BY IDOCK:   -6.59 KCAL/MOL
REMARK 923 INTER-LIGAND FREE ENERGY PREDICTED BY IDOCK:   -5.66 KCAL/MOL
REMARK 924 INTRA-LIGAND FREE ENERGY PREDICTED BY IDOCK:   -0.93 KCAL/MOL
REMARK 927      BINDING AFFINITY PREDICTED BY RF-SCORE:    0.00 PKD
ROOT
HETATM    1  C   UNL     1     -10.450   4.634  65.978  1.00  0.00    -0.303 C  
HETATM    2  C   UNL     1      -9.245   3.770  66.280  1.00  0.00    -0.172 C  
ENDROOT
BRANCH   2   3
HETATM    3  C   UNL     1      -9.368   3.066  67.636  1.00  0.00    -0.242 C  
BRANCH   3   4
HETATM    4  C   UNL     1      -9.063   4.074  68.729  1.00  0.00    -0.134 C  
BRANCH   4   5
HETATM    5  O   UNL     1     -10.018   4.050  69.795  1.00  0.00    -0.180 OA 
BRANCH   5   6
HETATM    6  C   UNL     1     -10.222   5.292  70.358  1.00  0.00    -0.268 A  
HETATM    7  C   UNL     1      -9.487   5.779  71.440  1.00  0.00    -0.174 A  
HETATM    8  C   UNL     1      -9.751   7.024  71.983  1.00  0.00    -0.166 A  
HETATM    9  C   UNL     1     -10.759   7.832  71.463  1.00  0.00    -0.222 A  
HETATM   10  C   UNL     1     -11.222   6.099  69.814  1.00  0.00    -0.494 A  
HETATM   11  C   UNL     1     -11.488   7.366  70.368  1.00  0.00    -0.250 A  
BRANCH   9  12
HETATM   12  O   UNL     1     -11.083   9.070  71.973  1.00  0.00    -0.364 OA 
BRANCH  12  13
HETATM   13  C   UNL     1     -12.486   9.372  71.909  1.00  0.00    -0.390 C  
BRANCH  13  14
HETATM   14  C   UNL     1     -12.719  10.777  71.374  1.00  0.00    -0.544 C  
BRANCH  14  15
HETATM   15  C   UNL     1     -12.429  10.869  69.864  1.00  0.00    -0.224 C  
BRANCH  15  16
HETATM   16  N   UNL     1     -11.242  11.667  69.512  1.00  0.00    -0.238 NA 
HETATM   17  C   UNL     1     -10.158  10.882  68.880  1.00  0.00    -0.198 C  
HETATM   18  C   UNL     1     -10.436  10.494  67.420  1.00  0.00    -0.244 C  
HETATM   19  O   UNL     1     -10.682  11.656  66.619  1.00  0.00    -0.246 OA 
HETATM   20  C   UNL     1     -11.794  12.397  67.136  1.00  0.00    -0.291 C  
HETATM   21  C   UNL     1     -11.579  12.794  68.609  1.00  0.00    -0.314 C  
ENDBRANCH  15  16
ENDBRANCH  14  15
ENDBRANCH  13  14
ENDBRANCH  12  13
ENDBRANCH   9  12
ENDBRANCH   5   6
ENDBRANCH   4   5
ENDBRANCH   3   4
ENDBRANCH   2   3
TORSDOF 9
ENDMDL
MODEL      135
REMARK 921   NORMALIZED FREE ENERGY PREDICTED BY IDOCK:   -3.76 KCAL/MOL
REMARK 922        TOTAL FREE ENERGY PREDICTED BY IDOCK:   -6.58 KCAL/MOL
REMARK 923 INTER-LIGAND FREE ENERGY PREDICTED BY IDOCK:   -6.00 KCAL/MOL
REMARK 924 INTRA-LIGAND FREE ENERGY PREDICTED BY IDOCK:   -0.58 KCAL/MOL
REMARK 927      BINDING AFFINITY PREDICTED BY RF-SCORE:    0.00 PKD
ROOT
HETATM    1  C   UNL     1     -12.633   8.069  72.312  1.00  0.00    -0.270 C  
HETATM    2  C   UNL     1     -13.639   9.109  71.865  1.00  0.00    -0.493 C  
ENDROOT
BRANCH   2   3
HETATM    3  C   UNL     1     -13.048  10.522  71.881  1.00  0.00    -0.567 C  
BRANCH   3   4
HETATM    4  C   UNL     1     -13.034  11.052  70.459  1.00  0.00    -0.085 C  
BRANCH   4   5
HETATM    5  O   UNL     1     -11.712  11.194  69.927  1.00  0.00    -0.292 OA 
BRANCH   5   6
HETATM    6  C   UNL     1     -11.501  12.424  69.341  1.00  0.00    -0.271 A  
HETATM    7  C   UNL     1     -11.373  13.611  70.064  1.00  0.00    -0.054 A  
HETATM    8  C   UNL     1     -11.188  14.824  69.422  1.00  0.00    -0.308 A  
HETATM    9  C   UNL     1     -11.122  14.895  68.033  1.00  0.00    -0.295 A  
HETATM   10  C   UNL     1     -11.417  12.478  67.949  1.00  0.00    -0.369 A  
HETATM   11  C   UNL     1     -11.228  13.712  67.300  1.00  0.00    -0.329 A  
BRANCH   9  12
HETATM   12  O   UNL     1     -10.961  16.072  67.337  1.00  0.00    -0.315 OA 
BRANCH  12  13
HETATM   13  C   UNL     1     -11.001  17.245  68.167  1.00  0.00    -0.193 C  
BRANCH  13  14
HETATM   14  C   UNL     1     -10.484  18.464  67.418  1.00  0.00    -0.443 C  
BRANCH  14  15
HETATM   15  C   UNL     1      -9.351  19.170  68.187  1.00  0.00    -0.335 C  
BRANCH  15  16
HETATM   16  N   UNL     1      -8.008  18.990  67.608  1.00  0.00    -0.256 NA 
HETATM   17  C   UNL     1      -6.933  19.661  68.372  1.00  0.00    -0.302 C  
HETATM   18  C   UNL     1      -6.559  18.951  69.682  1.00  0.00    -0.172 C  
HETATM   19  O   UNL     1      -6.163  17.597  69.436  1.00  0.00    -0.230 OA 
HETATM   20  C   UNL     1      -7.217  16.875  68.786  1.00  0.00    -0.220 C  
HETATM   21  C   UNL     1      -7.650  17.557  67.474  1.00  0.00    -0.197 C  
ENDBRANCH  15  16
ENDBRANCH  14  15
ENDBRANCH  13  14
ENDBRANCH  12  13
ENDBRANCH   9  12
ENDBRANCH   5   6
ENDBRANCH   4   5
ENDBRANCH   3   4
ENDBRANCH   2   3
TORSDOF 9
ENDMDL
MODEL      136
REMARK 921   NORMALIZED FREE ENERGY PREDICTED BY IDOCK:   -3.75 KCAL/MOL
REMARK 922        TOTAL FREE ENERGY PREDICTED BY IDOCK:   -6.57 KCAL/MOL
REMARK 923 INTER-LIGAND FREE ENERGY PREDICTED BY IDOCK:   -5.38 KCAL/MOL
REMARK 924 INTRA-LIGAND FREE ENERGY PREDICTED BY IDOCK:   -1.19 KCAL/MOL
REMARK 927      BINDING AFFINITY PREDICTED BY RF-SCORE:    0.00 PKD
ROOT
HETATM    1  C   UNL     1     -12.678  11.720  63.506  1.00  0.00    -0.428 C  
HETATM    2  C   UNL     1     -11.604  12.786  63.476  1.00  0.00    -0.565 C  
ENDROOT
BRANCH   2   3
HETATM    3  C   UNL     1     -12.126  14.143  63.959  1.00  0.00    -0.382 C  
BRANCH   3   4
HETATM    4  C   UNL     1     -12.749  13.956  65.331  1.00  0.00    -0.490 C  
BRANCH   4   5
HETATM    5  O   UNL     1     -11.946  14.492  66.388  1.00  0.00    -0.392 OA 
BRANCH   5   6
HETATM    6  C   UNL     1     -11.198  13.529  67.032  1.00  0.00    -0.312 A  
HETATM    7  C   UNL     1      -9.856  13.277  66.746  1.00  0.00    -0.264 A  
HETATM    8  C   UNL     1      -9.159  12.279  67.406  1.00  0.00    -0.184 A  
HETATM    9  C   UNL     1      -9.777  11.498  68.378  1.00  0.00    -0.202 A  
HETATM   10  C   UNL     1     -11.826  12.767  68.018  1.00  0.00    -0.386 A  
HETATM   11  C   UNL     1     -11.114  11.754  68.688  1.00  0.00    -0.289 A  
BRANCH   9  12
HETATM   12  O   UNL     1      -9.143  10.478  69.053  1.00  0.00    -0.171 OA 
BRANCH  12  13
HETATM   13  C   UNL     1      -9.562   9.166  68.644  1.00  0.00    -0.152 C  
BRANCH  13  14
HETATM   14  C   UNL     1      -8.373   8.323  68.209  1.00  0.00    -0.132 C  
BRANCH  14  15
HETATM   15  C   UNL     1      -7.879   8.712  66.803  1.00  0.00    -0.094 C  
BRANCH  15  16
HETATM   16  N   UNL     1      -8.812   8.386  65.710  1.00  0.00    -0.168 NA 
HETATM   17  C   UNL     1      -9.491   9.566  65.130  1.00  0.00    -0.236 C  
HETATM   18  C   UNL     1      -8.593  10.421  64.224  1.00  0.00    -0.185 C  
HETATM   19  O   UNL     1      -8.050   9.639  63.154  1.00  0.00    -0.130 OA 
HETATM   20  C   UNL     1      -7.294   8.537  63.671  1.00  0.00    -0.106 C  
HETATM   21  C   UNL     1      -8.141   7.655  64.609  1.00  0.00    -0.112 C  
ENDBRANCH  15  16
ENDBRANCH  14  15
ENDBRANCH  13  14
ENDBRANCH  12  13
ENDBRANCH   9  12
ENDBRANCH   5   6
ENDBRANCH   4   5
ENDBRANCH   3   4
ENDBRANCH   2   3
TORSDOF 9
ENDMDL
MODEL      137
REMARK 921   NORMALIZED FREE ENERGY PREDICTED BY IDOCK:   -3.75 KCAL/MOL
REMARK 922        TOTAL FREE ENERGY PREDICTED BY IDOCK:   -6.56 KCAL/MOL
REMARK 923 INTER-LIGAND FREE ENERGY PREDICTED BY IDOCK:   -5.99 KCAL/MOL
REMARK 924 INTRA-LIGAND FREE ENERGY PREDICTED BY IDOCK:   -0.57 KCAL/MOL
REMARK 927      BINDING AFFINITY PREDICTED BY RF-SCORE:    0.00 PKD
ROOT
HETATM    1  C   UNL     1      -5.990   8.762  69.587  1.00  0.00    -0.032 C  
HETATM    2  C   UNL     1      -6.129   8.859  68.082  1.00  0.00    -0.050 C  
ENDROOT
BRANCH   2   3
HETATM    3  C   UNL     1      -7.395   9.616  67.670  1.00  0.00    -0.090 C  
BRANCH   3   4
HETATM    4  C   UNL     1      -8.146   8.777  66.652  1.00  0.00    -0.103 C  
BRANCH   4   5
HETATM    5  O   UNL     1      -9.092   7.884  67.249  1.00  0.00    -0.131 OA 
BRANCH   5   6
HETATM    6  C   UNL     1      -9.804   8.469  68.275  1.00  0.00    -0.169 A  
HETATM    7  C   UNL     1     -10.484   9.681  68.149  1.00  0.00    -0.266 A  
HETATM    8  C   UNL     1     -11.163  10.236  69.220  1.00  0.00    -0.281 A  
HETATM    9  C   UNL     1     -11.190   9.599  70.457  1.00  0.00    -0.297 A  
HETATM   10  C   UNL     1      -9.839   7.809  69.504  1.00  0.00    -0.179 A  
HETATM   11  C   UNL     1     -10.531   8.375  70.591  1.00  0.00    -0.227 A  
BRANCH   9  12
HETATM   12  O   UNL     1     -11.829  10.111  71.564  1.00  0.00    -0.362 OA 
BRANCH  12  13
HETATM   13  C   UNL     1     -13.123  10.666  71.279  1.00  0.00    -0.359 C  
BRANCH  13  14
HETATM   14  C   UNL     1     -13.331  11.978  72.021  1.00  0.00    -0.447 C  
BRANCH  14  15
HETATM   15  C   UNL     1     -12.674  13.161  71.285  1.00  0.00    -0.306 C  
BRANCH  15  16
HETATM   16  N   UNL     1     -13.424  14.427  71.359  1.00  0.00    -0.353 NA 
HETATM   17  C   UNL     1     -13.659  14.904  72.740  1.00  0.00    -0.435 C  
HETATM   18  C   UNL     1     -12.415  15.502  73.415  1.00  0.00    -0.511 C  
HETATM   19  O   UNL     1     -11.886  16.587  72.644  1.00  0.00    -0.541 OA 
HETATM   20  C   UNL     1     -11.547  16.147  71.324  1.00  0.00    -0.413 C  
HETATM   21  C   UNL     1     -12.755  15.514  70.606  1.00  0.00    -0.436 C  
ENDBRANCH  15  16
ENDBRANCH  14  15
ENDBRANCH  13  14
ENDBRANCH  12  13
ENDBRANCH   9  12
ENDBRANCH   5   6
ENDBRANCH   4   5
ENDBRANCH   3   4
ENDBRANCH   2   3
TORSDOF 9
ENDMDL
MODEL      138
REMARK 921   NORMALIZED FREE ENERGY PREDICTED BY IDOCK:   -3.74 KCAL/MOL
REMARK 922        TOTAL FREE ENERGY PREDICTED BY IDOCK:   -6.55 KCAL/MOL
REMARK 923 INTER-LIGAND FREE ENERGY PREDICTED BY IDOCK:   -5.61 KCAL/MOL
REMARK 924 INTRA-LIGAND FREE ENERGY PREDICTED BY IDOCK:   -0.94 KCAL/MOL
REMARK 927      BINDING AFFINITY PREDICTED BY RF-SCORE:    0.00 PKD
ROOT
HETATM    1  C   UNL     1     -12.551  11.834  63.796  1.00  0.00    -0.413 C  
HETATM    2  C   UNL     1     -12.365  13.262  63.331  1.00  0.00    -0.402 C  
ENDROOT
BRANCH   2   3
HETATM    3  C   UNL     1     -11.705  14.134  64.404  1.00  0.00    -0.409 C  
BRANCH   3   4
HETATM    4  C   UNL     1     -12.425  13.903  65.720  1.00  0.00    -0.495 C  
BRANCH   4   5
HETATM    5  O   UNL     1     -11.544  13.897  66.848  1.00  0.00    -0.339 OA 
BRANCH   5   6
HETATM    6  C   UNL     1     -11.078  12.636  67.155  1.00  0.00    -0.280 A  
HETATM    7  C   UNL     1     -11.749  11.749  67.997  1.00  0.00    -0.363 A  
HETATM    8  C   UNL     1     -11.221  10.503  68.292  1.00  0.00    -0.354 A  
HETATM    9  C   UNL     1     -10.004  10.097  67.753  1.00  0.00    -0.168 A  
HETATM   10  C   UNL     1      -9.866  12.234  66.592  1.00  0.00    -0.230 A  
HETATM   11  C   UNL     1      -9.333  10.967  66.892  1.00  0.00    -0.186 A  
BRANCH   9  12
HETATM   12  O   UNL     1      -9.418   8.880  68.025  1.00  0.00    -0.141 OA 
BRANCH  12  13
HETATM   13  C   UNL     1     -10.310   7.763  67.877  1.00  0.00    -0.217 C  
BRANCH  13  14
HETATM   14  C   UNL     1     -10.043   6.705  68.937  1.00  0.00    -0.178 C  
BRANCH  14  15
HETATM   15  C   UNL     1     -10.698   7.068  70.284  1.00  0.00    -0.241 C  
BRANCH  15  16
HETATM   16  N   UNL     1      -9.861   7.891  71.174  1.00  0.00    -0.165 NA 
HETATM   17  C   UNL     1     -10.463   8.134  72.504  1.00  0.00    -0.339 C  
HETATM   18  C   UNL     1     -10.418   6.919  73.443  1.00  0.00    -0.331 C  
HETATM   19  O   UNL     1      -9.073   6.465  73.629  1.00  0.00    -0.126 OA 
HETATM   20  C   UNL     1      -8.480   6.118  72.372  1.00  0.00    -0.115 C  
HETATM   21  C   UNL     1      -8.519   7.296  71.379  1.00  0.00    -0.114 C  
ENDBRANCH  15  16
ENDBRANCH  14  15
ENDBRANCH  13  14
ENDBRANCH  12  13
ENDBRANCH   9  12
ENDBRANCH   5   6
ENDBRANCH   4   5
ENDBRANCH   3   4
ENDBRANCH   2   3
TORSDOF 9
ENDMDL
MODEL      139
REMARK 921   NORMALIZED FREE ENERGY PREDICTED BY IDOCK:   -3.73 KCAL/MOL
REMARK 922        TOTAL FREE ENERGY PREDICTED BY IDOCK:   -6.53 KCAL/MOL
REMARK 923 INTER-LIGAND FREE ENERGY PREDICTED BY IDOCK:   -5.67 KCAL/MOL
REMARK 924 INTRA-LIGAND FREE ENERGY PREDICTED BY IDOCK:   -0.87 KCAL/MOL
REMARK 927      BINDING AFFINITY PREDICTED BY RF-SCORE:    0.00 PKD
ROOT
HETATM    1  C   UNL     1      -9.462  14.959  67.067  1.00  0.00    -0.239 C  
HETATM    2  C   UNL     1     -10.407  16.128  67.241  1.00  0.00    -0.287 C  
ENDROOT
BRANCH   2   3
HETATM    3  C   UNL     1     -11.425  15.882  68.359  1.00  0.00    -0.348 C  
BRANCH   3   4
HETATM    4  C   UNL     1     -11.861  14.430  68.300  1.00  0.00    -0.326 C  
BRANCH   4   5
HETATM    5  O   UNL     1     -12.364  13.944  69.549  1.00  0.00    -0.333 OA 
BRANCH   5   6
HETATM    6  C   UNL     1     -12.018  12.631  69.791  1.00  0.00    -0.295 A  
HETATM    7  C   UNL     1     -12.521  11.885  70.857  1.00  0.00    -0.397 A  
HETATM    8  C   UNL     1     -12.119  10.577  71.068  1.00  0.00    -0.492 A  
HETATM    9  C   UNL     1     -11.200   9.966  70.219  1.00  0.00    -0.301 A  
HETATM   10  C   UNL     1     -11.112  12.025  68.920  1.00  0.00    -0.298 A  
HETATM   11  C   UNL     1     -10.706  10.695  69.136  1.00  0.00    -0.264 A  
BRANCH   9  12
HETATM   12  O   UNL     1     -10.746   8.677  70.389  1.00  0.00    -0.215 OA 
BRANCH  12  13
HETATM   13  C   UNL     1     -11.703   7.805  71.014  1.00  0.00    -0.281 C  
BRANCH  13  14
HETATM   14  C   UNL     1     -11.498   6.363  70.573  1.00  0.00    -0.444 C  
BRANCH  14  15
HETATM   15  C   UNL     1     -11.222   6.261  69.061  1.00  0.00    -0.343 C  
BRANCH  15  16
HETATM   16  N   UNL     1     -10.016   5.492  68.705  1.00  0.00    -0.159 NA 
HETATM   17  C   UNL     1      -9.872   5.244  67.253  1.00  0.00    -0.161 C  
HETATM   18  C   UNL     1      -9.428   6.476  66.449  1.00  0.00    -0.126 C  
HETATM   19  O   UNL     1      -8.189   6.994  66.947  1.00  0.00    -0.114 OA 
HETATM   20  C   UNL     1      -8.311   7.345  68.331  1.00  0.00    -0.125 C  
HETATM   21  C   UNL     1      -8.777   6.151  69.184  1.00  0.00    -0.121 C  
ENDBRANCH  15  16
ENDBRANCH  14  15
ENDBRANCH  13  14
ENDBRANCH  12  13
ENDBRANCH   9  12
ENDBRANCH   5   6
ENDBRANCH   4   5
ENDBRANCH   3   4
ENDBRANCH   2   3
TORSDOF 9
ENDMDL
MODEL      140
REMARK 921   NORMALIZED FREE ENERGY PREDICTED BY IDOCK:   -3.71 KCAL/MOL
REMARK 922        TOTAL FREE ENERGY PREDICTED BY IDOCK:   -6.49 KCAL/MOL
REMARK 923 INTER-LIGAND FREE ENERGY PREDICTED BY IDOCK:   -5.63 KCAL/MOL
REMARK 924 INTRA-LIGAND FREE ENERGY PREDICTED BY IDOCK:   -0.86 KCAL/MOL
REMARK 927      BINDING AFFINITY PREDICTED BY RF-SCORE:    0.00 PKD
ROOT
HETATM    1  C   UNL     1     -12.027  12.838  65.765  1.00  0.00    -0.502 C  
HETATM    2  C   UNL     1     -12.342  12.550  64.312  1.00  0.00    -0.541 C  
ENDROOT
BRANCH   2   3
HETATM    3  C   UNL     1     -11.146  11.939  63.575  1.00  0.00    -0.506 C  
BRANCH   3   4
HETATM    4  C   UNL     1     -10.185  11.376  64.605  1.00  0.00    -0.294 C  
BRANCH   4   5
HETATM    5  O   UNL     1      -9.740  10.052  64.292  1.00  0.00    -0.296 OA 
BRANCH   5   6
HETATM    6  C   UNL     1      -9.615   9.252  65.409  1.00  0.00    -0.167 A  
HETATM    7  C   UNL     1      -8.673   8.229  65.524  1.00  0.00    -0.173 A  
HETATM    8  C   UNL     1      -8.609   7.439  66.658  1.00  0.00    -0.128 A  
HETATM    9  C   UNL     1      -9.483   7.643  67.722  1.00  0.00    -0.142 A  
HETATM   10  C   UNL     1     -10.486   9.481  66.475  1.00  0.00    -0.201 A  
HETATM   11  C   UNL     1     -10.417   8.677  67.628  1.00  0.00    -0.311 A  
BRANCH   9  12
HETATM   12  O   UNL     1      -9.482   6.878  68.867  1.00  0.00    -0.138 OA 
BRANCH  12  13
HETATM   13  C   UNL     1     -10.077   5.580  68.695  1.00  0.00    -0.183 C  
BRANCH  13  14
HETATM   14  C   UNL     1     -10.054   4.792  69.997  1.00  0.00    -0.308 C  
BRANCH  14  15
HETATM   15  C   UNL     1      -9.396   5.591  71.138  1.00  0.00    -0.150 C  
BRANCH  15  16
HETATM   16  N   UNL     1     -10.194   5.671  72.374  1.00  0.00    -0.188 NA 
HETATM   17  C   UNL     1      -9.778   6.759  73.286  1.00  0.00    -0.176 C  
HETATM   18  C   UNL     1     -10.201   8.161  72.820  1.00  0.00    -0.302 C  
HETATM   19  O   UNL     1     -11.619   8.236  72.642  1.00  0.00    -0.399 OA 
HETATM   20  C   UNL     1     -12.058   7.263  71.685  1.00  0.00    -0.325 C  
HETATM   21  C   UNL     1     -11.640   5.837  72.090  1.00  0.00    -0.203 C  
ENDBRANCH  15  16
ENDBRANCH  14  15
ENDBRANCH  13  14
ENDBRANCH  12  13
ENDBRANCH   9  12
ENDBRANCH   5   6
ENDBRANCH   4   5
ENDBRANCH   3   4
ENDBRANCH   2   3
TORSDOF 9
ENDMDL
MODEL      141
REMARK 921   NORMALIZED FREE ENERGY PREDICTED BY IDOCK:   -3.70 KCAL/MOL
REMARK 922        TOTAL FREE ENERGY PREDICTED BY IDOCK:   -6.49 KCAL/MOL
REMARK 923 INTER-LIGAND FREE ENERGY PREDICTED BY IDOCK:   -5.92 KCAL/MOL
REMARK 924 INTRA-LIGAND FREE ENERGY PREDICTED BY IDOCK:   -0.57 KCAL/MOL
REMARK 927      BINDING AFFINITY PREDICTED BY RF-SCORE:    0.00 PKD
ROOT
HETATM    1  C   UNL     1      -8.900   6.526  72.494  1.00  0.00    -0.132 C  
HETATM    2  C   UNL     1      -9.807   5.356  72.809  1.00  0.00    -0.180 C  
ENDROOT
BRANCH   2   3
HETATM    3  C   UNL     1     -11.286   5.757  72.803  1.00  0.00    -0.328 C  
BRANCH   3   4
HETATM    4  C   UNL     1     -11.558   6.566  71.548  1.00  0.00    -0.315 C  
BRANCH   4   5
HETATM    5  O   UNL     1     -11.280   5.843  70.344  1.00  0.00    -0.321 OA 
BRANCH   5   6
HETATM    6  C   UNL     1     -10.961   6.669  69.287  1.00  0.00    -0.295 A  
HETATM    7  C   UNL     1     -10.601   8.008  69.435  1.00  0.00    -0.210 A  
HETATM    8  C   UNL     1     -10.315   8.800  68.336  1.00  0.00    -0.242 A  
HETATM    9  C   UNL     1     -10.376   8.280  67.046  1.00  0.00    -0.323 A  
HETATM   10  C   UNL     1     -11.007   6.128  68.001  1.00  0.00    -0.399 A  
HETATM   11  C   UNL     1     -10.714   6.935  66.885  1.00  0.00    -0.386 A  
BRANCH   9  12
HETATM   12  O   UNL     1     -10.123   9.021  65.913  1.00  0.00    -0.240 OA 
BRANCH  12  13
HETATM   13  C   UNL     1      -9.460  10.269  66.174  1.00  0.00    -0.181 C  
BRANCH  13  14
HETATM   14  C   UNL     1     -10.273  11.441  65.645  1.00  0.00    -0.298 C  
BRANCH  14  15
HETATM   15  C   UNL     1     -11.397  11.843  66.619  1.00  0.00    -0.337 C  
BRANCH  15  16
HETATM   16  N   UNL     1     -11.730  13.278  66.617  1.00  0.00    -0.358 NA 
HETATM   17  C   UNL     1     -11.981  13.837  67.964  1.00  0.00    -0.355 C  
HETATM   18  C   UNL     1     -10.709  14.046  68.801  1.00  0.00    -0.259 C  
HETATM   19  O   UNL     1      -9.783  14.899  68.121  1.00  0.00    -0.207 OA 
HETATM   20  C   UNL     1      -9.430  14.345  66.848  1.00  0.00    -0.258 C  
HETATM   21  C   UNL     1     -10.672  14.092  65.972  1.00  0.00    -0.299 C  
ENDBRANCH  15  16
ENDBRANCH  14  15
ENDBRANCH  13  14
ENDBRANCH  12  13
ENDBRANCH   9  12
ENDBRANCH   5   6
ENDBRANCH   4   5
ENDBRANCH   3   4
ENDBRANCH   2   3
TORSDOF 9
ENDMDL
MODEL      142
REMARK 921   NORMALIZED FREE ENERGY PREDICTED BY IDOCK:   -3.70 KCAL/MOL
REMARK 922        TOTAL FREE ENERGY PREDICTED BY IDOCK:   -6.48 KCAL/MOL
REMARK 923 INTER-LIGAND FREE ENERGY PREDICTED BY IDOCK:   -5.77 KCAL/MOL
REMARK 924 INTRA-LIGAND FREE ENERGY PREDICTED BY IDOCK:   -0.71 KCAL/MOL
REMARK 927      BINDING AFFINITY PREDICTED BY RF-SCORE:    0.00 PKD
ROOT
HETATM    1  C   UNL     1      -9.015  20.431  67.464  1.00  0.00    -0.419 C  
HETATM    2  C   UNL     1      -9.020  19.542  66.239  1.00  0.00    -0.400 C  
ENDROOT
BRANCH   2   3
HETATM    3  C   UNL     1     -10.389  18.895  66.004  1.00  0.00    -0.485 C  
BRANCH   3   4
HETATM    4  C   UNL     1     -10.243  17.393  66.164  1.00  0.00    -0.328 C  
BRANCH   4   5
HETATM    5  O   UNL     1     -10.164  16.979  67.532  1.00  0.00    -0.302 OA 
BRANCH   5   6
HETATM    6  C   UNL     1     -10.446  15.641  67.703  1.00  0.00    -0.283 A  
HETATM    7  C   UNL     1     -11.668  15.165  68.181  1.00  0.00    -0.323 A  
HETATM    8  C   UNL     1     -11.888  13.810  68.358  1.00  0.00    -0.411 A  
HETATM    9  C   UNL     1     -10.897  12.879  68.062  1.00  0.00    -0.241 A  
HETATM   10  C   UNL     1      -9.450  14.718  67.383  1.00  0.00    -0.207 A  
HETATM   11  C   UNL     1      -9.678  13.341  67.563  1.00  0.00    -0.224 A  
BRANCH   9  12
HETATM   12  O   UNL     1     -11.049  11.522  68.236  1.00  0.00    -0.205 OA 
BRANCH  12  13
HETATM   13  C   UNL     1     -12.147  11.169  69.094  1.00  0.00    -0.283 C  
BRANCH  13  14
HETATM   14  C   UNL     1     -11.648  10.611  70.419  1.00  0.00    -0.441 C  
BRANCH  14  15
HETATM   15  C   UNL     1     -10.933   9.258  70.237  1.00  0.00    -0.247 C  
BRANCH  15  16
HETATM   16  N   UNL     1      -9.578   9.196  70.812  1.00  0.00    -0.253 NA 
HETATM   17  C   UNL     1      -9.180   7.843  71.261  1.00  0.00    -0.146 C  
HETATM   18  C   UNL     1      -8.831   6.881  70.115  1.00  0.00    -0.145 C  
HETATM   19  O   UNL     1      -7.783   7.414  69.299  1.00  0.00    -0.102 OA 
HETATM   20  C   UNL     1      -8.166   8.684  68.756  1.00  0.00    -0.121 C  
HETATM   21  C   UNL     1      -8.549   9.685  69.862  1.00  0.00    -0.203 C  
ENDBRANCH  15  16
ENDBRANCH  14  15
ENDBRANCH  13  14
ENDBRANCH  12  13
ENDBRANCH   9  12
ENDBRANCH   5   6
ENDBRANCH   4   5
ENDBRANCH   3   4
ENDBRANCH   2   3
TORSDOF 9
ENDMDL
MODEL      143
REMARK 921   NORMALIZED FREE ENERGY PREDICTED BY IDOCK:   -3.69 KCAL/MOL
REMARK 922        TOTAL FREE ENERGY PREDICTED BY IDOCK:   -6.48 KCAL/MOL
REMARK 923 INTER-LIGAND FREE ENERGY PREDICTED BY IDOCK:   -5.44 KCAL/MOL
REMARK 924 INTRA-LIGAND FREE ENERGY PREDICTED BY IDOCK:   -1.04 KCAL/MOL
REMARK 927      BINDING AFFINITY PREDICTED BY RF-SCORE:    0.00 PKD
ROOT
HETATM    1  C   UNL     1      -8.594   9.164  65.932  1.00  0.00    -0.168 C  
HETATM    2  C   UNL     1      -9.964   9.775  65.727  1.00  0.00    -0.349 C  
ENDROOT
BRANCH   2   3
HETATM    3  C   UNL     1      -9.907  11.305  65.665  1.00  0.00    -0.277 C  
BRANCH   3   4
HETATM    4  C   UNL     1     -10.961  11.863  66.603  1.00  0.00    -0.291 C  
BRANCH   4   5
HETATM    5  O   UNL     1     -10.419  12.322  67.846  1.00  0.00    -0.204 OA 
BRANCH   5   6
HETATM    6  C   UNL     1     -10.802  11.542  68.917  1.00  0.00    -0.218 A  
HETATM    7  C   UNL     1     -11.943  11.787  69.681  1.00  0.00    -0.378 A  
HETATM    8  C   UNL     1     -12.266  10.985  70.763  1.00  0.00    -0.480 A  
HETATM    9  C   UNL     1     -11.461   9.907  71.119  1.00  0.00    -0.383 A  
HETATM   10  C   UNL     1      -9.996  10.452  69.250  1.00  0.00    -0.246 A  
HETATM   11  C   UNL     1     -10.328   9.639  70.350  1.00  0.00    -0.350 A  
BRANCH   9  12
HETATM   12  O   UNL     1     -11.719   9.088  72.196  1.00  0.00    -0.356 OA 
BRANCH  12  13
HETATM   13  C   UNL     1     -10.584   8.311  72.615  1.00  0.00    -0.308 C  
BRANCH  13  14
HETATM   14  C   UNL     1     -10.937   6.834  72.709  1.00  0.00    -0.303 C  
BRANCH  14  15
HETATM   15  C   UNL     1     -10.862   6.140  71.335  1.00  0.00    -0.265 C  
BRANCH  15  16
HETATM   16  N   UNL     1      -9.759   5.174  71.192  1.00  0.00    -0.166 NA 
HETATM   17  C   UNL     1      -9.850   4.337  69.975  1.00  0.00    -0.205 C  
HETATM   18  C   UNL     1      -9.484   5.077  68.679  1.00  0.00    -0.139 C  
HETATM   19  O   UNL     1      -8.163   5.623  68.756  1.00  0.00    -0.102 OA 
HETATM   20  C   UNL     1      -8.055   6.524  69.865  1.00  0.00    -0.121 C  
HETATM   21  C   UNL     1      -8.434   5.840  71.193  1.00  0.00    -0.128 C  
ENDBRANCH  15  16
ENDBRANCH  14  15
ENDBRANCH  13  14
ENDBRANCH  12  13
ENDBRANCH   9  12
ENDBRANCH   5   6
ENDBRANCH   4   5
ENDBRANCH   3   4
ENDBRANCH   2   3
TORSDOF 9
ENDMDL
MODEL      144
REMARK 921   NORMALIZED FREE ENERGY PREDICTED BY IDOCK:   -3.69 KCAL/MOL
REMARK 922        TOTAL FREE ENERGY PREDICTED BY IDOCK:   -6.47 KCAL/MOL
REMARK 923 INTER-LIGAND FREE ENERGY PREDICTED BY IDOCK:   -5.67 KCAL/MOL
REMARK 924 INTRA-LIGAND FREE ENERGY PREDICTED BY IDOCK:   -0.81 KCAL/MOL
REMARK 927      BINDING AFFINITY PREDICTED BY RF-SCORE:    0.00 PKD
ROOT
HETATM    1  C   UNL     1      -8.391  13.567  66.969  1.00  0.00    -0.096 C  
HETATM    2  C   UNL     1      -8.457  15.068  67.157  1.00  0.00    -0.244 C  
ENDROOT
BRANCH   2   3
HETATM    3  C   UNL     1      -9.890  15.599  67.042  1.00  0.00    -0.237 C  
BRANCH   3   4
HETATM    4  C   UNL     1     -10.760  14.506  66.447  1.00  0.00    -0.309 C  
BRANCH   4   5
HETATM    5  O   UNL     1     -12.013  14.357  67.122  1.00  0.00    -0.405 OA 
BRANCH   5   6
HETATM    6  C   UNL     1     -11.976  13.398  68.112  1.00  0.00    -0.321 A  
HETATM    7  C   UNL     1     -12.266  13.661  69.452  1.00  0.00    -0.307 A  
HETATM    8  C   UNL     1     -12.188  12.664  70.410  1.00  0.00    -0.368 A  
HETATM    9  C   UNL     1     -11.820  11.367  70.064  1.00  0.00    -0.359 A  
HETATM   10  C   UNL     1     -11.625  12.098  67.748  1.00  0.00    -0.410 A  
HETATM   11  C   UNL     1     -11.548  11.087  68.724  1.00  0.00    -0.386 A  
BRANCH   9  12
HETATM   12  O   UNL     1     -11.705  10.340  70.973  1.00  0.00    -0.349 OA 
BRANCH  12  13
HETATM   13  C   UNL     1     -10.513   9.554  70.810  1.00  0.00    -0.314 C  
BRANCH  13  14
HETATM   14  C   UNL     1     -10.798   8.285  70.020  1.00  0.00    -0.232 C  
BRANCH  14  15
HETATM   15  C   UNL     1      -9.545   7.780  69.278  1.00  0.00    -0.159 C  
BRANCH  15  16
HETATM   16  N   UNL     1      -9.538   8.046  67.829  1.00  0.00    -0.148 NA 
HETATM   17  C   UNL     1      -8.320   7.566  67.139  1.00  0.00    -0.121 C  
HETATM   18  C   UNL     1      -8.269   6.043  66.947  1.00  0.00    -0.105 C  
HETATM   19  O   UNL     1      -9.414   5.579  66.223  1.00  0.00    -0.152 OA 
HETATM   20  C   UNL     1     -10.620   5.933  66.909  1.00  0.00    -0.315 C  
HETATM   21  C   UNL     1     -10.715   7.451  67.150  1.00  0.00    -0.330 C  
ENDBRANCH  15  16
ENDBRANCH  14  15
ENDBRANCH  13  14
ENDBRANCH  12  13
ENDBRANCH   9  12
ENDBRANCH   5   6
ENDBRANCH   4   5
ENDBRANCH   3   4
ENDBRANCH   2   3
TORSDOF 9
ENDMDL
MODEL      145
REMARK 921   NORMALIZED FREE ENERGY PREDICTED BY IDOCK:   -3.65 KCAL/MOL
REMARK 922        TOTAL FREE ENERGY PREDICTED BY IDOCK:   -6.42 KCAL/MOL
REMARK 923 INTER-LIGAND FREE ENERGY PREDICTED BY IDOCK:   -5.60 KCAL/MOL
REMARK 924 INTRA-LIGAND FREE ENERGY PREDICTED BY IDOCK:   -0.82 KCAL/MOL
REMARK 927      BINDING AFFINITY PREDICTED BY RF-SCORE:    0.00 PKD
ROOT
HETATM    1  C   UNL     1      -9.395  13.506  66.938  1.00  0.00    -0.255 C  
HETATM    2  C   UNL     1     -10.399  12.413  66.641  1.00  0.00    -0.245 C  
ENDROOT
BRANCH   2   3
HETATM    3  C   UNL     1     -11.695  12.590  67.438  1.00  0.00    -0.432 C  
BRANCH   3   4
HETATM    4  C   UNL     1     -11.878  11.377  68.332  1.00  0.00    -0.274 C  
BRANCH   4   5
HETATM    5  O   UNL     1     -11.882  11.702  69.726  1.00  0.00    -0.308 OA 
BRANCH   5   6
HETATM    6  C   UNL     1     -11.653  10.607  70.531  1.00  0.00    -0.350 A  
HETATM    7  C   UNL     1     -10.442   9.915  70.565  1.00  0.00    -0.330 A  
HETATM    8  C   UNL     1     -10.275   8.804  71.375  1.00  0.00    -0.350 A  
HETATM    9  C   UNL     1     -11.311   8.347  72.183  1.00  0.00    -0.366 A  
HETATM   10  C   UNL     1     -12.694  10.172  71.351  1.00  0.00    -0.530 A  
HETATM   11  C   UNL     1     -12.521   9.043  72.175  1.00  0.00    -0.450 A  
BRANCH   9  12
HETATM   12  O   UNL     1     -11.213   7.237  72.994  1.00  0.00    -0.311 OA 
BRANCH  12  13
HETATM   13  C   UNL     1     -11.552   6.007  72.333  1.00  0.00    -0.300 C  
BRANCH  13  14
HETATM   14  C   UNL     1     -10.301   5.244  71.922  1.00  0.00    -0.275 C  
BRANCH  14  15
HETATM   15  C   UNL     1     -10.169   5.148  70.390  1.00  0.00    -0.264 C  
BRANCH  15  16
HETATM   16  N   UNL     1      -8.858   4.674  69.913  1.00  0.00    -0.087 NA 
HETATM   17  C   UNL     1      -8.658   4.831  68.455  1.00  0.00    -0.093 C  
HETATM   18  C   UNL     1      -8.392   6.278  68.013  1.00  0.00    -0.114 C  
HETATM   19  O   UNL     1      -7.250   6.819  68.689  1.00  0.00    -0.080 OA 
HETATM   20  C   UNL     1      -7.442   6.781  70.108  1.00  0.00    -0.094 C  
HETATM   21  C   UNL     1      -7.737   5.353  70.606  1.00  0.00    -0.089 C  
ENDBRANCH  15  16
ENDBRANCH  14  15
ENDBRANCH  13  14
ENDBRANCH  12  13
ENDBRANCH   9  12
ENDBRANCH   5   6
ENDBRANCH   4   5
ENDBRANCH   3   4
ENDBRANCH   2   3
TORSDOF 9
ENDMDL
MODEL      146
REMARK 921   NORMALIZED FREE ENERGY PREDICTED BY IDOCK:   -3.65 KCAL/MOL
REMARK 922        TOTAL FREE ENERGY PREDICTED BY IDOCK:   -6.41 KCAL/MOL
REMARK 923 INTER-LIGAND FREE ENERGY PREDICTED BY IDOCK:   -5.45 KCAL/MOL
REMARK 924 INTRA-LIGAND FREE ENERGY PREDICTED BY IDOCK:   -0.96 KCAL/MOL
REMARK 927      BINDING AFFINITY PREDICTED BY RF-SCORE:    0.00 PKD
ROOT
HETATM    1  C   UNL     1     -11.921  14.211  68.168  1.00  0.00    -0.367 C  
HETATM    2  C   UNL     1     -11.636  14.436  66.698  1.00  0.00    -0.396 C  
ENDROOT
BRANCH   2   3
HETATM    3  C   UNL     1     -12.775  13.929  65.807  1.00  0.00    -0.503 C  
BRANCH   3   4
HETATM    4  C   UNL     1     -12.243  12.800  64.944  1.00  0.00    -0.463 C  
BRANCH   4   5
HETATM    5  O   UNL     1     -10.902  13.022  64.495  1.00  0.00    -0.329 OA 
BRANCH   5   6
HETATM    6  C   UNL     1     -10.094  11.917  64.656  1.00  0.00    -0.269 A  
HETATM    7  C   UNL     1      -9.972  10.905  63.702  1.00  0.00    -0.415 A  
HETATM    8  C   UNL     1      -9.165   9.803  63.927  1.00  0.00    -0.248 A  
HETATM    9  C   UNL     1      -8.448   9.672  65.112  1.00  0.00    -0.150 A  
HETATM   10  C   UNL     1      -9.365  11.809  65.841  1.00  0.00    -0.214 A  
HETATM   11  C   UNL     1      -8.544  10.687  66.065  1.00  0.00    -0.177 A  
BRANCH   9  12
HETATM   12  O   UNL     1      -7.646   8.590  65.402  1.00  0.00    -0.083 OA 
BRANCH  12  13
HETATM   13  C   UNL     1      -7.861   8.046  66.715  1.00  0.00    -0.103 C  
BRANCH  13  14
HETATM   14  C   UNL     1      -9.156   7.249  66.770  1.00  0.00    -0.172 C  
BRANCH  14  15
HETATM   15  C   UNL     1     -10.106   7.776  67.863  1.00  0.00    -0.185 C  
BRANCH  15  16
HETATM   16  N   UNL     1      -9.577   7.685  69.235  1.00  0.00    -0.159 NA 
HETATM   17  C   UNL     1      -9.660   8.953  69.994  1.00  0.00    -0.178 C  
HETATM   18  C   UNL     1     -11.077   9.304  70.472  1.00  0.00    -0.265 C  
HETATM   19  O   UNL     1     -11.620   8.254  71.280  1.00  0.00    -0.269 OA 
HETATM   20  C   UNL     1     -11.655   7.023  70.549  1.00  0.00    -0.319 C  
HETATM   21  C   UNL     1     -10.260   6.632  70.024  1.00  0.00    -0.187 C  
ENDBRANCH  15  16
ENDBRANCH  14  15
ENDBRANCH  13  14
ENDBRANCH  12  13
ENDBRANCH   9  12
ENDBRANCH   5   6
ENDBRANCH   4   5
ENDBRANCH   3   4
ENDBRANCH   2   3
TORSDOF 9
ENDMDL
MODEL      147
REMARK 921   NORMALIZED FREE ENERGY PREDICTED BY IDOCK:   -3.64 KCAL/MOL
REMARK 922        TOTAL FREE ENERGY PREDICTED BY IDOCK:   -6.39 KCAL/MOL
REMARK 923 INTER-LIGAND FREE ENERGY PREDICTED BY IDOCK:   -5.57 KCAL/MOL
REMARK 924 INTRA-LIGAND FREE ENERGY PREDICTED BY IDOCK:   -0.82 KCAL/MOL
REMARK 927      BINDING AFFINITY PREDICTED BY RF-SCORE:    0.00 PKD
ROOT
HETATM    1  C   UNL     1      -8.360   9.566  65.491  1.00  0.00    -0.137 C  
HETATM    2  C   UNL     1      -9.799  10.036  65.476  1.00  0.00    -0.373 C  
ENDROOT
BRANCH   2   3
HETATM    3  C   UNL     1      -9.904  11.564  65.466  1.00  0.00    -0.269 C  
BRANCH   3   4
HETATM    4  C   UNL     1     -10.912  11.982  66.521  1.00  0.00    -0.295 C  
BRANCH   4   5
HETATM    5  O   UNL     1     -10.304  12.343  67.766  1.00  0.00    -0.209 OA 
BRANCH   5   6
HETATM    6  C   UNL     1     -10.773  11.597  68.826  1.00  0.00    -0.219 A  
HETATM    7  C   UNL     1     -11.898  11.942  69.575  1.00  0.00    -0.395 A  
HETATM    8  C   UNL     1     -12.310  11.169  70.648  1.00  0.00    -0.482 A  
HETATM    9  C   UNL     1     -11.613  10.020  71.009  1.00  0.00    -0.393 A  
HETATM   10  C   UNL     1     -10.076  10.436  69.165  1.00  0.00    -0.236 A  
HETATM   11  C   UNL     1     -10.498   9.652  70.255  1.00  0.00    -0.338 A  
BRANCH   9  12
HETATM   12  O   UNL     1     -11.961   9.222  72.077  1.00  0.00    -0.364 OA 
BRANCH  12  13
HETATM   13  C   UNL     1     -11.065   8.119  72.291  1.00  0.00    -0.344 C  
BRANCH  13  14
HETATM   14  C   UNL     1     -11.796   6.790  72.174  1.00  0.00    -0.326 C  
BRANCH  14  15
HETATM   15  C   UNL     1     -10.860   5.662  71.701  1.00  0.00    -0.237 C  
BRANCH  15  16
HETATM   16  N   UNL     1     -10.776   4.508  72.613  1.00  0.00    -0.186 NA 
HETATM   17  C   UNL     1      -9.629   3.613  72.341  1.00  0.00    -0.140 C  
HETATM   18  C   UNL     1      -8.274   4.178  72.793  1.00  0.00    -0.096 C  
HETATM   19  O   UNL     1      -8.288   4.486  74.191  1.00  0.00    -0.101 OA 
HETATM   20  C   UNL     1      -9.322   5.433  74.487  1.00  0.00    -0.133 C  
HETATM   21  C   UNL     1     -10.704   4.927  74.033  1.00  0.00    -0.294 C  
ENDBRANCH  15  16
ENDBRANCH  14  15
ENDBRANCH  13  14
ENDBRANCH  12  13
ENDBRANCH   9  12
ENDBRANCH   5   6
ENDBRANCH   4   5
ENDBRANCH   3   4
ENDBRANCH   2   3
TORSDOF 9
ENDMDL
MODEL      148
REMARK 921   NORMALIZED FREE ENERGY PREDICTED BY IDOCK:   -3.64 KCAL/MOL
REMARK 922        TOTAL FREE ENERGY PREDICTED BY IDOCK:   -6.39 KCAL/MOL
REMARK 923 INTER-LIGAND FREE ENERGY PREDICTED BY IDOCK:   -5.70 KCAL/MOL
REMARK 924 INTRA-LIGAND FREE ENERGY PREDICTED BY IDOCK:   -0.69 KCAL/MOL
REMARK 927      BINDING AFFINITY PREDICTED BY RF-SCORE:    0.00 PKD
ROOT
HETATM    1  C   UNL     1     -12.905  11.864  63.530  1.00  0.00    -0.435 C  
HETATM    2  C   UNL     1     -11.716  12.801  63.493  1.00  0.00    -0.597 C  
ENDROOT
BRANCH   2   3
HETATM    3  C   UNL     1     -12.057  14.184  64.058  1.00  0.00    -0.382 C  
BRANCH   3   4
HETATM    4  C   UNL     1     -12.690  14.000  65.426  1.00  0.00    -0.471 C  
BRANCH   4   5
HETATM    5  O   UNL     1     -11.882  14.512  66.491  1.00  0.00    -0.383 OA 
BRANCH   5   6
HETATM    6  C   UNL     1     -11.179  13.526  67.151  1.00  0.00    -0.305 A  
HETATM    7  C   UNL     1      -9.792  13.391  67.082  1.00  0.00    -0.237 A  
HETATM    8  C   UNL     1      -9.139  12.365  67.745  1.00  0.00    -0.193 A  
HETATM    9  C   UNL     1      -9.849  11.439  68.503  1.00  0.00    -0.198 A  
HETATM   10  C   UNL     1     -11.902  12.617  67.924  1.00  0.00    -0.388 A  
HETATM   11  C   UNL     1     -11.235  11.576  68.597  1.00  0.00    -0.307 A  
BRANCH   9  12
HETATM   12  O   UNL     1      -9.260  10.386  69.168  1.00  0.00    -0.180 OA 
BRANCH  12  13
HETATM   13  C   UNL     1      -8.741   9.369  68.295  1.00  0.00    -0.124 C  
BRANCH  13  14
HETATM   14  C   UNL     1      -9.841   8.417  67.850  1.00  0.00    -0.208 C  
BRANCH  14  15
HETATM   15  C   UNL     1     -10.362   7.558  69.019  1.00  0.00    -0.212 C  
BRANCH  15  16
HETATM   16  N   UNL     1     -10.879   6.235  68.629  1.00  0.00    -0.303 NA 
HETATM   17  C   UNL     1     -10.446   5.796  67.283  1.00  0.00    -0.266 C  
HETATM   18  C   UNL     1      -8.981   5.338  67.216  1.00  0.00    -0.111 C  
HETATM   19  O   UNL     1      -8.734   4.274  68.142  1.00  0.00    -0.097 OA 
HETATM   20  C   UNL     1      -9.044   4.689  69.478  1.00  0.00    -0.110 C  
HETATM   21  C   UNL     1     -10.498   5.182  69.600  1.00  0.00    -0.191 C  
ENDBRANCH  15  16
ENDBRANCH  14  15
ENDBRANCH  13  14
ENDBRANCH  12  13
ENDBRANCH   9  12
ENDBRANCH   5   6
ENDBRANCH   4   5
ENDBRANCH   3   4
ENDBRANCH   2   3
TORSDOF 9
ENDMDL
MODEL      149
REMARK 921   NORMALIZED FREE ENERGY PREDICTED BY IDOCK:   -3.63 KCAL/MOL
REMARK 922        TOTAL FREE ENERGY PREDICTED BY IDOCK:   -6.37 KCAL/MOL
REMARK 923 INTER-LIGAND FREE ENERGY PREDICTED BY IDOCK:   -5.74 KCAL/MOL
REMARK 924 INTRA-LIGAND FREE ENERGY PREDICTED BY IDOCK:   -0.63 KCAL/MOL
REMARK 927      BINDING AFFINITY PREDICTED BY RF-SCORE:    0.00 PKD
ROOT
HETATM    1  C   UNL     1      -9.348   3.633  68.578  1.00  0.00    -0.226 C  
HETATM    2  C   UNL     1      -9.818   4.347  67.328  1.00  0.00    -0.207 C  
ENDROOT
BRANCH   2   3
HETATM    3  C   UNL     1      -8.742   4.362  66.237  1.00  0.00    -0.113 C  
BRANCH   3   4
HETATM    4  C   UNL     1      -8.263   5.791  66.056  1.00  0.00    -0.114 C  
BRANCH   4   5
HETATM    5  O   UNL     1      -8.674   6.659  67.118  1.00  0.00    -0.111 OA 
BRANCH   5   6
HETATM    6  C   UNL     1      -8.994   7.926  66.679  1.00  0.00    -0.151 A  
HETATM    7  C   UNL     1      -9.721   8.844  67.438  1.00  0.00    -0.227 A  
HETATM    8  C   UNL     1     -10.038  10.095  66.937  1.00  0.00    -0.279 A  
HETATM    9  C   UNL     1      -9.636  10.477  65.660  1.00  0.00    -0.226 A  
HETATM   10  C   UNL     1      -8.568   8.302  65.405  1.00  0.00    -0.176 A  
HETATM   11  C   UNL     1      -8.890   9.575  64.899  1.00  0.00    -0.240 A  
BRANCH   9  12
HETATM   12  O   UNL     1      -9.938  11.698  65.100  1.00  0.00    -0.245 OA 
BRANCH  12  13
HETATM   13  C   UNL     1     -10.653  11.603  63.857  1.00  0.00    -0.391 C  
BRANCH  13  14
HETATM   14  C   UNL     1     -11.960  12.379  63.917  1.00  0.00    -0.572 C  
BRANCH  14  15
HETATM   15  C   UNL     1     -12.405  12.639  65.369  1.00  0.00    -0.436 C  
BRANCH  15  16
HETATM   16  N   UNL     1     -12.598  14.059  65.709  1.00  0.00    -0.503 NA 
HETATM   17  C   UNL     1     -12.126  14.419  67.065  1.00  0.00    -0.342 C  
HETATM   18  C   UNL     1     -10.597  14.509  67.191  1.00  0.00    -0.274 C  
HETATM   19  O   UNL     1     -10.060  15.453  66.257  1.00  0.00    -0.262 OA 
HETATM   20  C   UNL     1     -10.408  15.086  64.916  1.00  0.00    -0.282 C  
HETATM   21  C   UNL     1     -11.932  14.959  64.737  1.00  0.00    -0.361 C  
ENDBRANCH  15  16
ENDBRANCH  14  15
ENDBRANCH  13  14
ENDBRANCH  12  13
ENDBRANCH   9  12
ENDBRANCH   5   6
ENDBRANCH   4   5
ENDBRANCH   3   4
ENDBRANCH   2   3
TORSDOF 9
ENDMDL
MODEL      150
REMARK 921   NORMALIZED FREE ENERGY PREDICTED BY IDOCK:   -3.58 KCAL/MOL
REMARK 922        TOTAL FREE ENERGY PREDICTED BY IDOCK:   -6.30 KCAL/MOL
REMARK 923 INTER-LIGAND FREE ENERGY PREDICTED BY IDOCK:   -5.58 KCAL/MOL
REMARK 924 INTRA-LIGAND FREE ENERGY PREDICTED BY IDOCK:   -0.73 KCAL/MOL
REMARK 927      BINDING AFFINITY PREDICTED BY RF-SCORE:    0.00 PKD
ROOT
HETATM    1  C   UNL     1      -8.421   2.620  65.440  1.00  0.00    -0.101 C  
HETATM    2  C   UNL     1      -8.738   4.023  64.966  1.00  0.00    -0.117 C  
ENDROOT
BRANCH   2   3
HETATM    3  C   UNL     1      -9.967   4.604  65.674  1.00  0.00    -0.228 C  
BRANCH   3   4
HETATM    4  C   UNL     1      -9.532   5.139  67.026  1.00  0.00    -0.137 C  
BRANCH   4   5
HETATM    5  O   UNL     1     -10.630   5.391  67.909  1.00  0.00    -0.176 OA 
BRANCH   5   6
HETATM    6  C   UNL     1     -10.671   6.696  68.352  1.00  0.00    -0.258 A  
HETATM    7  C   UNL     1     -10.507   7.800  67.514  1.00  0.00    -0.338 A  
HETATM    8  C   UNL     1     -10.531   9.090  68.017  1.00  0.00    -0.270 A  
HETATM    9  C   UNL     1     -10.723   9.324  69.376  1.00  0.00    -0.208 A  
HETATM   10  C   UNL     1     -10.884   6.917  69.713  1.00  0.00    -0.295 A  
HETATM   11  C   UNL     1     -10.910   8.229  70.221  1.00  0.00    -0.241 A  
BRANCH   9  12
HETATM   12  O   UNL     1     -10.736  10.581  69.938  1.00  0.00    -0.267 OA 
BRANCH  12  13
HETATM   13  C   UNL     1     -11.786  11.427  69.438  1.00  0.00    -0.338 C  
BRANCH  13  14
HETATM   14  C   UNL     1     -11.222  12.726  68.880  1.00  0.00    -0.332 C  
BRANCH  14  15
HETATM   15  C   UNL     1     -12.105  13.294  67.752  1.00  0.00    -0.237 C  
BRANCH  15  16
HETATM   16  N   UNL     1     -11.363  13.799  66.584  1.00  0.00    -0.318 NA 
HETATM   17  C   UNL     1     -10.283  12.897  66.126  1.00  0.00    -0.278 C  
HETATM   18  C   UNL     1     -10.784  11.652  65.377  1.00  0.00    -0.287 C  
HETATM   19  O   UNL     1     -11.579  12.020  64.245  1.00  0.00    -0.349 OA 
HETATM   20  C   UNL     1     -12.700  12.814  64.654  1.00  0.00    -0.362 C  
HETATM   21  C   UNL     1     -12.257  14.067  65.433  1.00  0.00    -0.439 C  
ENDBRANCH  15  16
ENDBRANCH  14  15
ENDBRANCH  13  14
ENDBRANCH  12  13
ENDBRANCH   9  12
ENDBRANCH   5   6
ENDBRANCH   4   5
ENDBRANCH   3   4
ENDBRANCH   2   3
TORSDOF 9
ENDMDL
MODEL      151
REMARK 921   NORMALIZED FREE ENERGY PREDICTED BY IDOCK:   -3.58 KCAL/MOL
REMARK 922        TOTAL FREE ENERGY PREDICTED BY IDOCK:   -6.30 KCAL/MOL
REMARK 923 INTER-LIGAND FREE ENERGY PREDICTED BY IDOCK:   -5.48 KCAL/MOL
REMARK 924 INTRA-LIGAND FREE ENERGY PREDICTED BY IDOCK:   -0.81 KCAL/MOL
REMARK 927      BINDING AFFINITY PREDICTED BY RF-SCORE:    0.00 PKD
ROOT
HETATM    1  C   UNL     1      -7.095  20.031  68.943  1.00  0.00    -0.264 C  
HETATM    2  C   UNL     1      -8.193  19.475  68.062  1.00  0.00    -0.352 C  
ENDROOT
BRANCH   2   3
HETATM    3  C   UNL     1      -7.779  19.428  66.588  1.00  0.00    -0.280 C  
BRANCH   3   4
HETATM    4  C   UNL     1      -7.319  18.018  66.264  1.00  0.00    -0.282 C  
BRANCH   4   5
HETATM    5  O   UNL     1      -8.328  17.233  65.620  1.00  0.00    -0.475 OA 
BRANCH   5   6
HETATM    6  C   UNL     1      -8.980  16.384  66.489  1.00  0.00    -0.276 A  
HETATM    7  C   UNL     1      -8.458  15.992  67.722  1.00  0.00    -0.168 A  
HETATM    8  C   UNL     1      -9.146  15.116  68.544  1.00  0.00    -0.191 A  
HETATM    9  C   UNL     1     -10.382  14.601  68.166  1.00  0.00    -0.230 A  
HETATM   10  C   UNL     1     -10.228  15.892  66.105  1.00  0.00    -0.340 A  
HETATM   11  C   UNL     1     -10.925  15.003  66.944  1.00  0.00    -0.324 A  
BRANCH   9  12
HETATM   12  O   UNL     1     -11.104  13.711  68.930  1.00  0.00    -0.242 OA 
BRANCH  12  13
HETATM   13  C   UNL     1     -11.262  12.420  68.319  1.00  0.00    -0.263 C  
BRANCH  13  14
HETATM   14  C   UNL     1      -9.954  11.644  68.334  1.00  0.00    -0.201 C  
BRANCH  14  15
HETATM   15  C   UNL     1      -9.452  11.342  66.908  1.00  0.00    -0.179 C  
BRANCH  15  16
HETATM   16  N   UNL     1     -10.297  10.409  66.143  1.00  0.00    -0.228 NA 
HETATM   17  C   UNL     1     -10.618  10.877  64.776  1.00  0.00    -0.246 C  
HETATM   18  C   UNL     1      -9.448  10.765  63.786  1.00  0.00    -0.283 C  
HETATM   19  O   UNL     1      -8.972   9.417  63.705  1.00  0.00    -0.218 OA 
HETATM   20  C   UNL     1      -8.553   8.954  64.994  1.00  0.00    -0.176 C  
HETATM   21  C   UNL     1      -9.682   9.064  66.035  1.00  0.00    -0.269 C  
ENDBRANCH  15  16
ENDBRANCH  14  15
ENDBRANCH  13  14
ENDBRANCH  12  13
ENDBRANCH   9  12
ENDBRANCH   5   6
ENDBRANCH   4   5
ENDBRANCH   3   4
ENDBRANCH   2   3
TORSDOF 9
ENDMDL
MODEL      152
REMARK 921   NORMALIZED FREE ENERGY PREDICTED BY IDOCK:   -3.58 KCAL/MOL
REMARK 922        TOTAL FREE ENERGY PREDICTED BY IDOCK:   -6.29 KCAL/MOL
REMARK 923 INTER-LIGAND FREE ENERGY PREDICTED BY IDOCK:   -5.15 KCAL/MOL
REMARK 924 INTRA-LIGAND FREE ENERGY PREDICTED BY IDOCK:   -1.14 KCAL/MOL
REMARK 927      BINDING AFFINITY PREDICTED BY RF-SCORE:    0.00 PKD
ROOT
HETATM    1  C   UNL     1      -9.416   8.459  66.322  1.00  0.00    -0.292 C  
HETATM    2  C   UNL     1     -10.644   8.964  67.050  1.00  0.00    -0.279 C  
ENDROOT
BRANCH   2   3
HETATM    3  C   UNL     1     -10.627  10.488  67.216  1.00  0.00    -0.317 C  
BRANCH   3   4
HETATM    4  C   UNL     1     -11.717  10.875  68.198  1.00  0.00    -0.154 C  
BRANCH   4   5
HETATM    5  O   UNL     1     -11.203  11.333  69.454  1.00  0.00    -0.244 OA 
BRANCH   5   6
HETATM    6  C   UNL     1     -11.285  10.379  70.445  1.00  0.00    -0.321 A  
HETATM    7  C   UNL     1     -12.455  10.100  71.152  1.00  0.00    -0.490 A  
HETATM    8  C   UNL     1     -12.474   9.148  72.157  1.00  0.00    -0.436 A  
HETATM    9  C   UNL     1     -11.325   8.437  72.491  1.00  0.00    -0.346 A  
HETATM   10  C   UNL     1     -10.130   9.660  70.756  1.00  0.00    -0.293 A  
HETATM   11  C   UNL     1     -10.153   8.692  71.777  1.00  0.00    -0.380 A  
BRANCH   9  12
HETATM   12  O   UNL     1     -11.276   7.494  73.494  1.00  0.00    -0.271 OA 
BRANCH  12  13
HETATM   13  C   UNL     1     -10.101   6.668  73.454  1.00  0.00    -0.228 C  
BRANCH  13  14
HETATM   14  C   UNL     1     -10.471   5.196  73.345  1.00  0.00    -0.275 C  
BRANCH  14  15
HETATM   15  C   UNL     1     -10.281   4.663  71.913  1.00  0.00    -0.184 C  
BRANCH  15  16
HETATM   16  N   UNL     1      -9.127   5.228  71.193  1.00  0.00    -0.142 NA 
HETATM   17  C   UNL     1      -7.931   4.355  71.201  1.00  0.00    -0.081 C  
HETATM   18  C   UNL     1      -8.034   3.145  70.261  1.00  0.00    -0.042 C  
HETATM   19  O   UNL     1      -8.282   3.561  68.914  1.00  0.00    -0.060 OA 
HETATM   20  C   UNL     1      -9.491   4.327  68.839  1.00  0.00    -0.168 C  
HETATM   21  C   UNL     1      -9.454   5.545  69.782  1.00  0.00    -0.149 C  
ENDBRANCH  15  16
ENDBRANCH  14  15
ENDBRANCH  13  14
ENDBRANCH  12  13
ENDBRANCH   9  12
ENDBRANCH   5   6
ENDBRANCH   4   5
ENDBRANCH   3   4
ENDBRANCH   2   3
TORSDOF 9
ENDMDL
MODEL      153
REMARK 921   NORMALIZED FREE ENERGY PREDICTED BY IDOCK:   -3.57 KCAL/MOL
REMARK 922        TOTAL FREE ENERGY PREDICTED BY IDOCK:   -6.28 KCAL/MOL
REMARK 923 INTER-LIGAND FREE ENERGY PREDICTED BY IDOCK:   -5.69 KCAL/MOL
REMARK 924 INTRA-LIGAND FREE ENERGY PREDICTED BY IDOCK:   -0.60 KCAL/MOL
REMARK 927      BINDING AFFINITY PREDICTED BY RF-SCORE:    0.00 PKD
ROOT
HETATM    1  C   UNL     1      -7.182   3.384  71.348  1.00  0.00    -0.033 C  
HETATM    2  C   UNL     1      -8.330   3.187  72.315  1.00  0.00    -0.076 C  
ENDROOT
BRANCH   2   3
HETATM    3  C   UNL     1      -9.678   3.561  71.691  1.00  0.00    -0.234 C  
BRANCH   3   4
HETATM    4  C   UNL     1     -10.575   4.115  72.783  1.00  0.00    -0.148 C  
BRANCH   4   5
HETATM    5  O   UNL     1     -10.159   5.402  73.251  1.00  0.00    -0.165 OA 
BRANCH   5   6
HETATM    6  C   UNL     1     -10.808   6.439  72.614  1.00  0.00    -0.240 A  
HETATM    7  C   UNL     1     -12.078   6.322  72.048  1.00  0.00    -0.321 A  
HETATM    8  C   UNL     1     -12.672   7.389  71.397  1.00  0.00    -0.408 A  
HETATM    9  C   UNL     1     -12.020   8.614  71.289  1.00  0.00    -0.293 A  
HETATM   10  C   UNL     1     -10.150   7.667  72.531  1.00  0.00    -0.284 A  
HETATM   11  C   UNL     1     -10.758   8.750  71.869  1.00  0.00    -0.429 A  
BRANCH   9  12
HETATM   12  O   UNL     1     -12.551   9.704  70.636  1.00  0.00    -0.190 OA 
BRANCH  12  13
HETATM   13  C   UNL     1     -11.560  10.620  70.142  1.00  0.00    -0.330 C  
BRANCH  13  14
HETATM   14  C   UNL     1     -11.999  11.242  68.824  1.00  0.00    -0.350 C  
BRANCH  14  15
HETATM   15  C   UNL     1     -11.406  12.651  68.632  1.00  0.00    -0.291 C  
BRANCH  15  16
HETATM   16  N   UNL     1     -10.575  12.811  67.426  1.00  0.00    -0.228 NA 
HETATM   17  C   UNL     1     -11.326  12.671  66.159  1.00  0.00    -0.330 C  
HETATM   18  C   UNL     1     -12.206  13.883  65.816  1.00  0.00    -0.460 C  
HETATM   19  O   UNL     1     -11.425  15.082  65.752  1.00  0.00    -0.327 OA 
HETATM   20  C   UNL     1     -10.757  15.314  66.998  1.00  0.00    -0.313 C  
HETATM   21  C   UNL     1      -9.875  14.118  67.404  1.00  0.00    -0.239 C  
ENDBRANCH  15  16
ENDBRANCH  14  15
ENDBRANCH  13  14
ENDBRANCH  12  13
ENDBRANCH   9  12
ENDBRANCH   5   6
ENDBRANCH   4   5
ENDBRANCH   3   4
ENDBRANCH   2   3
TORSDOF 9
ENDMDL
MODEL      154
REMARK 921   NORMALIZED FREE ENERGY PREDICTED BY IDOCK:   -3.56 KCAL/MOL
REMARK 922        TOTAL FREE ENERGY PREDICTED BY IDOCK:   -6.27 KCAL/MOL
REMARK 923 INTER-LIGAND FREE ENERGY PREDICTED BY IDOCK:   -5.65 KCAL/MOL
REMARK 924 INTRA-LIGAND FREE ENERGY PREDICTED BY IDOCK:   -0.62 KCAL/MOL
REMARK 927      BINDING AFFINITY PREDICTED BY RF-SCORE:    0.00 PKD
ROOT
HETATM    1  C   UNL     1      -8.272   8.529  62.663  1.00  0.00    -0.185 C  
HETATM    2  C   UNL     1      -9.137   9.745  62.408  1.00  0.00    -0.300 C  
ENDROOT
BRANCH   2   3
HETATM    3  C   UNL     1      -9.552  10.439  63.710  1.00  0.00    -0.366 C  
BRANCH   3   4
HETATM    4  C   UNL     1      -9.236   9.511  64.869  1.00  0.00    -0.223 C  
BRANCH   4   5
HETATM    5  O   UNL     1      -8.668  10.192  65.993  1.00  0.00    -0.135 OA 
BRANCH   5   6
HETATM    6  C   UNL     1      -9.564  11.035  66.616  1.00  0.00    -0.189 A  
HETATM    7  C   UNL     1     -10.710  10.591  67.277  1.00  0.00    -0.333 A  
HETATM    8  C   UNL     1     -11.589  11.484  67.864  1.00  0.00    -0.352 A  
HETATM    9  C   UNL     1     -11.355  12.855  67.813  1.00  0.00    -0.299 A  
HETATM   10  C   UNL     1      -9.306  12.406  66.575  1.00  0.00    -0.233 A  
HETATM   11  C   UNL     1     -10.202  13.311  67.173  1.00  0.00    -0.246 A  
BRANCH   9  12
HETATM   12  O   UNL     1     -12.203  13.794  68.359  1.00  0.00    -0.340 OA 
BRANCH  12  13
HETATM   13  C   UNL     1     -11.878  14.148  69.714  1.00  0.00    -0.322 C  
BRANCH  13  14
HETATM   14  C   UNL     1     -11.642  15.645  69.846  1.00  0.00    -0.354 C  
BRANCH  14  15
HETATM   15  C   UNL     1     -11.378  16.305  68.480  1.00  0.00    -0.330 C  
BRANCH  15  16
HETATM   16  N   UNL     1     -10.577  17.541  68.537  1.00  0.00    -0.345 NA 
HETATM   17  C   UNL     1      -9.214  17.345  69.078  1.00  0.00    -0.093 C  
HETATM   18  C   UNL     1      -8.245  16.661  68.101  1.00  0.00    -0.192 C  
HETATM   19  O   UNL     1      -8.147  17.397  66.877  1.00  0.00    -0.204 OA 
HETATM   20  C   UNL     1      -9.435  17.524  66.262  1.00  0.00    -0.219 C  
HETATM   21  C   UNL     1     -10.456  18.185  67.207  1.00  0.00    -0.393 C  
ENDBRANCH  15  16
ENDBRANCH  14  15
ENDBRANCH  13  14
ENDBRANCH  12  13
ENDBRANCH   9  12
ENDBRANCH   5   6
ENDBRANCH   4   5
ENDBRANCH   3   4
ENDBRANCH   2   3
TORSDOF 9
ENDMDL
MODEL      155
REMARK 921   NORMALIZED FREE ENERGY PREDICTED BY IDOCK:   -3.56 KCAL/MOL
REMARK 922        TOTAL FREE ENERGY PREDICTED BY IDOCK:   -6.26 KCAL/MOL
REMARK 923 INTER-LIGAND FREE ENERGY PREDICTED BY IDOCK:   -5.23 KCAL/MOL
REMARK 924 INTRA-LIGAND FREE ENERGY PREDICTED BY IDOCK:   -1.03 KCAL/MOL
REMARK 927      BINDING AFFINITY PREDICTED BY RF-SCORE:    0.00 PKD
ROOT
HETATM    1  C   UNL     1     -12.659  13.210  65.347  1.00  0.00    -0.512 C  
HETATM    2  C   UNL     1     -12.051  14.375  64.594  1.00  0.00    -0.485 C  
ENDROOT
BRANCH   2   3
HETATM    3  C   UNL     1     -10.520  14.355  64.644  1.00  0.00    -0.286 C  
BRANCH   3   4
HETATM    4  C   UNL     1     -10.063  15.326  65.717  1.00  0.00    -0.356 C  
BRANCH   4   5
HETATM    5  O   UNL     1      -9.079  14.769  66.595  1.00  0.00    -0.254 OA 
BRANCH   5   6
HETATM    6  C   UNL     1      -9.571  13.732  67.360  1.00  0.00    -0.229 A  
HETATM    7  C   UNL     1     -10.633  13.870  68.255  1.00  0.00    -0.263 A  
HETATM    8  C   UNL     1     -11.070  12.800  69.017  1.00  0.00    -0.285 A  
HETATM    9  C   UNL     1     -10.463  11.552  68.911  1.00  0.00    -0.187 A  
HETATM   10  C   UNL     1      -8.967  12.481  67.228  1.00  0.00    -0.192 A  
HETATM   11  C   UNL     1      -9.414  11.396  68.004  1.00  0.00    -0.181 A  
BRANCH   9  12
HETATM   12  O   UNL     1     -10.839  10.457  69.657  1.00  0.00    -0.240 OA 
BRANCH  12  13
HETATM   13  C   UNL     1      -9.734   9.755  70.250  1.00  0.00    -0.223 C  
BRANCH  13  14
HETATM   14  C   UNL     1      -9.955   8.250  70.207  1.00  0.00    -0.188 C  
BRANCH  14  15
HETATM   15  C   UNL     1      -9.793   7.689  68.781  1.00  0.00    -0.164 C  
BRANCH  15  16
HETATM   16  N   UNL     1     -10.856   6.761  68.359  1.00  0.00    -0.234 NA 
HETATM   17  C   UNL     1     -10.787   6.381  66.930  1.00  0.00    -0.357 C  
HETATM   18  C   UNL     1      -9.666   5.382  66.603  1.00  0.00    -0.161 C  
HETATM   19  O   UNL     1      -9.799   4.189  67.384  1.00  0.00    -0.179 OA 
HETATM   20  C   UNL     1      -9.768   4.498  68.783  1.00  0.00    -0.143 C  
HETATM   21  C   UNL     1     -10.859   5.517  69.165  1.00  0.00    -0.112 C  
ENDBRANCH  15  16
ENDBRANCH  14  15
ENDBRANCH  13  14
ENDBRANCH  12  13
ENDBRANCH   9  12
ENDBRANCH   5   6
ENDBRANCH   4   5
ENDBRANCH   3   4
ENDBRANCH   2   3
TORSDOF 9
ENDMDL
MODEL      156
REMARK 921   NORMALIZED FREE ENERGY PREDICTED BY IDOCK:   -3.54 KCAL/MOL
REMARK 922        TOTAL FREE ENERGY PREDICTED BY IDOCK:   -6.25 KCAL/MOL
REMARK 923 INTER-LIGAND FREE ENERGY PREDICTED BY IDOCK:   -5.60 KCAL/MOL
REMARK 924 INTRA-LIGAND FREE ENERGY PREDICTED BY IDOCK:   -0.65 KCAL/MOL
REMARK 927      BINDING AFFINITY PREDICTED BY RF-SCORE:    0.00 PKD
ROOT
HETATM    1  C   UNL     1      -6.074  18.942  69.617  1.00  0.00    -0.285 C  
HETATM    2  C   UNL     1      -6.831  18.154  68.570  1.00  0.00    -0.240 C  
ENDROOT
BRANCH   2   3
HETATM    3  C   UNL     1      -8.228  18.728  68.316  1.00  0.00    -0.355 C  
BRANCH   3   4
HETATM    4  C   UNL     1      -8.990  17.763  67.427  1.00  0.00    -0.240 C  
BRANCH   4   5
HETATM    5  O   UNL     1      -9.343  16.546  68.093  1.00  0.00    -0.211 OA 
BRANCH   5   6
HETATM    6  C   UNL     1     -10.125  15.718  67.317  1.00  0.00    -0.247 A  
HETATM    7  C   UNL     1     -10.930  14.704  67.838  1.00  0.00    -0.283 A  
HETATM    8  C   UNL     1     -11.676  13.885  67.009  1.00  0.00    -0.426 A  
HETATM    9  C   UNL     1     -11.649  14.050  65.627  1.00  0.00    -0.331 A  
HETATM   10  C   UNL     1     -10.103  15.909  65.934  1.00  0.00    -0.376 A  
HETATM   11  C   UNL     1     -10.865  15.075  65.094  1.00  0.00    -0.422 A  
BRANCH   9  12
HETATM   12  O   UNL     1     -12.352  13.255  64.750  1.00  0.00    -0.390 OA 
BRANCH  12  13
HETATM   13  C   UNL     1     -11.751  11.968  64.527  1.00  0.00    -0.305 C  
BRANCH  13  14
HETATM   14  C   UNL     1     -10.791  12.011  63.348  1.00  0.00    -0.471 C  
BRANCH  14  15
HETATM   15  C   UNL     1      -9.434  11.368  63.693  1.00  0.00    -0.196 C  
BRANCH  15  16
HETATM   16  N   UNL     1      -9.497   9.933  64.020  1.00  0.00    -0.241 NA 
HETATM   17  C   UNL     1      -8.774   9.068  63.061  1.00  0.00    -0.116 C  
HETATM   18  C   UNL     1      -7.245   9.121  63.202  1.00  0.00    -0.091 C  
HETATM   19  O   UNL     1      -6.840   8.765  64.529  1.00  0.00    -0.076 OA 
HETATM   20  C   UNL     1      -7.438   9.644  65.489  1.00  0.00    -0.106 C  
HETATM   21  C   UNL     1      -8.974   9.650  65.378  1.00  0.00    -0.190 C  
ENDBRANCH  15  16
ENDBRANCH  14  15
ENDBRANCH  13  14
ENDBRANCH  12  13
ENDBRANCH   9  12
ENDBRANCH   5   6
ENDBRANCH   4   5
ENDBRANCH   3   4
ENDBRANCH   2   3
TORSDOF 9
ENDMDL
MODEL      157
REMARK 921   NORMALIZED FREE ENERGY PREDICTED BY IDOCK:   -3.53 KCAL/MOL
REMARK 922        TOTAL FREE ENERGY PREDICTED BY IDOCK:   -6.23 KCAL/MOL
REMARK 923 INTER-LIGAND FREE ENERGY PREDICTED BY IDOCK:   -5.38 KCAL/MOL
REMARK 924 INTRA-LIGAND FREE ENERGY PREDICTED BY IDOCK:   -0.85 KCAL/MOL
REMARK 927      BINDING AFFINITY PREDICTED BY RF-SCORE:    0.00 PKD
ROOT
HETATM    1  C   UNL     1      -8.459   2.530  66.293  1.00  0.00    -0.099 C  
HETATM    2  C   UNL     1      -9.364   3.346  65.395  1.00  0.00    -0.153 C  
ENDROOT
BRANCH   2   3
HETATM    3  C   UNL     1      -9.194   4.852  65.624  1.00  0.00    -0.159 C  
BRANCH   3   4
HETATM    4  C   UNL     1     -10.453   5.381  66.287  1.00  0.00    -0.221 C  
BRANCH   4   5
HETATM    5  O   UNL     1     -10.509   5.099  67.689  1.00  0.00    -0.151 OA 
BRANCH   5   6
HETATM    6  C   UNL     1     -10.544   6.239  68.463  1.00  0.00    -0.262 A  
HETATM    7  C   UNL     1     -10.064   7.477  68.034  1.00  0.00    -0.221 A  
HETATM    8  C   UNL     1     -10.100   8.585  68.863  1.00  0.00    -0.213 A  
HETATM    9  C   UNL     1     -10.619   8.497  70.152  1.00  0.00    -0.232 A  
HETATM   10  C   UNL     1     -11.085   6.141  69.745  1.00  0.00    -0.486 A  
HETATM   11  C   UNL     1     -11.122   7.269  70.585  1.00  0.00    -0.287 A  
BRANCH   9  12
HETATM   12  O   UNL     1     -10.663   9.558  71.029  1.00  0.00    -0.300 OA 
BRANCH  12  13
HETATM   13  C   UNL     1     -11.994   9.915  71.438  1.00  0.00    -0.404 C  
BRANCH  13  14
HETATM   14  C   UNL     1     -12.693  10.738  70.366  1.00  0.00    -0.346 C  
BRANCH  14  15
HETATM   15  C   UNL     1     -12.006  12.099  70.151  1.00  0.00    -0.314 C  
BRANCH  15  16
HETATM   16  N   UNL     1     -12.027  12.588  68.761  1.00  0.00    -0.291 NA 
HETATM   17  C   UNL     1     -12.007  14.063  68.645  1.00  0.00    -0.354 C  
HETATM   18  C   UNL     1     -10.638  14.695  68.936  1.00  0.00    -0.253 C  
HETATM   19  O   UNL     1      -9.631  14.158  68.071  1.00  0.00    -0.205 OA 
HETATM   20  C   UNL     1      -9.543  12.736  68.225  1.00  0.00    -0.211 C  
HETATM   21  C   UNL     1     -10.897  12.049  67.966  1.00  0.00    -0.216 C  
ENDBRANCH  15  16
ENDBRANCH  14  15
ENDBRANCH  13  14
ENDBRANCH  12  13
ENDBRANCH   9  12
ENDBRANCH   5   6
ENDBRANCH   4   5
ENDBRANCH   3   4
ENDBRANCH   2   3
TORSDOF 9
ENDMDL
MODEL      158
REMARK 921   NORMALIZED FREE ENERGY PREDICTED BY IDOCK:   -3.52 KCAL/MOL
REMARK 922        TOTAL FREE ENERGY PREDICTED BY IDOCK:   -6.22 KCAL/MOL
REMARK 923 INTER-LIGAND FREE ENERGY PREDICTED BY IDOCK:   -5.57 KCAL/MOL
REMARK 924 INTRA-LIGAND FREE ENERGY PREDICTED BY IDOCK:   -0.65 KCAL/MOL
REMARK 927      BINDING AFFINITY PREDICTED BY RF-SCORE:    0.00 PKD
ROOT
HETATM    1  C   UNL     1      -7.030  19.733  68.623  1.00  0.00    -0.363 C  
HETATM    2  C   UNL     1      -8.305  19.467  67.851  1.00  0.00    -0.350 C  
ENDROOT
BRANCH   2   3
HETATM    3  C   UNL     1      -8.031  19.178  66.372  1.00  0.00    -0.306 C  
BRANCH   3   4
HETATM    4  C   UNL     1      -7.811  17.685  66.207  1.00  0.00    -0.273 C  
BRANCH   4   5
HETATM    5  O   UNL     1      -8.966  17.000  65.711  1.00  0.00    -0.526 OA 
BRANCH   5   6
HETATM    6  C   UNL     1      -9.372  15.972  66.535  1.00  0.00    -0.268 A  
HETATM    7  C   UNL     1      -8.683  15.586  67.685  1.00  0.00    -0.183 A  
HETATM    8  C   UNL     1      -9.122  14.528  68.463  1.00  0.00    -0.190 A  
HETATM    9  C   UNL     1     -10.268  13.818  68.121  1.00  0.00    -0.253 A  
HETATM   10  C   UNL     1     -10.535  15.281  66.191  1.00  0.00    -0.318 A  
HETATM   11  C   UNL     1     -10.979  14.207  66.984  1.00  0.00    -0.303 A  
BRANCH   9  12
HETATM   12  O   UNL     1     -10.743  12.744  68.842  1.00  0.00    -0.230 OA 
BRANCH  12  13
HETATM   13  C   UNL     1     -10.296  11.472  68.346  1.00  0.00    -0.202 C  
BRANCH  13  14
HETATM   14  C   UNL     1     -11.288  10.371  68.691  1.00  0.00    -0.277 C  
BRANCH  14  15
HETATM   15  C   UNL     1     -10.759   9.455  69.811  1.00  0.00    -0.234 C  
BRANCH  15  16
HETATM   16  N   UNL     1      -9.852   8.387  69.356  1.00  0.00    -0.181 NA 
HETATM   17  C   UNL     1      -8.932   7.896  70.407  1.00  0.00    -0.147 C  
HETATM   18  C   UNL     1      -9.604   6.996  71.455  1.00  0.00    -0.158 C  
HETATM   19  O   UNL     1     -10.230   5.867  70.836  1.00  0.00    -0.195 OA 
HETATM   20  C   UNL     1     -11.207   6.296  69.879  1.00  0.00    -0.429 C  
HETATM   21  C   UNL     1     -10.592   7.223  68.813  1.00  0.00    -0.181 C  
ENDBRANCH  15  16
ENDBRANCH  14  15
ENDBRANCH  13  14
ENDBRANCH  12  13
ENDBRANCH   9  12
ENDBRANCH   5   6
ENDBRANCH   4   5
ENDBRANCH   3   4
ENDBRANCH   2   3
TORSDOF 9
ENDMDL
MODEL      159
REMARK 921   NORMALIZED FREE ENERGY PREDICTED BY IDOCK:   -3.52 KCAL/MOL
REMARK 922        TOTAL FREE ENERGY PREDICTED BY IDOCK:   -6.21 KCAL/MOL
REMARK 923 INTER-LIGAND FREE ENERGY PREDICTED BY IDOCK:   -5.45 KCAL/MOL
REMARK 924 INTRA-LIGAND FREE ENERGY PREDICTED BY IDOCK:   -0.76 KCAL/MOL
REMARK 927      BINDING AFFINITY PREDICTED BY RF-SCORE:    0.00 PKD
ROOT
HETATM    1  C   UNL     1      -9.064   3.722  65.487  1.00  0.00    -0.146 C  
HETATM    2  C   UNL     1      -9.255   5.224  65.475  1.00  0.00    -0.122 C  
ENDROOT
BRANCH   2   3
HETATM    3  C   UNL     1      -9.690   5.758  66.844  1.00  0.00    -0.163 C  
BRANCH   3   4
HETATM    4  C   UNL     1      -8.664   6.775  67.310  1.00  0.00    -0.119 C  
BRANCH   4   5
HETATM    5  O   UNL     1      -9.117   7.562  68.416  1.00  0.00    -0.134 OA 
BRANCH   5   6
HETATM    6  C   UNL     1      -9.809   8.688  68.023  1.00  0.00    -0.169 A  
HETATM    7  C   UNL     1      -9.717   9.244  66.746  1.00  0.00    -0.260 A  
HETATM    8  C   UNL     1     -10.414  10.393  66.413  1.00  0.00    -0.246 A  
HETATM    9  C   UNL     1     -11.233  11.027  67.343  1.00  0.00    -0.285 A  
HETATM   10  C   UNL     1     -10.641   9.302  68.960  1.00  0.00    -0.225 A  
HETATM   11  C   UNL     1     -11.350  10.469  68.617  1.00  0.00    -0.315 A  
BRANCH   9  12
HETATM   12  O   UNL     1     -11.935  12.182  67.078  1.00  0.00    -0.593 OA 
BRANCH  12  13
HETATM   13  C   UNL     1     -11.836  12.617  65.712  1.00  0.00    -0.444 C  
BRANCH  13  14
HETATM   14  C   UNL     1     -11.877  14.136  65.618  1.00  0.00    -0.377 C  
BRANCH  14  15
HETATM   15  C   UNL     1     -10.823  14.793  66.530  1.00  0.00    -0.319 C  
BRANCH  15  16
HETATM   16  N   UNL     1     -11.355  15.815  67.448  1.00  0.00    -0.182 NA 
HETATM   17  C   UNL     1     -12.034  15.254  68.638  1.00  0.00    -0.235 C  
HETATM   18  C   UNL     1     -11.076  14.681  69.693  1.00  0.00    -0.253 C  
HETATM   19  O   UNL     1     -10.141  15.674  70.130  1.00  0.00    -0.294 OA 
HETATM   20  C   UNL     1      -9.385  16.175  69.020  1.00  0.00    -0.248 C  
HETATM   21  C   UNL     1     -10.298  16.743  67.918  1.00  0.00    -0.319 C  
ENDBRANCH  15  16
ENDBRANCH  14  15
ENDBRANCH  13  14
ENDBRANCH  12  13
ENDBRANCH   9  12
ENDBRANCH   5   6
ENDBRANCH   4   5
ENDBRANCH   3   4
ENDBRANCH   2   3
TORSDOF 9
ENDMDL
MODEL      160
REMARK 921   NORMALIZED FREE ENERGY PREDICTED BY IDOCK:   -3.52 KCAL/MOL
REMARK 922        TOTAL FREE ENERGY PREDICTED BY IDOCK:   -6.21 KCAL/MOL
REMARK 923 INTER-LIGAND FREE ENERGY PREDICTED BY IDOCK:   -5.92 KCAL/MOL
REMARK 924 INTRA-LIGAND FREE ENERGY PREDICTED BY IDOCK:   -0.29 KCAL/MOL
REMARK 927      BINDING AFFINITY PREDICTED BY RF-SCORE:    0.00 PKD
ROOT
HETATM    1  C   UNL     1      -8.091  16.890  66.345  1.00  0.00    -0.350 C  
HETATM    2  C   UNL     1      -9.573  16.593  66.250  1.00  0.00    -0.325 C  
ENDROOT
BRANCH   2   3
HETATM    3  C   UNL     1     -10.302  16.878  67.567  1.00  0.00    -0.318 C  
BRANCH   3   4
HETATM    4  C   UNL     1     -11.481  15.928  67.677  1.00  0.00    -0.070 C  
BRANCH   4   5
HETATM    5  O   UNL     1     -11.732  15.499  69.020  1.00  0.00    -0.346 OA 
BRANCH   5   6
HETATM    6  C   UNL     1     -11.650  14.131  69.168  1.00  0.00    -0.307 A  
HETATM    7  C   UNL     1     -12.169  13.441  70.264  1.00  0.00    -0.405 A  
HETATM    8  C   UNL     1     -12.035  12.068  70.375  1.00  0.00    -0.379 A  
HETATM    9  C   UNL     1     -11.379  11.332  69.392  1.00  0.00    -0.292 A  
HETATM   10  C   UNL     1     -11.007  13.404  68.165  1.00  0.00    -0.277 A  
HETATM   11  C   UNL     1     -10.873  12.008  68.280  1.00  0.00    -0.263 A  
BRANCH   9  12
HETATM   12  O   UNL     1     -11.196   9.968  69.456  1.00  0.00    -0.234 OA 
BRANCH  12  13
HETATM   13  C   UNL     1      -9.835   9.557  69.244  1.00  0.00    -0.181 C  
BRANCH  13  14
HETATM   14  C   UNL     1      -9.618   8.124  69.708  1.00  0.00    -0.171 C  
BRANCH  14  15
HETATM   15  C   UNL     1      -9.286   8.054  71.210  1.00  0.00    -0.150 C  
BRANCH  15  16
HETATM   16  N   UNL     1     -10.042   7.036  71.961  1.00  0.00    -0.185 NA 
HETATM   17  C   UNL     1     -10.946   7.600  72.989  1.00  0.00    -0.400 C  
HETATM   18  C   UNL     1     -12.217   8.246  72.416  1.00  0.00    -0.352 C  
HETATM   19  O   UNL     1     -12.956   7.309  71.625  1.00  0.00    -0.357 OA 
HETATM   20  C   UNL     1     -12.149   6.810  70.551  1.00  0.00    -0.274 C  
HETATM   21  C   UNL     1     -10.846   6.170  71.067  1.00  0.00    -0.279 C  
ENDBRANCH  15  16
ENDBRANCH  14  15
ENDBRANCH  13  14
ENDBRANCH  12  13
ENDBRANCH   9  12
ENDBRANCH   5   6
ENDBRANCH   4   5
ENDBRANCH   3   4
ENDBRANCH   2   3
TORSDOF 9
ENDMDL
MODEL      161
REMARK 921   NORMALIZED FREE ENERGY PREDICTED BY IDOCK:   -3.51 KCAL/MOL
REMARK 922        TOTAL FREE ENERGY PREDICTED BY IDOCK:   -6.20 KCAL/MOL
REMARK 923 INTER-LIGAND FREE ENERGY PREDICTED BY IDOCK:   -5.60 KCAL/MOL
REMARK 924 INTRA-LIGAND FREE ENERGY PREDICTED BY IDOCK:   -0.60 KCAL/MOL
REMARK 927      BINDING AFFINITY PREDICTED BY RF-SCORE:    0.00 PKD
ROOT
HETATM    1  C   UNL     1     -11.953  14.449  68.619  1.00  0.00    -0.332 C  
HETATM    2  C   UNL     1     -12.160  14.193  67.142  1.00  0.00    -0.432 C  
ENDROOT
BRANCH   2   3
HETATM    3  C   UNL     1     -11.304  13.028  66.635  1.00  0.00    -0.366 C  
BRANCH   3   4
HETATM    4  C   UNL     1     -10.922  12.162  67.822  1.00  0.00    -0.233 C  
BRANCH   4   5
HETATM    5  O   UNL     1     -11.611  10.908  67.845  1.00  0.00    -0.497 OA 
BRANCH   5   6
HETATM    6  C   UNL     1     -11.509  10.265  69.060  1.00  0.00    -0.137 A  
HETATM    7  C   UNL     1     -10.663   9.179  69.290  1.00  0.00    -0.199 A  
HETATM    8  C   UNL     1     -10.620   8.554  70.525  1.00  0.00    -0.238 A  
HETATM    9  C   UNL     1     -11.418   8.992  71.576  1.00  0.00    -0.337 A  
HETATM   10  C   UNL     1     -12.301  10.728  70.112  1.00  0.00    -0.401 A  
HETATM   11  C   UNL     1     -12.254  10.091  71.366  1.00  0.00    -0.510 A  
BRANCH   9  12
HETATM   12  O   UNL     1     -11.435   8.399  72.819  1.00  0.00    -0.350 OA 
BRANCH  12  13
HETATM   13  C   UNL     1     -10.222   7.700  73.142  1.00  0.00    -0.342 C  
BRANCH  13  14
HETATM   14  C   UNL     1     -10.515   6.279  73.603  1.00  0.00    -0.299 C  
BRANCH  14  15
HETATM   15  C   UNL     1     -10.606   5.301  72.416  1.00  0.00    -0.225 C  
BRANCH  15  16
HETATM   16  N   UNL     1      -9.442   4.412  72.260  1.00  0.00    -0.131 NA 
HETATM   17  C   UNL     1      -8.671   4.210  73.507  1.00  0.00    -0.091 C  
HETATM   18  C   UNL     1      -9.355   3.279  74.520  1.00  0.00    -0.093 C  
HETATM   19  O   UNL     1      -9.623   1.998  73.939  1.00  0.00    -0.074 OA 
HETATM   20  C   UNL     1     -10.454   2.135  72.781  1.00  0.00    -0.153 C  
HETATM   21  C   UNL     1      -9.828   3.079  71.737  1.00  0.00    -0.160 C  
ENDBRANCH  15  16
ENDBRANCH  14  15
ENDBRANCH  13  14
ENDBRANCH  12  13
ENDBRANCH   9  12
ENDBRANCH   5   6
ENDBRANCH   4   5
ENDBRANCH   3   4
ENDBRANCH   2   3
TORSDOF 9
ENDMDL
MODEL      162
REMARK 921   NORMALIZED FREE ENERGY PREDICTED BY IDOCK:   -3.50 KCAL/MOL
REMARK 922        TOTAL FREE ENERGY PREDICTED BY IDOCK:   -6.18 KCAL/MOL
REMARK 923 INTER-LIGAND FREE ENERGY PREDICTED BY IDOCK:   -5.43 KCAL/MOL
REMARK 924 INTRA-LIGAND FREE ENERGY PREDICTED BY IDOCK:   -0.75 KCAL/MOL
REMARK 927      BINDING AFFINITY PREDICTED BY RF-SCORE:    0.00 PKD
ROOT
HETATM    1  C   UNL     1     -10.181  16.868  65.884  1.00  0.00    -0.330 C  
HETATM    2  C   UNL     1      -9.965  17.151  67.356  1.00  0.00    -0.280 C  
ENDROOT
BRANCH   2   3
HETATM    3  C   UNL     1     -10.416  15.983  68.238  1.00  0.00    -0.269 C  
BRANCH   3   4
HETATM    4  C   UNL     1     -10.915  14.867  67.338  1.00  0.00    -0.314 C  
BRANCH   4   5
HETATM    5  O   UNL     1     -12.119  14.258  67.816  1.00  0.00    -0.363 OA 
BRANCH   5   6
HETATM    6  C   UNL     1     -11.898  13.034  68.412  1.00  0.00    -0.334 A  
HETATM    7  C   UNL     1     -12.102  12.791  69.771  1.00  0.00    -0.305 A  
HETATM    8  C   UNL     1     -11.840  11.548  70.323  1.00  0.00    -0.431 A  
HETATM    9  C   UNL     1     -11.367  10.502  69.536  1.00  0.00    -0.278 A  
HETATM   10  C   UNL     1     -11.444  11.989  67.607  1.00  0.00    -0.392 A  
HETATM   11  C   UNL     1     -11.179  10.727  68.171  1.00  0.00    -0.365 A  
BRANCH   9  12
HETATM   12  O   UNL     1     -11.068   9.252  70.030  1.00  0.00    -0.235 OA 
BRANCH  12  13
HETATM   13  C   UNL     1     -10.266   9.277  71.222  1.00  0.00    -0.313 C  
BRANCH  13  14
HETATM   14  C   UNL     1      -8.850   8.798  70.939  1.00  0.00    -0.243 C  
BRANCH  14  15
HETATM   15  C   UNL     1      -8.691   7.291  71.214  1.00  0.00    -0.127 C  
BRANCH  15  16
HETATM   16  N   UNL     1      -8.081   6.525  70.112  1.00  0.00    -0.119 NA 
HETATM   17  C   UNL     1      -8.294   5.064  70.210  1.00  0.00    -0.092 C  
HETATM   18  C   UNL     1      -9.718   4.614  69.849  1.00  0.00    -0.209 C  
HETATM   19  O   UNL     1     -10.070   5.037  68.527  1.00  0.00    -0.162 OA 
HETATM   20  C   UNL     1      -9.977   6.462  68.414  1.00  0.00    -0.141 C  
HETATM   21  C   UNL     1      -8.572   6.973  68.787  1.00  0.00    -0.125 C  
ENDBRANCH  15  16
ENDBRANCH  14  15
ENDBRANCH  13  14
ENDBRANCH  12  13
ENDBRANCH   9  12
ENDBRANCH   5   6
ENDBRANCH   4   5
ENDBRANCH   3   4
ENDBRANCH   2   3
TORSDOF 9
ENDMDL
MODEL      163
REMARK 921   NORMALIZED FREE ENERGY PREDICTED BY IDOCK:   -3.48 KCAL/MOL
REMARK 922        TOTAL FREE ENERGY PREDICTED BY IDOCK:   -6.14 KCAL/MOL
REMARK 923 INTER-LIGAND FREE ENERGY PREDICTED BY IDOCK:   -4.96 KCAL/MOL
REMARK 924 INTRA-LIGAND FREE ENERGY PREDICTED BY IDOCK:   -1.18 KCAL/MOL
REMARK 927      BINDING AFFINITY PREDICTED BY RF-SCORE:    0.00 PKD
ROOT
HETATM    1  C   UNL     1      -8.772  12.315  67.013  1.00  0.00    -0.199 C  
HETATM    2  C   UNL     1      -9.853  11.612  66.219  1.00  0.00    -0.245 C  
ENDROOT
BRANCH   2   3
HETATM    3  C   UNL     1     -11.046  11.218  67.096  1.00  0.00    -0.364 C  
BRANCH   3   4
HETATM    4  C   UNL     1     -10.867   9.774  67.528  1.00  0.00    -0.220 C  
BRANCH   4   5
HETATM    5  O   UNL     1     -10.471   8.913  66.456  1.00  0.00    -0.238 OA 
BRANCH   5   6
HETATM    6  C   UNL     1     -10.058   7.672  66.891  1.00  0.00    -0.278 A  
HETATM    7  C   UNL     1     -10.855   6.529  66.830  1.00  0.00    -0.427 A  
HETATM    8  C   UNL     1     -10.399   5.311  67.307  1.00  0.00    -0.254 A  
HETATM    9  C   UNL     1      -9.127   5.191  67.859  1.00  0.00    -0.112 A  
HETATM   10  C   UNL     1      -8.773   7.562  67.425  1.00  0.00    -0.124 A  
HETATM   11  C   UNL     1      -8.311   6.323  67.907  1.00  0.00    -0.118 A  
BRANCH   9  12
HETATM   12  O   UNL     1      -8.625   4.014  68.368  1.00  0.00    -0.090 OA 
BRANCH  12  13
HETATM   13  C   UNL     1      -8.448   4.029  69.794  1.00  0.00    -0.060 C  
BRANCH  13  14
HETATM   14  C   UNL     1      -9.785   3.925  70.513  1.00  0.00    -0.247 C  
BRANCH  14  15
HETATM   15  C   UNL     1      -9.945   5.019  71.585  1.00  0.00    -0.187 C  
BRANCH  15  16
HETATM   16  N   UNL     1     -10.059   6.389  71.054  1.00  0.00    -0.181 NA 
HETATM   17  C   UNL     1     -11.410   6.726  70.552  1.00  0.00    -0.343 C  
HETATM   18  C   UNL     1     -12.445   6.976  71.660  1.00  0.00    -0.374 C  
HETATM   19  O   UNL     1     -12.013   8.023  72.538  1.00  0.00    -0.358 OA 
HETATM   20  C   UNL     1     -10.750   7.693  73.129  1.00  0.00    -0.387 C  
HETATM   21  C   UNL     1      -9.677   7.408  72.062  1.00  0.00    -0.154 C  
ENDBRANCH  15  16
ENDBRANCH  14  15
ENDBRANCH  13  14
ENDBRANCH  12  13
ENDBRANCH   9  12
ENDBRANCH   5   6
ENDBRANCH   4   5
ENDBRANCH   3   4
ENDBRANCH   2   3
TORSDOF 9
ENDMDL
MODEL      164
REMARK 921   NORMALIZED FREE ENERGY PREDICTED BY IDOCK:   -3.47 KCAL/MOL
REMARK 922        TOTAL FREE ENERGY PREDICTED BY IDOCK:   -6.14 KCAL/MOL
REMARK 923 INTER-LIGAND FREE ENERGY PREDICTED BY IDOCK:   -5.53 KCAL/MOL
REMARK 924 INTRA-LIGAND FREE ENERGY PREDICTED BY IDOCK:   -0.61 KCAL/MOL
REMARK 927      BINDING AFFINITY PREDICTED BY RF-SCORE:    0.00 PKD
ROOT
HETATM    1  C   UNL     1      -8.000  19.134  68.638  1.00  0.00    -0.398 C  
HETATM    2  C   UNL     1      -9.430  19.615  68.509  1.00  0.00    -0.436 C  
ENDROOT
BRANCH   2   3
HETATM    3  C   UNL     1      -9.864  19.741  67.045  1.00  0.00    -0.515 C  
BRANCH   3   4
HETATM    4  C   UNL     1      -9.674  18.394  66.371  1.00  0.00    -0.339 C  
BRANCH   4   5
HETATM    5  O   UNL     1     -10.723  17.466  66.667  1.00  0.00    -0.225 OA 
BRANCH   5   6
HETATM    6  C   UNL     1     -10.252  16.246  67.101  1.00  0.00    -0.276 A  
HETATM    7  C   UNL     1      -8.932  15.824  66.931  1.00  0.00    -0.266 A  
HETATM    8  C   UNL     1      -8.518  14.576  67.365  1.00  0.00    -0.220 A  
HETATM    9  C   UNL     1      -9.408  13.704  67.986  1.00  0.00    -0.208 A  
HETATM   10  C   UNL     1     -11.149  15.390  67.740  1.00  0.00    -0.320 A  
HETATM   11  C   UNL     1     -10.725  14.122  68.181  1.00  0.00    -0.251 A  
BRANCH   9  12
HETATM   12  O   UNL     1      -9.061  12.443  68.419  1.00  0.00    -0.195 OA 
BRANCH  12  13
HETATM   13  C   UNL     1      -9.079  11.450  67.381  1.00  0.00    -0.160 C  
BRANCH  13  14
HETATM   14  C   UNL     1     -10.476  10.878  67.195  1.00  0.00    -0.281 C  
BRANCH  14  15
HETATM   15  C   UNL     1     -10.576   9.431  67.712  1.00  0.00    -0.258 C  
BRANCH  15  16
HETATM   16  N   UNL     1     -10.388   8.394  66.683  1.00  0.00    -0.286 NA 
HETATM   17  C   UNL     1      -8.994   8.277  66.198  1.00  0.00    -0.181 C  
HETATM   18  C   UNL     1      -8.044   7.587  67.189  1.00  0.00    -0.118 C  
HETATM   19  O   UNL     1      -8.518   6.279  67.528  1.00  0.00    -0.109 OA 
HETATM   20  C   UNL     1      -9.830   6.352  68.098  1.00  0.00    -0.127 C  
HETATM   21  C   UNL     1     -10.823   7.057  67.155  1.00  0.00    -0.357 C  
ENDBRANCH  15  16
ENDBRANCH  14  15
ENDBRANCH  13  14
ENDBRANCH  12  13
ENDBRANCH   9  12
ENDBRANCH   5   6
ENDBRANCH   4   5
ENDBRANCH   3   4
ENDBRANCH   2   3
TORSDOF 9
ENDMDL
MODEL      165
REMARK 921   NORMALIZED FREE ENERGY PREDICTED BY IDOCK:   -3.45 KCAL/MOL
REMARK 922        TOTAL FREE ENERGY PREDICTED BY IDOCK:   -6.11 KCAL/MOL
REMARK 923 INTER-LIGAND FREE ENERGY PREDICTED BY IDOCK:   -5.27 KCAL/MOL
REMARK 924 INTRA-LIGAND FREE ENERGY PREDICTED BY IDOCK:   -0.83 KCAL/MOL
REMARK 927      BINDING AFFINITY PREDICTED BY RF-SCORE:    0.00 PKD
ROOT
HETATM    1  C   UNL     1      -8.908   9.429  62.771  1.00  0.00    -0.224 C  
HETATM    2  C   UNL     1      -9.158  10.868  62.373  1.00  0.00    -0.336 C  
ENDROOT
BRANCH   2   3
HETATM    3  C   UNL     1      -9.603  11.724  63.563  1.00  0.00    -0.241 C  
BRANCH   3   4
HETATM    4  C   UNL     1     -10.422  10.855  64.499  1.00  0.00    -0.323 C  
BRANCH   4   5
HETATM    5  O   UNL     1      -9.717  10.497  65.693  1.00  0.00    -0.204 OA 
BRANCH   5   6
HETATM    6  C   UNL     1      -9.476  11.578  66.515  1.00  0.00    -0.204 A  
HETATM    7  C   UNL     1     -10.478  12.425  66.989  1.00  0.00    -0.238 A  
HETATM    8  C   UNL     1     -10.176  13.512  67.792  1.00  0.00    -0.242 A  
HETATM    9  C   UNL     1      -8.861  13.790  68.153  1.00  0.00    -0.185 A  
HETATM   10  C   UNL     1      -8.155  11.833  66.885  1.00  0.00    -0.160 A  
HETATM   11  C   UNL     1      -7.851  12.938  67.702  1.00  0.00    -0.168 A  
BRANCH   9  12
HETATM   12  O   UNL     1      -8.496  14.867  68.930  1.00  0.00    -0.164 OA 
BRANCH  12  13
HETATM   13  C   UNL     1      -7.077  15.090  68.979  1.00  0.00    -0.133 C  
BRANCH  13  14
HETATM   14  C   UNL     1      -6.759  16.576  69.059  1.00  0.00    -0.200 C  
BRANCH  14  15
HETATM   15  C   UNL     1      -7.978  17.442  68.688  1.00  0.00    -0.271 C  
BRANCH  15  16
HETATM   16  N   UNL     1      -7.880  18.116  67.382  1.00  0.00    -0.216 NA 
HETATM   17  C   UNL     1      -7.858  17.188  66.229  1.00  0.00    -0.316 C  
HETATM   18  C   UNL     1      -9.223  16.565  65.902  1.00  0.00    -0.174 C  
HETATM   19  O   UNL     1     -10.202  17.579  65.649  1.00  0.00    -0.595 OA 
HETATM   20  C   UNL     1     -10.333  18.445  66.782  1.00  0.00    -0.394 C  
HETATM   21  C   UNL     1      -8.985  19.082  67.172  1.00  0.00    -0.287 C  
ENDBRANCH  15  16
ENDBRANCH  14  15
ENDBRANCH  13  14
ENDBRANCH  12  13
ENDBRANCH   9  12
ENDBRANCH   5   6
ENDBRANCH   4   5
ENDBRANCH   3   4
ENDBRANCH   2   3
TORSDOF 9
ENDMDL
MODEL      166
REMARK 921   NORMALIZED FREE ENERGY PREDICTED BY IDOCK:   -3.44 KCAL/MOL
REMARK 922        TOTAL FREE ENERGY PREDICTED BY IDOCK:   -6.09 KCAL/MOL
REMARK 923 INTER-LIGAND FREE ENERGY PREDICTED BY IDOCK:   -5.23 KCAL/MOL
REMARK 924 INTRA-LIGAND FREE ENERGY PREDICTED BY IDOCK:   -0.86 KCAL/MOL
REMARK 927      BINDING AFFINITY PREDICTED BY RF-SCORE:    0.00 PKD
ROOT
HETATM    1  C   UNL     1      -9.573  14.289  66.318  1.00  0.00    -0.310 C  
HETATM    2  C   UNL     1     -10.950  14.839  66.010  1.00  0.00    -0.328 C  
ENDROOT
BRANCH   2   3
HETATM    3  C   UNL     1     -12.058  14.026  66.687  1.00  0.00    -0.487 C  
BRANCH   3   4
HETATM    4  C   UNL     1     -11.556  12.609  66.892  1.00  0.00    -0.373 C  
BRANCH   4   5
HETATM    5  O   UNL     1     -12.275  11.901  67.908  1.00  0.00    -0.508 OA 
BRANCH   5   6
HETATM    6  C   UNL     1     -11.453  11.139  68.712  1.00  0.00    -0.299 A  
HETATM    7  C   UNL     1     -11.895  10.475  69.857  1.00  0.00    -0.358 A  
HETATM    8  C   UNL     1     -11.020   9.744  70.643  1.00  0.00    -0.398 A  
HETATM    9  C   UNL     1      -9.672   9.648  70.312  1.00  0.00    -0.259 A  
HETATM   10  C   UNL     1     -10.107  11.036  68.357  1.00  0.00    -0.194 A  
HETATM   11  C   UNL     1      -9.221  10.291  69.158  1.00  0.00    -0.203 A  
BRANCH   9  12
HETATM   12  O   UNL     1      -8.750   8.955  71.064  1.00  0.00    -0.187 OA 
BRANCH  12  13
HETATM   13  C   UNL     1      -8.228   7.788  70.408  1.00  0.00    -0.121 C  
BRANCH  13  14
HETATM   14  C   UNL     1      -9.349   6.856  69.975  1.00  0.00    -0.158 C  
BRANCH  14  15
HETATM   15  C   UNL     1      -8.980   6.068  68.704  1.00  0.00    -0.118 C  
BRANCH  15  16
HETATM   16  N   UNL     1      -9.918   6.235  67.581  1.00  0.00    -0.123 NA 
HETATM   17  C   UNL     1      -9.697   7.469  66.795  1.00  0.00    -0.216 C  
HETATM   18  C   UNL     1      -8.470   7.412  65.873  1.00  0.00    -0.150 C  
HETATM   19  O   UNL     1      -8.560   6.307  64.966  1.00  0.00    -0.099 OA 
HETATM   20  C   UNL     1      -8.673   5.074  65.687  1.00  0.00    -0.139 C  
HETATM   21  C   UNL     1      -9.878   5.083  66.648  1.00  0.00    -0.196 C  
ENDBRANCH  15  16
ENDBRANCH  14  15
ENDBRANCH  13  14
ENDBRANCH  12  13
ENDBRANCH   9  12
ENDBRANCH   5   6
ENDBRANCH   4   5
ENDBRANCH   3   4
ENDBRANCH   2   3
TORSDOF 9
ENDMDL
MODEL      167
REMARK 921   NORMALIZED FREE ENERGY PREDICTED BY IDOCK:   -3.42 KCAL/MOL
REMARK 922        TOTAL FREE ENERGY PREDICTED BY IDOCK:   -6.06 KCAL/MOL
REMARK 923 INTER-LIGAND FREE ENERGY PREDICTED BY IDOCK:   -5.10 KCAL/MOL
REMARK 924 INTRA-LIGAND FREE ENERGY PREDICTED BY IDOCK:   -0.96 KCAL/MOL
REMARK 927      BINDING AFFINITY PREDICTED BY RF-SCORE:    0.00 PKD
ROOT
HETATM    1  C   UNL     1     -10.121  11.768  63.946  1.00  0.00    -0.399 C  
HETATM    2  C   UNL     1      -9.933  10.723  65.024  1.00  0.00    -0.361 C  
ENDROOT
BRANCH   2   3
HETATM    3  C   UNL     1     -10.985  10.844  66.132  1.00  0.00    -0.099 C  
BRANCH   3   4
HETATM    4  C   UNL     1     -11.784  12.113  65.897  1.00  0.00    -0.328 C  
BRANCH   4   5
HETATM    5  O   UNL     1     -12.002  12.868  67.093  1.00  0.00    -0.371 OA 
BRANCH   5   6
HETATM    6  C   UNL     1     -11.505  14.151  67.014  1.00  0.00    -0.352 A  
HETATM    7  C   UNL     1     -11.084  14.743  65.822  1.00  0.00    -0.338 A  
HETATM    8  C   UNL     1     -10.568  16.028  65.804  1.00  0.00    -0.366 A  
HETATM    9  C   UNL     1     -10.456  16.770  66.977  1.00  0.00    -0.285 A  
HETATM   10  C   UNL     1     -11.417  14.891  68.194  1.00  0.00    -0.348 A  
HETATM   11  C   UNL     1     -10.893  16.197  68.172  1.00  0.00    -0.329 A  
BRANCH   9  12
HETATM   12  O   UNL     1      -9.932  18.043  67.026  1.00  0.00    -0.301 OA 
BRANCH  12  13
HETATM   13  C   UNL     1      -9.213  18.418  65.839  1.00  0.00     0.210 C  
BRANCH  13  14
HETATM   14  C   UNL     1      -7.716  18.481  66.104  1.00  0.00    -0.253 C  
BRANCH  14  15
HETATM   15  C   UNL     1      -7.179  17.153  66.670  1.00  0.00    -0.247 C  
BRANCH  15  16
HETATM   16  N   UNL     1      -6.314  17.293  67.854  1.00  0.00    -0.146 NA 
HETATM   17  C   UNL     1      -7.010  17.039  69.136  1.00  0.00    -0.228 C  
HETATM   18  C   UNL     1      -7.292  15.554  69.411  1.00  0.00    -0.215 C  
HETATM   19  O   UNL     1      -6.081  14.790  69.393  1.00  0.00    -0.099 OA 
HETATM   20  C   UNL     1      -5.422  14.924  68.128  1.00  0.00    -0.121 C  
HETATM   21  C   UNL     1      -5.134  16.399  67.788  1.00  0.00    -0.126 C  
ENDBRANCH  15  16
ENDBRANCH  14  15
ENDBRANCH  13  14
ENDBRANCH  12  13
ENDBRANCH   9  12
ENDBRANCH   5   6
ENDBRANCH   4   5
ENDBRANCH   3   4
ENDBRANCH   2   3
TORSDOF 9
ENDMDL
MODEL      168
REMARK 921   NORMALIZED FREE ENERGY PREDICTED BY IDOCK:   -3.42 KCAL/MOL
REMARK 922        TOTAL FREE ENERGY PREDICTED BY IDOCK:   -6.06 KCAL/MOL
REMARK 923 INTER-LIGAND FREE ENERGY PREDICTED BY IDOCK:   -5.27 KCAL/MOL
REMARK 924 INTRA-LIGAND FREE ENERGY PREDICTED BY IDOCK:   -0.79 KCAL/MOL
REMARK 927      BINDING AFFINITY PREDICTED BY RF-SCORE:    0.00 PKD
ROOT
HETATM    1  C   UNL     1     -12.857  13.390  65.009  1.00  0.00    -0.344 C  
HETATM    2  C   UNL     1     -12.197  14.605  64.392  1.00  0.00    -0.473 C  
ENDROOT
BRANCH   2   3
HETATM    3  C   UNL     1     -10.757  14.787  64.881  1.00  0.00    -0.438 C  
BRANCH   3   4
HETATM    4  C   UNL     1     -10.677  16.085  65.664  1.00  0.00    -0.329 C  
BRANCH   4   5
HETATM    5  O   UNL     1     -10.116  15.919  66.971  1.00  0.00    -0.256 OA 
BRANCH   5   6
HETATM    6  C   UNL     1     -10.544  14.765  67.593  1.00  0.00    -0.262 A  
HETATM    7  C   UNL     1     -11.781  14.644  68.228  1.00  0.00    -0.359 A  
HETATM    8  C   UNL     1     -12.149  13.469  68.860  1.00  0.00    -0.315 A  
HETATM    9  C   UNL     1     -11.295  12.370  68.879  1.00  0.00    -0.294 A  
HETATM   10  C   UNL     1      -9.686  13.664  67.587  1.00  0.00    -0.228 A  
HETATM   11  C   UNL     1     -10.064  12.471  68.229  1.00  0.00    -0.228 A  
BRANCH   9  12
HETATM   12  O   UNL     1     -11.596  11.182  69.509  1.00  0.00    -0.261 OA 
BRANCH  12  13
HETATM   13  C   UNL     1     -10.443  10.378  69.808  1.00  0.00    -0.240 C  
BRANCH  13  14
HETATM   14  C   UNL     1     -10.541   9.012  69.144  1.00  0.00    -0.219 C  
BRANCH  14  15
HETATM   15  C   UNL     1     -10.137   9.068  67.659  1.00  0.00    -0.216 C  
BRANCH  15  16
HETATM   16  N   UNL     1      -8.823   8.476  67.355  1.00  0.00    -0.133 NA 
HETATM   17  C   UNL     1      -8.700   7.973  65.968  1.00  0.00    -0.157 C  
HETATM   18  C   UNL     1      -8.541   9.080  64.914  1.00  0.00    -0.180 C  
HETATM   19  O   UNL     1      -7.405   9.902  65.201  1.00  0.00    -0.120 OA 
HETATM   20  C   UNL     1      -7.529  10.495  66.500  1.00  0.00    -0.128 C  
HETATM   21  C   UNL     1      -7.715   9.430  67.597  1.00  0.00    -0.088 C  
ENDBRANCH  15  16
ENDBRANCH  14  15
ENDBRANCH  13  14
ENDBRANCH  12  13
ENDBRANCH   9  12
ENDBRANCH   5   6
ENDBRANCH   4   5
ENDBRANCH   3   4
ENDBRANCH   2   3
TORSDOF 9
ENDMDL
MODEL      169
REMARK 921   NORMALIZED FREE ENERGY PREDICTED BY IDOCK:   -3.40 KCAL/MOL
REMARK 922        TOTAL FREE ENERGY PREDICTED BY IDOCK:   -6.02 KCAL/MOL
REMARK 923 INTER-LIGAND FREE ENERGY PREDICTED BY IDOCK:   -5.25 KCAL/MOL
REMARK 924 INTRA-LIGAND FREE ENERGY PREDICTED BY IDOCK:   -0.78 KCAL/MOL
REMARK 927      BINDING AFFINITY PREDICTED BY RF-SCORE:    0.00 PKD
ROOT
HETATM    1  C   UNL     1     -12.928  12.186  63.754  1.00  0.00    -0.343 C  
HETATM    2  C   UNL     1     -11.495  12.573  63.456  1.00  0.00    -0.570 C  
ENDROOT
BRANCH   2   3
HETATM    3  C   UNL     1     -10.558  11.361  63.471  1.00  0.00    -0.468 C  
BRANCH   3   4
HETATM    4  C   UNL     1      -9.683  11.447  64.709  1.00  0.00    -0.244 C  
BRANCH   4   5
HETATM    5  O   UNL     1     -10.311  12.141  65.792  1.00  0.00    -0.243 OA 
BRANCH   5   6
HETATM    6  C   UNL     1      -9.432  12.928  66.505  1.00  0.00    -0.251 A  
HETATM    7  C   UNL     1      -9.532  14.318  66.586  1.00  0.00    -0.302 A  
HETATM    8  C   UNL     1      -8.604  15.062  67.295  1.00  0.00    -0.226 A  
HETATM    9  C   UNL     1      -7.543  14.444  67.952  1.00  0.00    -0.151 A  
HETATM   10  C   UNL     1      -8.385  12.294  67.174  1.00  0.00    -0.183 A  
HETATM   11  C   UNL     1      -7.444  13.053  67.895  1.00  0.00    -0.137 A  
BRANCH   9  12
HETATM   12  O   UNL     1      -6.579  15.131  68.655  1.00  0.00    -0.087 OA 
BRANCH  12  13
HETATM   13  C   UNL     1      -7.112  16.026  69.645  1.00  0.00    -0.105 C  
BRANCH  13  14
HETATM   14  C   UNL     1      -6.330  17.330  69.681  1.00  0.00    -0.207 C  
BRANCH  14  15
HETATM   15  C   UNL     1      -5.598  17.596  68.352  1.00  0.00    -0.153 C  
BRANCH  15  16
HETATM   16  N   UNL     1      -5.740  18.967  67.833  1.00  0.00    -0.193 NA 
HETATM   17  C   UNL     1      -5.404  19.102  66.398  1.00  0.00    -0.152 C  
HETATM   18  C   UNL     1      -6.475  18.541  65.450  1.00  0.00    -0.247 C  
HETATM   19  O   UNL     1      -7.743  19.167  65.681  1.00  0.00    -0.460 OA 
HETATM   20  C   UNL     1      -8.158  18.974  67.038  1.00  0.00    -0.265 C  
HETATM   21  C   UNL     1      -7.109  19.498  68.037  1.00  0.00    -0.263 C  
ENDBRANCH  15  16
ENDBRANCH  14  15
ENDBRANCH  13  14
ENDBRANCH  12  13
ENDBRANCH   9  12
ENDBRANCH   5   6
ENDBRANCH   4   5
ENDBRANCH   3   4
ENDBRANCH   2   3
TORSDOF 9
ENDMDL
MODEL      170
REMARK 921   NORMALIZED FREE ENERGY PREDICTED BY IDOCK:   -3.39 KCAL/MOL
REMARK 922        TOTAL FREE ENERGY PREDICTED BY IDOCK:   -6.02 KCAL/MOL
REMARK 923 INTER-LIGAND FREE ENERGY PREDICTED BY IDOCK:   -5.41 KCAL/MOL
REMARK 924 INTRA-LIGAND FREE ENERGY PREDICTED BY IDOCK:   -0.61 KCAL/MOL
REMARK 927      BINDING AFFINITY PREDICTED BY RF-SCORE:    0.00 PKD
ROOT
HETATM    1  C   UNL     1      -9.054   2.917  65.124  1.00  0.00    -0.148 C  
HETATM    2  C   UNL     1      -9.303   4.383  64.836  1.00  0.00    -0.163 C  
ENDROOT
BRANCH   2   3
HETATM    3  C   UNL     1      -9.790   5.137  66.077  1.00  0.00    -0.184 C  
BRANCH   3   4
HETATM    4  C   UNL     1      -8.909   6.358  66.272  1.00  0.00    -0.145 C  
BRANCH   4   5
HETATM    5  O   UNL     1      -9.122   7.008  67.530  1.00  0.00    -0.123 OA 
BRANCH   5   6
HETATM    6  C   UNL     1      -9.709   8.248  67.399  1.00  0.00    -0.174 A  
HETATM    7  C   UNL     1      -9.829   8.920  66.182  1.00  0.00    -0.326 A  
HETATM    8  C   UNL     1     -10.405  10.177  66.111  1.00  0.00    -0.237 A  
HETATM    9  C   UNL     1     -10.885  10.808  67.255  1.00  0.00    -0.288 A  
HETATM   10  C   UNL     1     -10.205   8.860  68.551  1.00  0.00    -0.223 A  
HETATM   11  C   UNL     1     -10.791  10.138  68.476  1.00  0.00    -0.278 A  
BRANCH   9  12
HETATM   12  O   UNL     1     -11.449  12.065  67.252  1.00  0.00    -0.311 OA 
BRANCH  12  13
HETATM   13  C   UNL     1     -11.806  12.535  65.942  1.00  0.00    -0.430 C  
BRANCH  13  14
HETATM   14  C   UNL     1     -12.411  13.930  66.007  1.00  0.00    -0.501 C  
BRANCH  14  15
HETATM   15  C   UNL     1     -11.446  14.942  66.654  1.00  0.00    -0.296 C  
BRANCH  15  16
HETATM   16  N   UNL     1     -10.394  15.450  65.756  1.00  0.00    -0.333 NA 
HETATM   17  C   UNL     1     -10.673  16.796  65.209  1.00  0.00    -0.169 C  
HETATM   18  C   UNL     1     -10.478  17.935  66.222  1.00  0.00    -0.320 C  
HETATM   19  O   UNL     1      -9.149  17.927  66.753  1.00  0.00    -0.253 OA 
HETATM   20  C   UNL     1      -8.868  16.673  67.386  1.00  0.00    -0.188 C  
HETATM   21  C   UNL     1      -9.069  15.489  66.421  1.00  0.00    -0.316 C  
ENDBRANCH  15  16
ENDBRANCH  14  15
ENDBRANCH  13  14
ENDBRANCH  12  13
ENDBRANCH   9  12
ENDBRANCH   5   6
ENDBRANCH   4   5
ENDBRANCH   3   4
ENDBRANCH   2   3
TORSDOF 9
ENDMDL
MODEL      171
REMARK 921   NORMALIZED FREE ENERGY PREDICTED BY IDOCK:   -3.39 KCAL/MOL
REMARK 922        TOTAL FREE ENERGY PREDICTED BY IDOCK:   -6.01 KCAL/MOL
REMARK 923 INTER-LIGAND FREE ENERGY PREDICTED BY IDOCK:   -5.39 KCAL/MOL
REMARK 924 INTRA-LIGAND FREE ENERGY PREDICTED BY IDOCK:   -0.62 KCAL/MOL
REMARK 927      BINDING AFFINITY PREDICTED BY RF-SCORE:    0.00 PKD
ROOT
HETATM    1  C   UNL     1      -8.453   7.205  68.822  1.00  0.00    -0.126 C  
HETATM    2  C   UNL     1      -8.672   6.952  67.346  1.00  0.00    -0.119 C  
ENDROOT
BRANCH   2   3
HETATM    3  C   UNL     1      -8.651   8.249  66.531  1.00  0.00    -0.141 C  
BRANCH   3   4
HETATM    4  C   UNL     1     -10.078   8.595  66.144  1.00  0.00    -0.035 C  
BRANCH   4   5
HETATM    5  O   UNL     1     -10.858   9.071  67.246  1.00  0.00    -0.223 OA 
BRANCH   5   6
HETATM    6  C   UNL     1     -11.010  10.441  67.241  1.00  0.00    -0.240 A  
HETATM    7  C   UNL     1     -10.763  11.241  66.125  1.00  0.00    -0.307 A  
HETATM    8  C   UNL     1     -10.907  12.617  66.183  1.00  0.00    -0.301 A  
HETATM    9  C   UNL     1     -11.306  13.244  67.360  1.00  0.00    -0.303 A  
HETATM   10  C   UNL     1     -11.429  11.055  68.422  1.00  0.00    -0.378 A  
HETATM   11  C   UNL     1     -11.576  12.454  68.478  1.00  0.00    -0.358 A  
BRANCH   9  12
HETATM   12  O   UNL     1     -11.446  14.608  67.486  1.00  0.00    -0.332 OA 
BRANCH  12  13
HETATM   13  C   UNL     1     -10.688  15.359  66.523  1.00  0.00    -0.308 C  
BRANCH  13  14
HETATM   14  C   UNL     1      -9.368  15.831  67.114  1.00  0.00    -0.224 C  
BRANCH  14  15
HETATM   15  C   UNL     1      -8.641  16.814  66.176  1.00  0.00    -0.264 C  
BRANCH  15  16
HETATM   16  N   UNL     1      -7.515  17.536  66.794  1.00  0.00    -0.200 NA 
HETATM   17  C   UNL     1      -7.165  18.799  66.107  1.00  0.00    -0.263 C  
HETATM   18  C   UNL     1      -8.154  19.947  66.364  1.00  0.00    -0.331 C  
HETATM   19  O   UNL     1      -8.278  20.212  67.766  1.00  0.00    -0.304 OA 
HETATM   20  C   UNL     1      -8.716  19.039  68.463  1.00  0.00    -0.357 C  
HETATM   21  C   UNL     1      -7.771  17.846  68.221  1.00  0.00    -0.279 C  
ENDBRANCH  15  16
ENDBRANCH  14  15
ENDBRANCH  13  14
ENDBRANCH  12  13
ENDBRANCH   9  12
ENDBRANCH   5   6
ENDBRANCH   4   5
ENDBRANCH   3   4
ENDBRANCH   2   3
TORSDOF 9
ENDMDL
MODEL      172
REMARK 921   NORMALIZED FREE ENERGY PREDICTED BY IDOCK:   -3.38 KCAL/MOL
REMARK 922        TOTAL FREE ENERGY PREDICTED BY IDOCK:   -6.00 KCAL/MOL
REMARK 923 INTER-LIGAND FREE ENERGY PREDICTED BY IDOCK:   -5.26 KCAL/MOL
REMARK 924 INTRA-LIGAND FREE ENERGY PREDICTED BY IDOCK:   -0.75 KCAL/MOL
REMARK 927      BINDING AFFINITY PREDICTED BY RF-SCORE:    0.00 PKD
ROOT
HETATM    1  C   UNL     1      -8.137   2.299  64.907  1.00  0.00    -0.079 C  
HETATM    2  C   UNL     1      -9.308   2.369  63.950  1.00  0.00    -0.116 C  
ENDROOT
BRANCH   2   3
HETATM    3  C   UNL     1     -10.172   3.612  64.188  1.00  0.00    -0.232 C  
BRANCH   3   4
HETATM    4  C   UNL     1      -9.837   4.173  65.558  1.00  0.00    -0.207 C  
BRANCH   4   5
HETATM    5  O   UNL     1      -9.391   5.533  65.513  1.00  0.00    -0.113 OA 
BRANCH   5   6
HETATM    6  C   UNL     1      -9.800   6.265  66.607  1.00  0.00    -0.154 A  
HETATM    7  C   UNL     1      -9.495   7.614  66.789  1.00  0.00    -0.244 A  
HETATM    8  C   UNL     1      -9.909   8.296  67.921  1.00  0.00    -0.207 A  
HETATM    9  C   UNL     1     -10.647   7.654  68.912  1.00  0.00    -0.159 A  
HETATM   10  C   UNL     1     -10.556   5.614  67.583  1.00  0.00    -0.279 A  
HETATM   11  C   UNL     1     -10.977   6.310  68.731  1.00  0.00    -0.424 A  
BRANCH   9  12
HETATM   12  O   UNL     1     -11.069   8.272  70.068  1.00  0.00    -0.235 OA 
BRANCH  12  13
HETATM   13  C   UNL     1     -10.543   9.598  70.241  1.00  0.00    -0.278 C  
BRANCH  13  14
HETATM   14  C   UNL     1     -11.663  10.624  70.327  1.00  0.00    -0.433 C  
BRANCH  14  15
HETATM   15  C   UNL     1     -11.980  11.241  68.951  1.00  0.00    -0.310 C  
BRANCH  15  16
HETATM   16  N   UNL     1     -10.842  11.913  68.300  1.00  0.00    -0.212 NA 
HETATM   17  C   UNL     1     -10.640  11.516  66.889  1.00  0.00    -0.247 C  
HETATM   18  C   UNL     1     -11.664  12.120  65.916  1.00  0.00    -0.328 C  
HETATM   19  O   UNL     1     -11.660  13.550  65.991  1.00  0.00    -0.318 OA 
HETATM   20  C   UNL     1     -11.954  13.985  67.324  1.00  0.00    -0.413 C  
HETATM   21  C   UNL     1     -10.970  13.390  68.348  1.00  0.00    -0.267 C  
ENDBRANCH  15  16
ENDBRANCH  14  15
ENDBRANCH  13  14
ENDBRANCH  12  13
ENDBRANCH   9  12
ENDBRANCH   5   6
ENDBRANCH   4   5
ENDBRANCH   3   4
ENDBRANCH   2   3
TORSDOF 9
ENDMDL
MODEL      173
REMARK 921   NORMALIZED FREE ENERGY PREDICTED BY IDOCK:   -3.38 KCAL/MOL
REMARK 922        TOTAL FREE ENERGY PREDICTED BY IDOCK:   -6.00 KCAL/MOL
REMARK 923 INTER-LIGAND FREE ENERGY PREDICTED BY IDOCK:   -5.05 KCAL/MOL
REMARK 924 INTRA-LIGAND FREE ENERGY PREDICTED BY IDOCK:   -0.95 KCAL/MOL
REMARK 927      BINDING AFFINITY PREDICTED BY RF-SCORE:    0.00 PKD
ROOT
HETATM    1  C   UNL     1      -7.879   6.292  73.502  1.00  0.00    -0.097 C  
HETATM    2  C   UNL     1      -9.000   5.275  73.457  1.00  0.00    -0.121 C  
ENDROOT
BRANCH   2   3
HETATM    3  C   UNL     1     -10.306   5.833  74.032  1.00  0.00    -0.295 C  
BRANCH   3   4
HETATM    4  C   UNL     1     -10.760   6.988  73.158  1.00  0.00    -0.326 C  
BRANCH   4   5
HETATM    5  O   UNL     1     -11.012   6.600  71.803  1.00  0.00    -0.228 OA 
BRANCH   5   6
HETATM    6  C   UNL     1     -10.619   7.556  70.891  1.00  0.00    -0.220 A  
HETATM    7  C   UNL     1     -10.173   8.828  71.250  1.00  0.00    -0.332 A  
HETATM    8  C   UNL     1      -9.815   9.759  70.290  1.00  0.00    -0.296 A  
HETATM    9  C   UNL     1      -9.887   9.452  68.935  1.00  0.00    -0.171 A  
HETATM   10  C   UNL     1     -10.678   7.227  69.536  1.00  0.00    -0.244 A  
HETATM   11  C   UNL     1     -10.312   8.176  68.562  1.00  0.00    -0.230 A  
BRANCH   9  12
HETATM   12  O   UNL     1      -9.565  10.342  67.934  1.00  0.00    -0.144 OA 
BRANCH  12  13
HETATM   13  C   UNL     1      -8.872  11.511  68.401  1.00  0.00    -0.163 C  
BRANCH  13  14
HETATM   14  C   UNL     1      -9.273  12.741  67.598  1.00  0.00    -0.192 C  
BRANCH  14  15
HETATM   15  C   UNL     1      -9.583  13.943  68.509  1.00  0.00    -0.185 C  
BRANCH  15  16
HETATM   16  N   UNL     1     -10.974  14.423  68.445  1.00  0.00    -0.241 NA 
HETATM   17  C   UNL     1     -11.982  13.373  68.714  1.00  0.00    -0.324 C  
HETATM   18  C   UNL     1     -12.095  12.981  70.195  1.00  0.00    -0.307 C  
HETATM   19  O   UNL     1     -12.400  14.121  71.006  1.00  0.00    -0.325 OA 
HETATM   20  C   UNL     1     -11.392  15.128  70.855  1.00  0.00    -0.307 C  
HETATM   21  C   UNL     1     -11.218  15.545  69.382  1.00  0.00    -0.300 C  
ENDBRANCH  15  16
ENDBRANCH  14  15
ENDBRANCH  13  14
ENDBRANCH  12  13
ENDBRANCH   9  12
ENDBRANCH   5   6
ENDBRANCH   4   5
ENDBRANCH   3   4
ENDBRANCH   2   3
TORSDOF 9
ENDMDL
MODEL      174
REMARK 921   NORMALIZED FREE ENERGY PREDICTED BY IDOCK:   -3.38 KCAL/MOL
REMARK 922        TOTAL FREE ENERGY PREDICTED BY IDOCK:   -6.00 KCAL/MOL
REMARK 923 INTER-LIGAND FREE ENERGY PREDICTED BY IDOCK:   -5.39 KCAL/MOL
REMARK 924 INTRA-LIGAND FREE ENERGY PREDICTED BY IDOCK:   -0.61 KCAL/MOL
REMARK 927      BINDING AFFINITY PREDICTED BY RF-SCORE:    0.00 PKD
ROOT
HETATM    1  C   UNL     1     -10.366  17.773  68.248  1.00  0.00    -0.387 C  
HETATM    2  C   UNL     1     -10.782  16.343  67.978  1.00  0.00    -0.334 C  
ENDROOT
BRANCH   2   3
HETATM    3  C   UNL     1     -11.700  15.795  69.076  1.00  0.00    -0.405 C  
BRANCH   3   4
HETATM    4  C   UNL     1     -11.880  14.305  68.851  1.00  0.00    -0.336 C  
BRANCH   4   5
HETATM    5  O   UNL     1     -12.191  13.976  67.493  1.00  0.00    -0.366 OA 
BRANCH   5   6
HETATM    6  C   UNL     1     -11.605  12.798  67.080  1.00  0.00    -0.364 A  
HETATM    7  C   UNL     1     -11.112  12.592  65.792  1.00  0.00    -0.343 A  
HETATM    8  C   UNL     1     -10.556  11.378  65.423  1.00  0.00    -0.333 A  
HETATM    9  C   UNL     1     -10.471  10.327  66.331  1.00  0.00    -0.163 A  
HETATM   10  C   UNL     1     -11.508  11.759  68.007  1.00  0.00    -0.388 A  
HETATM   11  C   UNL     1     -10.942  10.527  67.629  1.00  0.00    -0.375 A  
BRANCH   9  12
HETATM   12  O   UNL     1      -9.949   9.091  66.018  1.00  0.00    -0.283 OA 
BRANCH  12  13
HETATM   13  C   UNL     1     -10.439   8.028  66.853  1.00  0.00    -0.317 C  
BRANCH  13  14
HETATM   14  C   UNL     1      -9.335   7.030  67.171  1.00  0.00    -0.166 C  
BRANCH  14  15
HETATM   15  C   UNL     1      -9.014   6.129  65.963  1.00  0.00    -0.145 C  
BRANCH  15  16
HETATM   16  N   UNL     1      -9.224   4.690  66.194  1.00  0.00    -0.133 NA 
HETATM   17  C   UNL     1     -10.187   4.068  65.258  1.00  0.00    -0.139 C  
HETATM   18  C   UNL     1      -9.629   3.847  63.843  1.00  0.00    -0.159 C  
HETATM   19  O   UNL     1      -8.446   3.041  63.879  1.00  0.00    -0.089 OA 
HETATM   20  C   UNL     1      -7.443   3.658  64.696  1.00  0.00    -0.072 C  
HETATM   21  C   UNL     1      -7.956   3.925  66.124  1.00  0.00    -0.094 C  
ENDBRANCH  15  16
ENDBRANCH  14  15
ENDBRANCH  13  14
ENDBRANCH  12  13
ENDBRANCH   9  12
ENDBRANCH   5   6
ENDBRANCH   4   5
ENDBRANCH   3   4
ENDBRANCH   2   3
TORSDOF 9
ENDMDL
MODEL      175
REMARK 921   NORMALIZED FREE ENERGY PREDICTED BY IDOCK:   -3.37 KCAL/MOL
REMARK 922        TOTAL FREE ENERGY PREDICTED BY IDOCK:   -5.98 KCAL/MOL
REMARK 923 INTER-LIGAND FREE ENERGY PREDICTED BY IDOCK:   -4.65 KCAL/MOL
REMARK 924 INTRA-LIGAND FREE ENERGY PREDICTED BY IDOCK:   -1.34 KCAL/MOL
REMARK 927      BINDING AFFINITY PREDICTED BY RF-SCORE:    0.00 PKD
ROOT
HETATM    1  C   UNL     1      -6.817  10.799  68.364  1.00  0.00    -0.068 C  
HETATM    2  C   UNL     1      -6.243  12.198  68.289  1.00  0.00    -0.052 C  
ENDROOT
BRANCH   2   3
HETATM    3  C   UNL     1      -6.461  12.979  69.590  1.00  0.00    -0.044 C  
BRANCH   3   4
HETATM    4  C   UNL     1      -5.652  14.261  69.520  1.00  0.00    -0.093 C  
BRANCH   4   5
HETATM    5  O   UNL     1      -6.410  15.422  69.876  1.00  0.00    -0.152 OA 
BRANCH   5   6
HETATM    6  C   UNL     1      -7.132  15.934  68.818  1.00  0.00    -0.138 A  
HETATM    7  C   UNL     1      -6.590  16.160  67.552  1.00  0.00    -0.200 A  
HETATM    8  C   UNL     1      -7.354  16.701  66.533  1.00  0.00    -0.273 A  
HETATM    9  C   UNL     1      -8.690  17.034  66.740  1.00  0.00    -0.245 A  
HETATM   10  C   UNL     1      -8.475  16.245  69.035  1.00  0.00    -0.244 A  
HETATM   11  C   UNL     1      -9.250  16.794  67.996  1.00  0.00    -0.228 A  
BRANCH   9  12
HETATM   12  O   UNL     1      -9.494  17.594  65.772  1.00  0.00    -0.516 OA 
BRANCH  12  13
HETATM   13  C   UNL     1     -10.807  17.013  65.705  1.00  0.00    -0.061 C  
BRANCH  13  14
HETATM   14  C   UNL     1     -10.804  15.755  64.849  1.00  0.00    -0.433 C  
BRANCH  14  15
HETATM   15  C   UNL     1     -11.745  14.675  65.417  1.00  0.00    -0.330 C  
BRANCH  15  16
HETATM   16  N   UNL     1     -11.234  13.297  65.315  1.00  0.00    -0.292 NA 
HETATM   17  C   UNL     1      -9.800  13.164  65.659  1.00  0.00    -0.160 C  
HETATM   18  C   UNL     1      -9.508  13.253  67.165  1.00  0.00    -0.240 C  
HETATM   19  O   UNL     1     -10.243  12.261  67.890  1.00  0.00    -0.191 OA 
HETATM   20  C   UNL     1     -11.650  12.415  67.667  1.00  0.00    -0.357 C  
HETATM   21  C   UNL     1     -12.000  12.357  66.168  1.00  0.00    -0.327 C  
ENDBRANCH  15  16
ENDBRANCH  14  15
ENDBRANCH  13  14
ENDBRANCH  12  13
ENDBRANCH   9  12
ENDBRANCH   5   6
ENDBRANCH   4   5
ENDBRANCH   3   4
ENDBRANCH   2   3
TORSDOF 9
ENDMDL
MODEL      176
REMARK 921   NORMALIZED FREE ENERGY PREDICTED BY IDOCK:   -3.36 KCAL/MOL
REMARK 922        TOTAL FREE ENERGY PREDICTED BY IDOCK:   -5.96 KCAL/MOL
REMARK 923 INTER-LIGAND FREE ENERGY PREDICTED BY IDOCK:   -5.45 KCAL/MOL
REMARK 924 INTRA-LIGAND FREE ENERGY PREDICTED BY IDOCK:   -0.52 KCAL/MOL
REMARK 927      BINDING AFFINITY PREDICTED BY RF-SCORE:    0.00 PKD
ROOT
HETATM    1  C   UNL     1      -8.198   2.784  65.495  1.00  0.00    -0.089 C  
HETATM    2  C   UNL     1      -9.047   3.779  64.732  1.00  0.00    -0.139 C  
ENDROOT
BRANCH   2   3
HETATM    3  C   UNL     1     -10.238   4.273  65.560  1.00  0.00    -0.224 C  
BRANCH   3   4
HETATM    4  C   UNL     1      -9.813   5.519  66.315  1.00  0.00    -0.145 C  
BRANCH   4   5
HETATM    5  O   UNL     1     -10.498   5.680  67.562  1.00  0.00    -0.210 OA 
BRANCH   5   6
HETATM    6  C   UNL     1     -10.570   6.996  67.966  1.00  0.00    -0.207 A  
HETATM    7  C   UNL     1     -10.445   8.079  67.095  1.00  0.00    -0.408 A  
HETATM    8  C   UNL     1     -10.498   9.382  67.560  1.00  0.00    -0.343 A  
HETATM    9  C   UNL     1     -10.682   9.651  68.913  1.00  0.00    -0.206 A  
HETATM   10  C   UNL     1     -10.774   7.251  69.323  1.00  0.00    -0.212 A  
HETATM   11  C   UNL     1     -10.830   8.577  69.792  1.00  0.00    -0.177 A  
BRANCH   9  12
HETATM   12  O   UNL     1     -10.723  10.924  69.438  1.00  0.00    -0.224 OA 
BRANCH  12  13
HETATM   13  C   UNL     1     -11.465  11.857  68.635  1.00  0.00    -0.294 C  
BRANCH  13  14
HETATM   14  C   UNL     1     -11.091  13.291  68.976  1.00  0.00    -0.291 C  
BRANCH  14  15
HETATM   15  C   UNL     1     -11.249  14.228  67.764  1.00  0.00    -0.291 C  
BRANCH  15  16
HETATM   16  N   UNL     1      -9.996  14.533  67.053  1.00  0.00    -0.251 NA 
HETATM   17  C   UNL     1     -10.017  14.166  65.619  1.00  0.00    -0.306 C  
HETATM   18  C   UNL     1     -10.846  15.117  64.742  1.00  0.00    -0.357 C  
HETATM   19  O   UNL     1     -10.375  16.464  64.859  1.00  0.00    -0.590 OA 
HETATM   20  C   UNL     1     -10.433  16.900  66.223  1.00  0.00    -0.262 C  
HETATM   21  C   UNL     1      -9.636  15.968  67.154  1.00  0.00    -0.218 C  
ENDBRANCH  15  16
ENDBRANCH  14  15
ENDBRANCH  13  14
ENDBRANCH  12  13
ENDBRANCH   9  12
ENDBRANCH   5   6
ENDBRANCH   4   5
ENDBRANCH   3   4
ENDBRANCH   2   3
TORSDOF 9
ENDMDL
MODEL      177
REMARK 921   NORMALIZED FREE ENERGY PREDICTED BY IDOCK:   -3.35 KCAL/MOL
REMARK 922        TOTAL FREE ENERGY PREDICTED BY IDOCK:   -5.94 KCAL/MOL
REMARK 923 INTER-LIGAND FREE ENERGY PREDICTED BY IDOCK:   -5.15 KCAL/MOL
REMARK 924 INTRA-LIGAND FREE ENERGY PREDICTED BY IDOCK:   -0.79 KCAL/MOL
REMARK 927      BINDING AFFINITY PREDICTED BY RF-SCORE:    0.00 PKD
ROOT
HETATM    1  C   UNL     1     -10.133  10.813  64.012  1.00  0.00    -0.410 C  
HETATM    2  C   UNL     1     -11.352  11.697  63.863  1.00  0.00    -0.457 C  
ENDROOT
BRANCH   2   3
HETATM    3  C   UNL     1     -11.310  12.899  64.813  1.00  0.00    -0.349 C  
BRANCH   3   4
HETATM    4  C   UNL     1     -10.868  12.413  66.182  1.00  0.00    -0.273 C  
BRANCH   4   5
HETATM    5  O   UNL     1     -11.964  12.153  67.066  1.00  0.00    -0.593 OA 
BRANCH   5   6
HETATM    6  C   UNL     1     -11.657  11.228  68.040  1.00  0.00    -0.272 A  
HETATM    7  C   UNL     1     -12.114  11.312  69.356  1.00  0.00    -0.384 A  
HETATM    8  C   UNL     1     -11.754  10.368  70.302  1.00  0.00    -0.406 A  
HETATM    9  C   UNL     1     -10.924   9.302  69.967  1.00  0.00    -0.229 A  
HETATM   10  C   UNL     1     -10.840  10.153  67.685  1.00  0.00    -0.346 A  
HETATM   11  C   UNL     1     -10.476   9.194  68.649  1.00  0.00    -0.235 A  
BRANCH   9  12
HETATM   12  O   UNL     1     -10.513   8.344  70.867  1.00  0.00    -0.190 OA 
BRANCH  12  13
HETATM   13  C   UNL     1      -9.349   8.720  71.621  1.00  0.00    -0.275 C  
BRANCH  13  14
HETATM   14  C   UNL     1      -8.945   7.617  72.589  1.00  0.00    -0.205 C  
BRANCH  14  15
HETATM   15  C   UNL     1      -8.930   6.236  71.907  1.00  0.00    -0.139 C  
BRANCH  15  16
HETATM   16  N   UNL     1      -8.026   6.130  70.749  1.00  0.00    -0.113 NA 
HETATM   17  C   UNL     1      -6.681   5.611  71.084  1.00  0.00    -0.053 C  
HETATM   18  C   UNL     1      -6.644   4.100  71.359  1.00  0.00    -0.029 C  
HETATM   19  O   UNL     1      -7.149   3.363  70.240  1.00  0.00    -0.037 OA 
HETATM   20  C   UNL     1      -8.493   3.761  69.941  1.00  0.00    -0.056 C  
HETATM   21  C   UNL     1      -8.594   5.275  69.678  1.00  0.00    -0.098 C  
ENDBRANCH  15  16
ENDBRANCH  14  15
ENDBRANCH  13  14
ENDBRANCH  12  13
ENDBRANCH   9  12
ENDBRANCH   5   6
ENDBRANCH   4   5
ENDBRANCH   3   4
ENDBRANCH   2   3
TORSDOF 9
ENDMDL
MODEL      178
REMARK 921   NORMALIZED FREE ENERGY PREDICTED BY IDOCK:   -3.33 KCAL/MOL
REMARK 922        TOTAL FREE ENERGY PREDICTED BY IDOCK:   -5.92 KCAL/MOL
REMARK 923 INTER-LIGAND FREE ENERGY PREDICTED BY IDOCK:   -5.04 KCAL/MOL
REMARK 924 INTRA-LIGAND FREE ENERGY PREDICTED BY IDOCK:   -0.88 KCAL/MOL
REMARK 927      BINDING AFFINITY PREDICTED BY RF-SCORE:    0.00 PKD
ROOT
HETATM    1  C   UNL     1     -12.625   9.340  72.046  1.00  0.00    -0.465 C  
HETATM    2  C   UNL     1     -13.034  10.235  70.895  1.00  0.00    -0.456 C  
ENDROOT
BRANCH   2   3
HETATM    3  C   UNL     1     -12.386  11.620  70.985  1.00  0.00    -0.405 C  
BRANCH   3   4
HETATM    4  C   UNL     1     -11.665  11.898  69.679  1.00  0.00    -0.343 C  
BRANCH   4   5
HETATM    5  O   UNL     1     -12.153  11.107  68.590  1.00  0.00    -0.556 OA 
BRANCH   5   6
HETATM    6  C   UNL     1     -11.155  10.719  67.722  1.00  0.00    -0.318 A  
HETATM    7  C   UNL     1     -10.490   9.495  67.808  1.00  0.00    -0.309 A  
HETATM    8  C   UNL     1      -9.476   9.167  66.924  1.00  0.00    -0.222 A  
HETATM    9  C   UNL     1      -9.091  10.049  65.919  1.00  0.00    -0.159 A  
HETATM   10  C   UNL     1     -10.793  11.605  66.706  1.00  0.00    -0.322 A  
HETATM   11  C   UNL     1      -9.763  11.268  65.808  1.00  0.00    -0.263 A  
BRANCH   9  12
HETATM   12  O   UNL     1      -8.078   9.789  65.023  1.00  0.00    -0.122 OA 
BRANCH  12  13
HETATM   13  C   UNL     1      -7.060   8.916  65.540  1.00  0.00    -0.080 C  
BRANCH  13  14
HETATM   14  C   UNL     1      -6.819   7.741  64.604  1.00  0.00    -0.054 C  
BRANCH  14  15
HETATM   15  C   UNL     1      -8.005   6.758  64.604  1.00  0.00    -0.117 C  
BRANCH  15  16
HETATM   16  N   UNL     1      -7.720   5.449  65.217  1.00  0.00    -0.086 NA 
HETATM   17  C   UNL     1      -7.814   5.446  66.694  1.00  0.00    -0.101 C  
HETATM   18  C   UNL     1      -9.255   5.479  67.228  1.00  0.00    -0.110 C  
HETATM   19  O   UNL     1     -10.014   4.375  66.723  1.00  0.00    -0.216 OA 
HETATM   20  C   UNL     1     -10.036   4.394  65.290  1.00  0.00    -0.201 C  
HETATM   21  C   UNL     1      -8.614   4.386  64.698  1.00  0.00    -0.134 C  
ENDBRANCH  15  16
ENDBRANCH  14  15
ENDBRANCH  13  14
ENDBRANCH  12  13
ENDBRANCH   9  12
ENDBRANCH   5   6
ENDBRANCH   4   5
ENDBRANCH   3   4
ENDBRANCH   2   3
TORSDOF 9
ENDMDL
MODEL      179
REMARK 921   NORMALIZED FREE ENERGY PREDICTED BY IDOCK:   -3.32 KCAL/MOL
REMARK 922        TOTAL FREE ENERGY PREDICTED BY IDOCK:   -5.91 KCAL/MOL
REMARK 923 INTER-LIGAND FREE ENERGY PREDICTED BY IDOCK:   -5.17 KCAL/MOL
REMARK 924 INTRA-LIGAND FREE ENERGY PREDICTED BY IDOCK:   -0.74 KCAL/MOL
REMARK 927      BINDING AFFINITY PREDICTED BY RF-SCORE:    0.00 PKD
ROOT
HETATM    1  C   UNL     1      -7.616   4.324  71.815  1.00  0.00    -0.070 C  
HETATM    2  C   UNL     1      -8.715   4.598  72.820  1.00  0.00    -0.114 C  
ENDROOT
BRANCH   2   3
HETATM    3  C   UNL     1     -10.076   4.792  72.144  1.00  0.00    -0.252 C  
BRANCH   3   4
HETATM    4  C   UNL     1     -11.016   5.449  73.139  1.00  0.00    -0.302 C  
BRANCH   4   5
HETATM    5  O   UNL     1     -10.629   6.784  73.479  1.00  0.00    -0.297 OA 
BRANCH   5   6
HETATM    6  C   UNL     1     -11.207   7.733  72.662  1.00  0.00    -0.381 A  
HETATM    7  C   UNL     1     -12.568   7.762  72.357  1.00  0.00    -0.105 A  
HETATM    8  C   UNL     1     -13.091   8.724  71.509  1.00  0.00    -0.358 A  
HETATM    9  C   UNL     1     -12.273   9.693  70.936  1.00  0.00    -0.285 A  
HETATM   10  C   UNL     1     -10.378   8.711  72.111  1.00  0.00    -0.403 A  
HETATM   11  C   UNL     1     -10.913   9.687  71.250  1.00  0.00    -0.399 A  
BRANCH   9  12
HETATM   12  O   UNL     1     -12.730  10.661  70.070  1.00  0.00    -0.278 OA 
BRANCH  12  13
HETATM   13  C   UNL     1     -11.743  11.650  69.734  1.00  0.00    -0.352 C  
BRANCH  13  14
HETATM   14  C   UNL     1     -11.331  11.538  68.274  1.00  0.00    -0.352 C  
BRANCH  14  15
HETATM   15  C   UNL     1      -9.893  11.007  68.124  1.00  0.00    -0.176 C  
BRANCH  15  16
HETATM   16  N   UNL     1      -9.183  11.482  66.924  1.00  0.00    -0.172 NA 
HETATM   17  C   UNL     1      -7.799  10.968  66.805  1.00  0.00    -0.149 C  
HETATM   18  C   UNL     1      -7.714   9.495  66.377  1.00  0.00    -0.097 C  
HETATM   19  O   UNL     1      -8.385   9.284  65.131  1.00  0.00    -0.133 OA 
HETATM   20  C   UNL     1      -9.761   9.673  65.228  1.00  0.00    -0.260 C  
HETATM   21  C   UNL     1      -9.908  11.139  65.677  1.00  0.00    -0.235 C  
ENDBRANCH  15  16
ENDBRANCH  14  15
ENDBRANCH  13  14
ENDBRANCH  12  13
ENDBRANCH   9  12
ENDBRANCH   5   6
ENDBRANCH   4   5
ENDBRANCH   3   4
ENDBRANCH   2   3
TORSDOF 9
ENDMDL
MODEL      180
REMARK 921   NORMALIZED FREE ENERGY PREDICTED BY IDOCK:   -3.32 KCAL/MOL
REMARK 922        TOTAL FREE ENERGY PREDICTED BY IDOCK:   -5.90 KCAL/MOL
REMARK 923 INTER-LIGAND FREE ENERGY PREDICTED BY IDOCK:   -5.03 KCAL/MOL
REMARK 924 INTRA-LIGAND FREE ENERGY PREDICTED BY IDOCK:   -0.87 KCAL/MOL
REMARK 927      BINDING AFFINITY PREDICTED BY RF-SCORE:    0.00 PKD
ROOT
HETATM    1  C   UNL     1     -12.702  13.942  65.439  1.00  0.00    -0.525 C  
HETATM    2  C   UNL     1     -11.970  12.745  66.007  1.00  0.00    -0.491 C  
ENDROOT
BRANCH   2   3
HETATM    3  C   UNL     1     -10.556  13.105  66.476  1.00  0.00    -0.290 C  
BRANCH   3   4
HETATM    4  C   UNL     1      -9.562  12.297  65.662  1.00  0.00    -0.137 C  
BRANCH   4   5
HETATM    5  O   UNL     1     -10.000  10.957  65.411  1.00  0.00    -0.233 OA 
BRANCH   5   6
HETATM    6  C   UNL     1      -9.440  10.040  66.274  1.00  0.00    -0.191 A  
HETATM    7  C   UNL     1      -8.512  10.376  67.261  1.00  0.00    -0.122 A  
HETATM    8  C   UNL     1      -7.961   9.409  68.084  1.00  0.00    -0.091 A  
HETATM    9  C   UNL     1      -8.319   8.070  67.954  1.00  0.00    -0.129 A  
HETATM   10  C   UNL     1      -9.823   8.704  66.145  1.00  0.00    -0.269 A  
HETATM   11  C   UNL     1      -9.262   7.724  66.984  1.00  0.00    -0.176 A  
BRANCH   9  12
HETATM   12  O   UNL     1      -7.791   7.061  68.728  1.00  0.00    -0.114 OA 
BRANCH  12  13
HETATM   13  C   UNL     1      -8.668   5.933  68.884  1.00  0.00    -0.116 C  
BRANCH  13  14
HETATM   14  C   UNL     1      -9.254   5.886  70.288  1.00  0.00    -0.170 C  
BRANCH  14  15
HETATM   15  C   UNL     1      -9.776   7.265  70.736  1.00  0.00    -0.171 C  
BRANCH  15  16
HETATM   16  N   UNL     1     -11.131   7.595  70.261  1.00  0.00    -0.260 NA 
HETATM   17  C   UNL     1     -12.206   7.209  71.202  1.00  0.00    -0.365 C  
HETATM   18  C   UNL     1     -12.320   8.124  72.430  1.00  0.00    -0.294 C  
HETATM   19  O   UNL     1     -12.528   9.485  72.037  1.00  0.00    -0.371 OA 
HETATM   20  C   UNL     1     -11.455   9.938  71.204  1.00  0.00    -0.383 C  
HETATM   21  C   UNL     1     -11.278   9.040  69.964  1.00  0.00    -0.128 C  
ENDBRANCH  15  16
ENDBRANCH  14  15
ENDBRANCH  13  14
ENDBRANCH  12  13
ENDBRANCH   9  12
ENDBRANCH   5   6
ENDBRANCH   4   5
ENDBRANCH   3   4
ENDBRANCH   2   3
TORSDOF 9
ENDMDL
MODEL      181
REMARK 921   NORMALIZED FREE ENERGY PREDICTED BY IDOCK:   -3.30 KCAL/MOL
REMARK 922        TOTAL FREE ENERGY PREDICTED BY IDOCK:   -5.88 KCAL/MOL
REMARK 923 INTER-LIGAND FREE ENERGY PREDICTED BY IDOCK:   -4.90 KCAL/MOL
REMARK 924 INTRA-LIGAND FREE ENERGY PREDICTED BY IDOCK:   -0.97 KCAL/MOL
REMARK 927      BINDING AFFINITY PREDICTED BY RF-SCORE:    0.00 PKD
ROOT
HETATM    1  C   UNL     1      -8.307   8.188  65.366  1.00  0.00    -0.163 C  
HETATM    2  C   UNL     1      -9.489   8.421  66.283  1.00  0.00    -0.292 C  
ENDROOT
BRANCH   2   3
HETATM    3  C   UNL     1      -9.074   8.466  67.757  1.00  0.00    -0.142 C  
BRANCH   3   4
HETATM    4  C   UNL     1      -9.635   9.734  68.375  1.00  0.00    -0.148 C  
BRANCH   4   5
HETATM    5  O   UNL     1      -9.859  10.773  67.416  1.00  0.00    -0.172 OA 
BRANCH   5   6
HETATM    6  C   UNL     1      -9.096  11.896  67.658  1.00  0.00    -0.179 A  
HETATM    7  C   UNL     1      -9.590  13.046  68.274  1.00  0.00    -0.213 A  
HETATM    8  C   UNL     1      -8.786  14.156  68.469  1.00  0.00    -0.173 A  
HETATM    9  C   UNL     1      -7.457  14.157  68.056  1.00  0.00    -0.140 A  
HETATM   10  C   UNL     1      -7.760  11.876  67.257  1.00  0.00    -0.164 A  
HETATM   11  C   UNL     1      -6.945  13.005  67.457  1.00  0.00    -0.155 A  
BRANCH   9  12
HETATM   12  O   UNL     1      -6.614  15.237  68.203  1.00  0.00    -0.105 OA 
BRANCH  12  13
HETATM   13  C   UNL     1      -7.035  16.165  69.216  1.00  0.00    -0.210 C  
BRANCH  13  14
HETATM   14  C   UNL     1      -6.634  17.588  68.854  1.00  0.00    -0.226 C  
BRANCH  14  15
HETATM   15  C   UNL     1      -7.630  18.229  67.869  1.00  0.00    -0.241 C  
BRANCH  15  16
HETATM   16  N   UNL     1      -9.031  17.809  68.047  1.00  0.00    -0.256 NA 
HETATM   17  C   UNL     1      -9.816  18.701  68.930  1.00  0.00    -0.351 C  
HETATM   18  C   UNL     1     -10.210  20.035  68.279  1.00  0.00    -0.392 C  
HETATM   19  O   UNL     1     -10.953  19.819  67.074  1.00  0.00    -0.435 OA 
HETATM   20  C   UNL     1     -10.189  19.042  66.145  1.00  0.00    -0.446 C  
HETATM   21  C   UNL     1      -9.746  17.698  66.753  1.00  0.00    -0.300 C  
ENDBRANCH  15  16
ENDBRANCH  14  15
ENDBRANCH  13  14
ENDBRANCH  12  13
ENDBRANCH   9  12
ENDBRANCH   5   6
ENDBRANCH   4   5
ENDBRANCH   3   4
ENDBRANCH   2   3
TORSDOF 9
ENDMDL
MODEL      182
REMARK 921   NORMALIZED FREE ENERGY PREDICTED BY IDOCK:   -3.28 KCAL/MOL
REMARK 922        TOTAL FREE ENERGY PREDICTED BY IDOCK:   -5.84 KCAL/MOL
REMARK 923 INTER-LIGAND FREE ENERGY PREDICTED BY IDOCK:   -5.31 KCAL/MOL
REMARK 924 INTRA-LIGAND FREE ENERGY PREDICTED BY IDOCK:   -0.52 KCAL/MOL
REMARK 927      BINDING AFFINITY PREDICTED BY RF-SCORE:    0.00 PKD
ROOT
HETATM    1  C   UNL     1     -11.261  11.983  64.843  1.00  0.00    -0.374 C  
HETATM    2  C   UNL     1     -12.372  12.644  65.630  1.00  0.00    -0.390 C  
ENDROOT
BRANCH   2   3
HETATM    3  C   UNL     1     -11.849  13.329  66.897  1.00  0.00    -0.446 C  
BRANCH   3   4
HETATM    4  C   UNL     1     -11.360  12.257  67.854  1.00  0.00    -0.298 C  
BRANCH   4   5
HETATM    5  O   UNL     1     -11.846  12.434  69.189  1.00  0.00    -0.301 OA 
BRANCH   5   6
HETATM    6  C   UNL     1     -11.692  11.307  69.968  1.00  0.00    -0.346 A  
HETATM    7  C   UNL     1     -12.406  11.079  71.145  1.00  0.00    -0.465 A  
HETATM    8  C   UNL     1     -12.192   9.940  71.903  1.00  0.00    -0.333 A  
HETATM    9  C   UNL     1     -11.259   8.985  71.511  1.00  0.00    -0.348 A  
HETATM   10  C   UNL     1     -10.767  10.348  69.552  1.00  0.00    -0.284 A  
HETATM   11  C   UNL     1     -10.554   9.191  70.324  1.00  0.00    -0.261 A  
BRANCH   9  12
HETATM   12  O   UNL     1     -10.987   7.844  72.232  1.00  0.00    -0.254 OA 
BRANCH  12  13
HETATM   13  C   UNL     1      -9.932   8.005  73.194  1.00  0.00    -0.246 C  
BRANCH  13  14
HETATM   14  C   UNL     1      -9.707   6.721  73.979  1.00  0.00    -0.308 C  
BRANCH  14  15
HETATM   15  C   UNL     1     -10.098   5.475  73.163  1.00  0.00    -0.180 C  
BRANCH  15  16
HETATM   16  N   UNL     1      -9.651   4.195  73.739  1.00  0.00    -0.105 NA 
HETATM   17  C   UNL     1      -9.601   3.084  72.762  1.00  0.00    -0.111 C  
HETATM   18  C   UNL     1      -8.414   3.160  71.790  1.00  0.00    -0.068 C  
HETATM   19  O   UNL     1      -7.171   3.196  72.499  1.00  0.00    -0.041 OA 
HETATM   20  C   UNL     1      -7.132   4.320  73.387  1.00  0.00    -0.065 C  
HETATM   21  C   UNL     1      -8.316   4.309  74.373  1.00  0.00    -0.090 C  
ENDBRANCH  15  16
ENDBRANCH  14  15
ENDBRANCH  13  14
ENDBRANCH  12  13
ENDBRANCH   9  12
ENDBRANCH   5   6
ENDBRANCH   4   5
ENDBRANCH   3   4
ENDBRANCH   2   3
TORSDOF 9
ENDMDL
MODEL      183
REMARK 921   NORMALIZED FREE ENERGY PREDICTED BY IDOCK:   -3.26 KCAL/MOL
REMARK 922        TOTAL FREE ENERGY PREDICTED BY IDOCK:   -5.81 KCAL/MOL
REMARK 923 INTER-LIGAND FREE ENERGY PREDICTED BY IDOCK:   -4.92 KCAL/MOL
REMARK 924 INTRA-LIGAND FREE ENERGY PREDICTED BY IDOCK:   -0.89 KCAL/MOL
REMARK 927      BINDING AFFINITY PREDICTED BY RF-SCORE:    0.00 PKD
ROOT
HETATM    1  C   UNL     1      -7.912   5.872  63.682  1.00  0.00    -0.114 C  
HETATM    2  C   UNL     1      -7.715   4.964  64.877  1.00  0.00    -0.083 C  
ENDROOT
BRANCH   2   3
HETATM    3  C   UNL     1      -8.818   3.905  64.981  1.00  0.00    -0.126 C  
BRANCH   3   4
HETATM    4  C   UNL     1      -9.634   4.185  66.230  1.00  0.00    -0.199 C  
BRANCH   4   5
HETATM    5  O   UNL     1     -10.589   5.236  66.051  1.00  0.00    -0.210 OA 
BRANCH   5   6
HETATM    6  C   UNL     1     -10.623   6.115  67.113  1.00  0.00    -0.305 A  
HETATM    7  C   UNL     1     -10.388   7.484  66.989  1.00  0.00    -0.395 A  
HETATM    8  C   UNL     1     -10.409   8.317  68.095  1.00  0.00    -0.253 A  
HETATM    9  C   UNL     1     -10.669   7.812  69.365  1.00  0.00    -0.171 A  
HETATM   10  C   UNL     1     -10.905   5.597  68.378  1.00  0.00    -0.161 A  
HETATM   11  C   UNL     1     -10.927   6.447  69.500  1.00  0.00    -0.421 A  
BRANCH   9  12
HETATM   12  O   UNL     1     -10.683   8.586  70.505  1.00  0.00    -0.211 OA 
BRANCH  12  13
HETATM   13  C   UNL     1     -11.976   8.680  71.124  1.00  0.00    -0.279 C  
BRANCH  13  14
HETATM   14  C   UNL     1     -11.923   8.221  72.574  1.00  0.00    -0.420 C  
BRANCH  14  15
HETATM   15  C   UNL     1     -10.516   7.735  72.969  1.00  0.00    -0.369 C  
BRANCH  15  16
HETATM   16  N   UNL     1     -10.496   6.641  73.956  1.00  0.00    -0.340 NA 
HETATM   17  C   UNL     1     -10.977   5.347  73.424  1.00  0.00    -0.297 C  
HETATM   18  C   UNL     1      -9.977   4.642  72.495  1.00  0.00    -0.168 C  
HETATM   19  O   UNL     1      -8.727   4.424  73.159  1.00  0.00    -0.107 OA 
HETATM   20  C   UNL     1      -8.170   5.667  73.603  1.00  0.00    -0.112 C  
HETATM   21  C   UNL     1      -9.142   6.430  74.523  1.00  0.00    -0.176 C  
ENDBRANCH  15  16
ENDBRANCH  14  15
ENDBRANCH  13  14
ENDBRANCH  12  13
ENDBRANCH   9  12
ENDBRANCH   5   6
ENDBRANCH   4   5
ENDBRANCH   3   4
ENDBRANCH   2   3
TORSDOF 9
ENDMDL
MODEL      184
REMARK 921   NORMALIZED FREE ENERGY PREDICTED BY IDOCK:   -3.25 KCAL/MOL
REMARK 922        TOTAL FREE ENERGY PREDICTED BY IDOCK:   -5.80 KCAL/MOL
REMARK 923 INTER-LIGAND FREE ENERGY PREDICTED BY IDOCK:   -4.72 KCAL/MOL
REMARK 924 INTRA-LIGAND FREE ENERGY PREDICTED BY IDOCK:   -1.08 KCAL/MOL
REMARK 927      BINDING AFFINITY PREDICTED BY RF-SCORE:    0.00 PKD
ROOT
HETATM    1  C   UNL     1      -6.908   9.005  65.107  1.00  0.00    -0.076 C  
HETATM    2  C   UNL     1      -6.602   7.601  65.584  1.00  0.00    -0.045 C  
ENDROOT
BRANCH   2   3
HETATM    3  C   UNL     1      -7.509   6.559  64.921  1.00  0.00    -0.086 C  
BRANCH   3   4
HETATM    4  C   UNL     1      -8.103   5.681  66.007  1.00  0.00    -0.109 C  
BRANCH   4   5
HETATM    5  O   UNL     1      -9.456   6.023  66.328  1.00  0.00    -0.159 OA 
BRANCH   5   6
HETATM    6  C   UNL     1      -9.545   7.069  67.222  1.00  0.00    -0.141 A  
HETATM    7  C   UNL     1      -8.950   7.056  68.485  1.00  0.00    -0.122 A  
HETATM    8  C   UNL     1      -9.094   8.124  69.354  1.00  0.00    -0.148 A  
HETATM    9  C   UNL     1      -9.834   9.245  68.993  1.00  0.00    -0.166 A  
HETATM   10  C   UNL     1     -10.274   8.195  66.839  1.00  0.00    -0.387 A  
HETATM   11  C   UNL     1     -10.416   9.279  67.724  1.00  0.00    -0.313 A  
BRANCH   9  12
HETATM   12  O   UNL     1     -10.030  10.329  69.821  1.00  0.00    -0.230 OA 
BRANCH  12  13
HETATM   13  C   UNL     1     -11.377  10.449  70.306  1.00  0.00    -0.328 C  
BRANCH  13  14
HETATM   14  C   UNL     1     -11.896  11.869  70.134  1.00  0.00    -0.390 C  
BRANCH  14  15
HETATM   15  C   UNL     1     -12.012  12.259  68.648  1.00  0.00    -0.227 C  
BRANCH  15  16
HETATM   16  N   UNL     1     -11.700  13.669  68.355  1.00  0.00    -0.338 NA 
HETATM   17  C   UNL     1     -10.302  14.048  68.662  1.00  0.00    -0.238 C  
HETATM   18  C   UNL     1      -9.274  13.520  67.650  1.00  0.00    -0.214 C  
HETATM   19  O   UNL     1      -9.585  13.965  66.324  1.00  0.00    -0.283 OA 
HETATM   20  C   UNL     1     -10.896  13.531  65.943  1.00  0.00    -0.275 C  
HETATM   21  C   UNL     1     -11.968  14.014  66.939  1.00  0.00    -0.447 C  
ENDBRANCH  15  16
ENDBRANCH  14  15
ENDBRANCH  13  14
ENDBRANCH  12  13
ENDBRANCH   9  12
ENDBRANCH   5   6
ENDBRANCH   4   5
ENDBRANCH   3   4
ENDBRANCH   2   3
TORSDOF 9
ENDMDL
MODEL      185
REMARK 921   NORMALIZED FREE ENERGY PREDICTED BY IDOCK:   -3.24 KCAL/MOL
REMARK 922        TOTAL FREE ENERGY PREDICTED BY IDOCK:   -5.78 KCAL/MOL
REMARK 923 INTER-LIGAND FREE ENERGY PREDICTED BY IDOCK:   -4.93 KCAL/MOL
REMARK 924 INTRA-LIGAND FREE ENERGY PREDICTED BY IDOCK:   -0.85 KCAL/MOL
REMARK 927      BINDING AFFINITY PREDICTED BY RF-SCORE:    0.00 PKD
ROOT
HETATM    1  C   UNL     1      -9.928  11.031  64.152  1.00  0.00    -0.385 C  
HETATM    2  C   UNL     1     -11.249  11.748  63.974  1.00  0.00    -0.461 C  
ENDROOT
BRANCH   2   3
HETATM    3  C   UNL     1     -11.281  13.088  64.716  1.00  0.00    -0.344 C  
BRANCH   3   4
HETATM    4  C   UNL     1     -10.838  12.852  66.149  1.00  0.00    -0.279 C  
BRANCH   4   5
HETATM    5  O   UNL     1     -11.794  12.114  66.917  1.00  0.00    -0.555 OA 
BRANCH   5   6
HETATM    6  C   UNL     1     -11.217  11.400  67.945  1.00  0.00    -0.288 A  
HETATM    7  C   UNL     1     -11.884  11.071  69.126  1.00  0.00    -0.407 A  
HETATM    8  C   UNL     1     -11.246  10.374  70.138  1.00  0.00    -0.393 A  
HETATM    9  C   UNL     1      -9.919   9.977  70.007  1.00  0.00    -0.222 A  
HETATM   10  C   UNL     1      -9.891  10.991  67.791  1.00  0.00    -0.190 A  
HETATM   11  C   UNL     1      -9.247  10.281  68.822  1.00  0.00    -0.166 A  
BRANCH   9  12
HETATM   12  O   UNL     1      -9.225   9.300  70.985  1.00  0.00    -0.246 OA 
BRANCH  12  13
HETATM   13  C   UNL     1      -8.494   8.165  70.495  1.00  0.00    -0.125 C  
BRANCH  13  14
HETATM   14  C   UNL     1      -9.432   7.017  70.151  1.00  0.00    -0.162 C  
BRANCH  14  15
HETATM   15  C   UNL     1      -8.862   6.131  69.027  1.00  0.00    -0.123 C  
BRANCH  15  16
HETATM   16  N   UNL     1      -9.446   4.780  68.952  1.00  0.00    -0.135 NA 
HETATM   17  C   UNL     1      -9.656   4.295  67.569  1.00  0.00    -0.173 C  
HETATM   18  C   UNL     1      -8.364   3.870  66.853  1.00  0.00    -0.100 C  
HETATM   19  O   UNL     1      -7.680   2.852  67.593  1.00  0.00    -0.064 OA 
HETATM   20  C   UNL     1      -7.364   3.316  68.911  1.00  0.00    -0.049 C  
HETATM   21  C   UNL     1      -8.622   3.778  69.670  1.00  0.00    -0.069 C  
ENDBRANCH  15  16
ENDBRANCH  14  15
ENDBRANCH  13  14
ENDBRANCH  12  13
ENDBRANCH   9  12
ENDBRANCH   5   6
ENDBRANCH   4   5
ENDBRANCH   3   4
ENDBRANCH   2   3
TORSDOF 9
ENDMDL
MODEL      186
REMARK 921   NORMALIZED FREE ENERGY PREDICTED BY IDOCK:   -3.20 KCAL/MOL
REMARK 922        TOTAL FREE ENERGY PREDICTED BY IDOCK:   -5.72 KCAL/MOL
REMARK 923 INTER-LIGAND FREE ENERGY PREDICTED BY IDOCK:   -4.82 KCAL/MOL
REMARK 924 INTRA-LIGAND FREE ENERGY PREDICTED BY IDOCK:   -0.89 KCAL/MOL
REMARK 927      BINDING AFFINITY PREDICTED BY RF-SCORE:    0.00 PKD
ROOT
HETATM    1  C   UNL     1      -7.053  12.669  67.367  1.00  0.00    -0.138 C  
HETATM    2  C   UNL     1      -7.049  14.173  67.537  1.00  0.00    -0.184 C  
ENDROOT
BRANCH   2   3
HETATM    3  C   UNL     1      -8.417  14.705  67.977  1.00  0.00    -0.154 C  
BRANCH   3   4
HETATM    4  C   UNL     1      -9.493  13.923  67.245  1.00  0.00    -0.239 C  
BRANCH   4   5
HETATM    5  O   UNL     1     -10.798  14.105  67.806  1.00  0.00    -0.248 OA 
BRANCH   5   6
HETATM    6  C   UNL     1     -11.215  13.022  68.550  1.00  0.00    -0.274 A  
HETATM    7  C   UNL     1     -11.913  13.136  69.753  1.00  0.00    -0.382 A  
HETATM    8  C   UNL     1     -12.286  12.013  70.473  1.00  0.00    -0.414 A  
HETATM    9  C   UNL     1     -11.977  10.736  70.016  1.00  0.00    -0.347 A  
HETATM   10  C   UNL     1     -10.916  11.747  68.069  1.00  0.00    -0.274 A  
HETATM   11  C   UNL     1     -11.298  10.608  68.803  1.00  0.00    -0.339 A  
BRANCH   9  12
HETATM   12  O   UNL     1     -12.302   9.583  70.697  1.00  0.00    -0.210 OA 
BRANCH  12  13
HETATM   13  C   UNL     1     -11.440   9.309  71.814  1.00  0.00    -0.378 C  
BRANCH  13  14
HETATM   14  C   UNL     1     -11.547   7.853  72.243  1.00  0.00    -0.406 C  
BRANCH  14  15
HETATM   15  C   UNL     1     -10.422   6.994  71.635  1.00  0.00    -0.199 C  
BRANCH  15  16
HETATM   16  N   UNL     1      -9.174   7.724  71.353  1.00  0.00    -0.133 NA 
HETATM   17  C   UNL     1      -8.075   7.418  72.297  1.00  0.00    -0.101 C  
HETATM   18  C   UNL     1      -7.424   6.044  72.074  1.00  0.00    -0.095 C  
HETATM   19  O   UNL     1      -6.921   5.926  70.739  1.00  0.00    -0.059 OA 
HETATM   20  C   UNL     1      -7.975   6.114  69.786  1.00  0.00    -0.110 C  
HETATM   21  C   UNL     1      -8.681   7.470  69.978  1.00  0.00    -0.140 C  
ENDBRANCH  15  16
ENDBRANCH  14  15
ENDBRANCH  13  14
ENDBRANCH  12  13
ENDBRANCH   9  12
ENDBRANCH   5   6
ENDBRANCH   4   5
ENDBRANCH   3   4
ENDBRANCH   2   3
TORSDOF 9
ENDMDL
MODEL      187
REMARK 921   NORMALIZED FREE ENERGY PREDICTED BY IDOCK:   -3.17 KCAL/MOL
REMARK 922        TOTAL FREE ENERGY PREDICTED BY IDOCK:   -5.68 KCAL/MOL
REMARK 923 INTER-LIGAND FREE ENERGY PREDICTED BY IDOCK:   -5.41 KCAL/MOL
REMARK 924 INTRA-LIGAND FREE ENERGY PREDICTED BY IDOCK:   -0.27 KCAL/MOL
REMARK 927      BINDING AFFINITY PREDICTED BY RF-SCORE:    0.00 PKD
ROOT
HETATM    1  C   UNL     1      -6.038   7.661  68.767  1.00  0.00    -0.031 C  
HETATM    2  C   UNL     1      -6.358   7.674  67.287  1.00  0.00    -0.054 C  
ENDROOT
BRANCH   2   3
HETATM    3  C   UNL     1      -7.535   8.599  66.962  1.00  0.00    -0.084 C  
BRANCH   3   4
HETATM    4  C   UNL     1      -8.742   7.740  66.630  1.00  0.00    -0.140 C  
BRANCH   4   5
HETATM    5  O   UNL     1      -9.578   7.486  67.764  1.00  0.00    -0.139 OA 
BRANCH   5   6
HETATM    6  C   UNL     1     -10.106   8.638  68.307  1.00  0.00    -0.192 A  
HETATM    7  C   UNL     1     -10.886   9.544  67.588  1.00  0.00    -0.253 A  
HETATM    8  C   UNL     1     -11.369  10.700  68.178  1.00  0.00    -0.354 A  
HETATM    9  C   UNL     1     -11.092  10.992  69.510  1.00  0.00    -0.263 A  
HETATM   10  C   UNL     1      -9.837   8.908  69.650  1.00  0.00    -0.182 A  
HETATM   11  C   UNL     1     -10.330  10.084  70.247  1.00  0.00    -0.301 A  
BRANCH   9  12
HETATM   12  O   UNL     1     -11.526  12.134  70.146  1.00  0.00    -0.170 OA 
BRANCH  12  13
HETATM   13  C   UNL     1     -12.034  13.136  69.251  1.00  0.00    -0.292 C  
BRANCH  13  14
HETATM   14  C   UNL     1     -10.955  13.606  68.286  1.00  0.00    -0.275 C  
BRANCH  14  15
HETATM   15  C   UNL     1     -11.553  14.365  67.086  1.00  0.00    -0.386 C  
BRANCH  15  16
HETATM   16  N   UNL     1     -10.630  14.550  65.952  1.00  0.00    -0.297 NA 
HETATM   17  C   UNL     1     -11.276  14.421  64.627  1.00  0.00    -0.360 C  
HETATM   18  C   UNL     1     -12.139  15.630  64.232  1.00  0.00    -0.063 C  
HETATM   19  O   UNL     1     -11.369  16.836  64.247  1.00  0.00    -1.170 OA 
HETATM   20  C   UNL     1     -10.804  17.057  65.545  1.00  0.00    -0.069 C  
HETATM   21  C   UNL     1      -9.945  15.864  66.003  1.00  0.00    -0.334 C  
ENDBRANCH  15  16
ENDBRANCH  14  15
ENDBRANCH  13  14
ENDBRANCH  12  13
ENDBRANCH   9  12
ENDBRANCH   5   6
ENDBRANCH   4   5
ENDBRANCH   3   4
ENDBRANCH   2   3
TORSDOF 9
ENDMDL
MODEL      188
REMARK 921   NORMALIZED FREE ENERGY PREDICTED BY IDOCK:   -3.15 KCAL/MOL
REMARK 922        TOTAL FREE ENERGY PREDICTED BY IDOCK:   -5.65 KCAL/MOL
REMARK 923 INTER-LIGAND FREE ENERGY PREDICTED BY IDOCK:   -4.91 KCAL/MOL
REMARK 924 INTRA-LIGAND FREE ENERGY PREDICTED BY IDOCK:   -0.74 KCAL/MOL
REMARK 927      BINDING AFFINITY PREDICTED BY RF-SCORE:    0.00 PKD
ROOT
HETATM    1  C   UNL     1      -7.890   4.352  70.595  1.00  0.00    -0.056 C  
HETATM    2  C   UNL     1      -8.818   4.306  71.791  1.00  0.00    -0.143 C  
ENDROOT
BRANCH   2   3
HETATM    3  C   UNL     1      -8.076   4.577  73.104  1.00  0.00    -0.096 C  
BRANCH   3   4
HETATM    4  C   UNL     1      -9.097   4.962  74.160  1.00  0.00    -0.111 C  
BRANCH   4   5
HETATM    5  O   UNL     1      -9.001   6.334  74.558  1.00  0.00    -0.135 OA 
BRANCH   5   6
HETATM    6  C   UNL     1      -9.403   7.207  73.570  1.00  0.00    -0.191 A  
HETATM    7  C   UNL     1     -10.730   7.358  73.167  1.00  0.00    -0.436 A  
HETATM    8  C   UNL     1     -11.075   8.232  72.150  1.00  0.00    -0.397 A  
HETATM    9  C   UNL     1     -10.105   8.990  71.499  1.00  0.00    -0.339 A  
HETATM   10  C   UNL     1      -8.423   7.975  72.940  1.00  0.00    -0.244 A  
HETATM   11  C   UNL     1      -8.776   8.864  71.907  1.00  0.00    -0.086 A  
BRANCH   9  12
HETATM   12  O   UNL     1     -10.383   9.859  70.468  1.00  0.00    -0.286 OA 
BRANCH  12  13
HETATM   13  C   UNL     1      -9.291  10.034  69.550  1.00  0.00    -0.229 C  
BRANCH  13  14
HETATM   14  C   UNL     1      -9.753  10.731  68.278  1.00  0.00    -0.172 C  
BRANCH  14  15
HETATM   15  C   UNL     1      -9.579  12.259  68.368  1.00  0.00    -0.183 C  
BRANCH  15  16
HETATM   16  N   UNL     1     -10.828  13.009  68.586  1.00  0.00    -0.254 NA 
HETATM   17  C   UNL     1     -10.710  14.459  68.313  1.00  0.00    -0.242 C  
HETATM   18  C   UNL     1     -10.659  14.811  66.818  1.00  0.00    -0.302 C  
HETATM   19  O   UNL     1     -11.814  14.312  66.134  1.00  0.00    -0.378 OA 
HETATM   20  C   UNL     1     -11.913  12.891  66.286  1.00  0.00    -0.408 C  
HETATM   21  C   UNL     1     -11.945  12.477  67.770  1.00  0.00    -0.223 C  
ENDBRANCH  15  16
ENDBRANCH  14  15
ENDBRANCH  13  14
ENDBRANCH  12  13
ENDBRANCH   9  12
ENDBRANCH   5   6
ENDBRANCH   4   5
ENDBRANCH   3   4
ENDBRANCH   2   3
TORSDOF 9
ENDMDL
MODEL      189
REMARK 921   NORMALIZED FREE ENERGY PREDICTED BY IDOCK:   -3.14 KCAL/MOL
REMARK 922        TOTAL FREE ENERGY PREDICTED BY IDOCK:   -5.63 KCAL/MOL
REMARK 923 INTER-LIGAND FREE ENERGY PREDICTED BY IDOCK:   -5.04 KCAL/MOL
REMARK 924 INTRA-LIGAND FREE ENERGY PREDICTED BY IDOCK:   -0.60 KCAL/MOL
REMARK 927      BINDING AFFINITY PREDICTED BY RF-SCORE:    0.00 PKD
ROOT
HETATM    1  C   UNL     1     -12.850  13.384  65.008  1.00  0.00    -0.344 C  
HETATM    2  C   UNL     1     -12.147  14.575  64.393  1.00  0.00    -0.492 C  
ENDROOT
BRANCH   2   3
HETATM    3  C   UNL     1     -10.703  14.708  64.888  1.00  0.00    -0.447 C  
BRANCH   3   4
HETATM    4  C   UNL     1     -10.579  16.008  65.662  1.00  0.00    -0.377 C  
BRANCH   4   5
HETATM    5  O   UNL     1     -10.054  15.827  66.981  1.00  0.00    -0.251 OA 
BRANCH   5   6
HETATM    6  C   UNL     1     -10.573  14.719  67.616  1.00  0.00    -0.262 A  
HETATM    7  C   UNL     1     -11.823  14.700  68.236  1.00  0.00    -0.333 A  
HETATM    8  C   UNL     1     -12.285  13.566  68.883  1.00  0.00    -0.194 A  
HETATM    9  C   UNL     1     -11.515  12.408  68.931  1.00  0.00    -0.307 A  
HETATM   10  C   UNL     1      -9.799  13.558  67.640  1.00  0.00    -0.228 A  
HETATM   11  C   UNL     1     -10.272  12.407  68.297  1.00  0.00    -0.230 A  
BRANCH   9  12
HETATM   12  O   UNL     1     -11.910  11.257  69.576  1.00  0.00    -0.297 OA 
BRANCH  12  13
HETATM   13  C   UNL     1     -10.824  10.374  69.901  1.00  0.00    -0.298 C  
BRANCH  13  14
HETATM   14  C   UNL     1     -11.019   9.008  69.261  1.00  0.00    -0.052 C  
BRANCH  14  15
HETATM   15  C   UNL     1      -9.763   8.126  69.400  1.00  0.00    -0.170 C  
BRANCH  15  16
HETATM   16  N   UNL     1      -9.883   7.033  70.381  1.00  0.00    -0.179 NA 
HETATM   17  C   UNL     1      -9.006   5.876  70.097  1.00  0.00    -0.142 C  
HETATM   18  C   UNL     1      -7.524   6.119  70.421  1.00  0.00    -0.090 C  
HETATM   19  O   UNL     1      -7.354   6.492  71.793  1.00  0.00    -0.085 OA 
HETATM   20  C   UNL     1      -8.107   7.673  72.090  1.00  0.00    -0.106 C  
HETATM   21  C   UNL     1      -9.602   7.494  71.762  1.00  0.00    -0.152 C  
ENDBRANCH  15  16
ENDBRANCH  14  15
ENDBRANCH  13  14
ENDBRANCH  12  13
ENDBRANCH   9  12
ENDBRANCH   5   6
ENDBRANCH   4   5
ENDBRANCH   3   4
ENDBRANCH   2   3
TORSDOF 9
ENDMDL
MODEL      190
REMARK 921   NORMALIZED FREE ENERGY PREDICTED BY IDOCK:   -3.12 KCAL/MOL
REMARK 922        TOTAL FREE ENERGY PREDICTED BY IDOCK:   -5.61 KCAL/MOL
REMARK 923 INTER-LIGAND FREE ENERGY PREDICTED BY IDOCK:   -4.06 KCAL/MOL
REMARK 924 INTRA-LIGAND FREE ENERGY PREDICTED BY IDOCK:   -1.55 KCAL/MOL
REMARK 927      BINDING AFFINITY PREDICTED BY RF-SCORE:    0.00 PKD
ROOT
HETATM    1  C   UNL     1      -9.377   9.246  70.615  1.00  0.00    -0.329 C  
HETATM    2  C   UNL     1     -10.878   9.340  70.790  1.00  0.00    -0.349 C  
ENDROOT
BRANCH   2   3
HETATM    3  C   UNL     1     -11.550   7.964  70.736  1.00  0.00    -0.258 C  
BRANCH   3   4
HETATM    4  C   UNL     1     -12.137   7.663  72.103  1.00  0.00    -0.286 C  
BRANCH   4   5
HETATM    5  O   UNL     1     -11.143   7.559  73.129  1.00  0.00    -0.383 OA 
BRANCH   5   6
HETATM    6  C   UNL     1     -10.508   6.335  73.135  1.00  0.00    -0.239 A  
HETATM    7  C   UNL     1      -9.129   6.182  72.988  1.00  0.00    -0.130 A  
HETATM    8  C   UNL     1      -8.546   4.926  72.976  1.00  0.00    -0.110 A  
HETATM    9  C   UNL     1      -9.319   3.777  73.113  1.00  0.00    -0.102 A  
HETATM   10  C   UNL     1     -11.294   5.193  73.294  1.00  0.00    -0.361 A  
HETATM   11  C   UNL     1     -10.698   3.918  73.282  1.00  0.00    -0.287 A  
BRANCH   9  12
HETATM   12  O   UNL     1      -8.800   2.502  73.088  1.00  0.00    -0.070 OA 
BRANCH  12  13
HETATM   13  C   UNL     1      -8.099   2.187  71.874  1.00  0.00    -0.048 C  
BRANCH  13  14
HETATM   14  C   UNL     1      -9.070   1.941  70.729  1.00  0.00    -0.156 C  
BRANCH  14  15
HETATM   15  C   UNL     1      -8.617   2.643  69.434  1.00  0.00    -0.068 C  
BRANCH  15  16
HETATM   16  N   UNL     1      -9.648   3.474  68.790  1.00  0.00    -0.130 NA 
HETATM   17  C   UNL     1      -9.920   4.746  69.497  1.00  0.00    -0.216 C  
HETATM   18  C   UNL     1      -8.826   5.809  69.312  1.00  0.00    -0.116 C  
HETATM   19  O   UNL     1      -8.618   6.096  67.925  1.00  0.00    -0.115 OA 
HETATM   20  C   UNL     1      -8.252   4.906  67.215  1.00  0.00    -0.106 C  
HETATM   21  C   UNL     1      -9.304   3.794  67.384  1.00  0.00    -0.198 C  
ENDBRANCH  15  16
ENDBRANCH  14  15
ENDBRANCH  13  14
ENDBRANCH  12  13
ENDBRANCH   9  12
ENDBRANCH   5   6
ENDBRANCH   4   5
ENDBRANCH   3   4
ENDBRANCH   2   3
TORSDOF 9
ENDMDL
MODEL      191
REMARK 921   NORMALIZED FREE ENERGY PREDICTED BY IDOCK:   -3.11 KCAL/MOL
REMARK 922        TOTAL FREE ENERGY PREDICTED BY IDOCK:   -5.59 KCAL/MOL
REMARK 923 INTER-LIGAND FREE ENERGY PREDICTED BY IDOCK:   -5.05 KCAL/MOL
REMARK 924 INTRA-LIGAND FREE ENERGY PREDICTED BY IDOCK:   -0.54 KCAL/MOL
REMARK 927      BINDING AFFINITY PREDICTED BY RF-SCORE:    0.00 PKD
ROOT
HETATM    1  C   UNL     1     -10.222   7.592  73.337  1.00  0.00    -0.375 C  
HETATM    2  C   UNL     1      -9.402   8.226  72.233  1.00  0.00    -0.323 C  
ENDROOT
BRANCH   2   3
HETATM    3  C   UNL     1      -9.973   7.919  70.844  1.00  0.00    -0.196 C  
BRANCH   3   4
HETATM    4  C   UNL     1     -10.536   9.203  70.264  1.00  0.00    -0.223 C  
BRANCH   4   5
HETATM    5  O   UNL     1     -10.566   9.206  68.833  1.00  0.00    -0.222 OA 
BRANCH   5   6
HETATM    6  C   UNL     1     -10.412  10.467  68.297  1.00  0.00    -0.191 A  
HETATM    7  C   UNL     1     -11.358  11.076  67.473  1.00  0.00    -0.332 A  
HETATM    8  C   UNL     1     -11.140  12.335  66.940  1.00  0.00    -0.341 A  
HETATM    9  C   UNL     1      -9.967  13.033  67.214  1.00  0.00    -0.232 A  
HETATM   10  C   UNL     1      -9.240  11.163  68.597  1.00  0.00    -0.173 A  
HETATM   11  C   UNL     1      -9.021  12.444  68.055  1.00  0.00    -0.194 A  
BRANCH   9  12
HETATM   12  O   UNL     1      -9.684  14.279  66.698  1.00  0.00    -0.266 OA 
BRANCH  12  13
HETATM   13  C   UNL     1      -8.905  15.106  67.579  1.00  0.00    -0.182 C  
BRANCH  13  14
HETATM   14  C   UNL     1      -7.690  15.676  66.862  1.00  0.00    -0.238 C  
BRANCH  14  15
HETATM   15  C   UNL     1      -7.418  17.136  67.272  1.00  0.00    -0.160 C  
BRANCH  15  16
HETATM   16  N   UNL     1      -8.285  18.131  66.617  1.00  0.00    -0.253 NA 
HETATM   17  C   UNL     1      -9.060  18.965  67.563  1.00  0.00    -0.280 C  
HETATM   18  C   UNL     1      -8.225  20.037  68.280  1.00  0.00    -0.151 C  
HETATM   19  O   UNL     1      -7.580  20.900  67.337  1.00  0.00    -0.345 OA 
HETATM   20  C   UNL     1      -6.736  20.145  66.460  1.00  0.00    -0.221 C  
HETATM   21  C   UNL     1      -7.517  19.037  65.729  1.00  0.00    -0.152 C  
ENDBRANCH  15  16
ENDBRANCH  14  15
ENDBRANCH  13  14
ENDBRANCH  12  13
ENDBRANCH   9  12
ENDBRANCH   5   6
ENDBRANCH   4   5
ENDBRANCH   3   4
ENDBRANCH   2   3
TORSDOF 9
ENDMDL
MODEL      192
REMARK 921   NORMALIZED FREE ENERGY PREDICTED BY IDOCK:   -3.10 KCAL/MOL
REMARK 922        TOTAL FREE ENERGY PREDICTED BY IDOCK:   -5.57 KCAL/MOL
REMARK 923 INTER-LIGAND FREE ENERGY PREDICTED BY IDOCK:   -4.64 KCAL/MOL
REMARK 924 INTRA-LIGAND FREE ENERGY PREDICTED BY IDOCK:   -0.93 KCAL/MOL
REMARK 927      BINDING AFFINITY PREDICTED BY RF-SCORE:    0.00 PKD
ROOT
HETATM    1  C   UNL     1      -7.269  10.279  65.524  1.00  0.00    -0.149 C  
HETATM    2  C   UNL     1      -7.537   9.919  64.078  1.00  0.00    -0.138 C  
ENDROOT
BRANCH   2   3
HETATM    3  C   UNL     1      -6.948   8.554  63.707  1.00  0.00    -0.087 C  
BRANCH   3   4
HETATM    4  C   UNL     1      -7.281   7.571  64.815  1.00  0.00    -0.068 C  
BRANCH   4   5
HETATM    5  O   UNL     1      -8.489   6.842  64.572  1.00  0.00     0.015 OA 
BRANCH   5   6
HETATM    6  C   UNL     1      -9.185   6.561  65.729  1.00  0.00     0.087 A  
HETATM    7  C   UNL     1      -9.546   5.271  66.119  1.00  0.00    -0.176 A  
HETATM    8  C   UNL     1     -10.269   5.049  67.278  1.00  0.00    -0.219 A  
HETATM    9  C   UNL     1     -10.656   6.109  68.093  1.00  0.00    -0.264 A  
HETATM   10  C   UNL     1      -9.550   7.632  66.546  1.00  0.00    -0.254 A  
HETATM   11  C   UNL     1     -10.284   7.403  67.725  1.00  0.00    -0.250 A  
BRANCH   9  12
HETATM   12  O   UNL     1     -11.393   5.954  69.246  1.00  0.00    -0.325 OA 
BRANCH  12  13
HETATM   13  C   UNL     1     -10.594   5.884  70.438  1.00  0.00    -0.286 C  
BRANCH  13  14
HETATM   14  C   UNL     1     -11.421   6.214  71.672  1.00  0.00    -0.331 C  
BRANCH  14  15
HETATM   15  C   UNL     1     -12.447   7.329  71.392  1.00  0.00    -0.383 C  
BRANCH  15  16
HETATM   16  N   UNL     1     -12.263   8.551  72.194  1.00  0.00    -0.358 NA 
HETATM   17  C   UNL     1     -10.979   9.243  71.943  1.00  0.00    -0.214 C  
HETATM   18  C   UNL     1     -10.930  10.007  70.611  1.00  0.00    -0.322 C  
HETATM   19  O   UNL     1     -11.987  10.969  70.532  1.00  0.00    -0.326 OA 
HETATM   20  C   UNL     1     -13.261  10.328  70.667  1.00  0.00    -0.141 C  
HETATM   21  C   UNL     1     -13.359   9.525  71.979  1.00  0.00    -0.452 C  
ENDBRANCH  15  16
ENDBRANCH  14  15
ENDBRANCH  13  14
ENDBRANCH  12  13
ENDBRANCH   9  12
ENDBRANCH   5   6
ENDBRANCH   4   5
ENDBRANCH   3   4
ENDBRANCH   2   3
TORSDOF 9
ENDMDL
MODEL      193
REMARK 921   NORMALIZED FREE ENERGY PREDICTED BY IDOCK:   -3.10 KCAL/MOL
REMARK 922        TOTAL FREE ENERGY PREDICTED BY IDOCK:   -5.56 KCAL/MOL
REMARK 923 INTER-LIGAND FREE ENERGY PREDICTED BY IDOCK:   -5.00 KCAL/MOL
REMARK 924 INTRA-LIGAND FREE ENERGY PREDICTED BY IDOCK:   -0.57 KCAL/MOL
REMARK 927      BINDING AFFINITY PREDICTED BY RF-SCORE:    0.00 PKD
ROOT
HETATM    1  C   UNL     1      -9.160   2.782  68.035  1.00  0.00    -0.228 C  
HETATM    2  C   UNL     1      -9.108   1.959  66.765  1.00  0.00    -0.077 C  
ENDROOT
BRANCH   2   3
HETATM    3  C   UNL     1      -9.139   2.838  65.510  1.00  0.00    -0.137 C  
BRANCH   3   4
HETATM    4  C   UNL     1      -9.414   4.269  65.933  1.00  0.00    -0.176 C  
BRANCH   4   5
HETATM    5  O   UNL     1      -8.317   5.151  65.674  1.00  0.00    -0.115 OA 
BRANCH   5   6
HETATM    6  C   UNL     1      -8.651   6.480  65.828  1.00  0.00    -0.144 A  
HETATM    7  C   UNL     1      -9.556   6.942  66.784  1.00  0.00    -0.215 A  
HETATM    8  C   UNL     1      -9.875   8.286  66.877  1.00  0.00    -0.316 A  
HETATM    9  C   UNL     1      -9.300   9.218  66.019  1.00  0.00    -0.223 A  
HETATM   10  C   UNL     1      -8.051   7.406  64.973  1.00  0.00    -0.122 A  
HETATM   11  C   UNL     1      -8.377   8.772  65.071  1.00  0.00    -0.180 A  
BRANCH   9  12
HETATM   12  O   UNL     1      -9.593  10.564  66.048  1.00  0.00    -0.177 OA 
BRANCH  12  13
HETATM   13  C   UNL     1     -10.989  10.856  65.877  1.00  0.00     0.016 C  
BRANCH  13  14
HETATM   14  C   UNL     1     -11.493  11.781  66.975  1.00  0.00    -0.368 C  
BRANCH  14  15
HETATM   15  C   UNL     1     -11.558  13.246  66.502  1.00  0.00    -0.350 C  
BRANCH  15  16
HETATM   16  N   UNL     1     -10.779  13.536  65.286  1.00  0.00    -0.309 NA 
HETATM   17  C   UNL     1     -11.612  13.854  64.104  1.00  0.00    -0.298 C  
HETATM   18  C   UNL     1     -12.239  15.256  64.141  1.00  0.00    -0.114 C  
HETATM   19  O   UNL     1     -11.232  16.266  64.271  1.00  0.00    -0.770 OA 
HETATM   20  C   UNL     1     -10.462  16.056  65.462  1.00  0.00    -0.405 C  
HETATM   21  C   UNL     1      -9.826  14.653  65.491  1.00  0.00    -0.292 C  
ENDBRANCH  15  16
ENDBRANCH  14  15
ENDBRANCH  13  14
ENDBRANCH  12  13
ENDBRANCH   9  12
ENDBRANCH   5   6
ENDBRANCH   4   5
ENDBRANCH   3   4
ENDBRANCH   2   3
TORSDOF 9
ENDMDL
MODEL      194
REMARK 921   NORMALIZED FREE ENERGY PREDICTED BY IDOCK:   -3.09 KCAL/MOL
REMARK 922        TOTAL FREE ENERGY PREDICTED BY IDOCK:   -5.56 KCAL/MOL
REMARK 923 INTER-LIGAND FREE ENERGY PREDICTED BY IDOCK:   -4.61 KCAL/MOL
REMARK 924 INTRA-LIGAND FREE ENERGY PREDICTED BY IDOCK:   -0.94 KCAL/MOL
REMARK 927      BINDING AFFINITY PREDICTED BY RF-SCORE:    0.00 PKD
ROOT
HETATM    1  C   UNL     1     -11.910  13.990  68.026  1.00  0.00    -0.403 C  
HETATM    2  C   UNL     1     -10.693  14.328  67.191  1.00  0.00    -0.282 C  
ENDROOT
BRANCH   2   3
HETATM    3  C   UNL     1     -10.841  13.853  65.742  1.00  0.00    -0.289 C  
BRANCH   3   4
HETATM    4  C   UNL     1     -10.360  12.415  65.658  1.00  0.00    -0.258 C  
BRANCH   4   5
HETATM    5  O   UNL     1      -9.306  12.122  66.581  1.00  0.00    -0.214 OA 
BRANCH   5   6
HETATM    6  C   UNL     1      -9.591  11.045  67.393  1.00  0.00    -0.164 A  
HETATM    7  C   UNL     1     -10.329   9.937  66.975  1.00  0.00    -0.303 A  
HETATM    8  C   UNL     1     -10.609   8.894  67.841  1.00  0.00    -0.244 A  
HETATM    9  C   UNL     1     -10.158   8.918  69.157  1.00  0.00    -0.197 A  
HETATM   10  C   UNL     1      -9.115  11.073  68.705  1.00  0.00    -0.174 A  
HETATM   11  C   UNL     1      -9.400  10.010  69.582  1.00  0.00    -0.242 A  
BRANCH   9  12
HETATM   12  O   UNL     1     -10.420   7.921  70.071  1.00  0.00    -0.220 OA 
BRANCH  12  13
HETATM   13  C   UNL     1     -11.202   6.840  69.538  1.00  0.00    -0.266 C  
BRANCH  13  14
HETATM   14  C   UNL     1     -10.564   5.495  69.856  1.00  0.00    -0.387 C  
BRANCH  14  15
HETATM   15  C   UNL     1      -9.241   5.658  70.628  1.00  0.00    -0.151 C  
BRANCH  15  16
HETATM   16  N   UNL     1      -9.153   4.874  71.872  1.00  0.00    -0.134 NA 
HETATM   17  C   UNL     1      -7.817   4.907  72.507  1.00  0.00    -0.093 C  
HETATM   18  C   UNL     1      -7.495   6.231  73.217  1.00  0.00    -0.091 C  
HETATM   19  O   UNL     1      -8.479   6.531  74.214  1.00  0.00    -0.126 OA 
HETATM   20  C   UNL     1      -9.783   6.610  73.625  1.00  0.00    -0.203 C  
HETATM   21  C   UNL     1     -10.150   5.314  72.877  1.00  0.00    -0.173 C  
ENDBRANCH  15  16
ENDBRANCH  14  15
ENDBRANCH  13  14
ENDBRANCH  12  13
ENDBRANCH   9  12
ENDBRANCH   5   6
ENDBRANCH   4   5
ENDBRANCH   3   4
ENDBRANCH   2   3
TORSDOF 9
ENDMDL
MODEL      195
REMARK 921   NORMALIZED FREE ENERGY PREDICTED BY IDOCK:   -3.06 KCAL/MOL
REMARK 922        TOTAL FREE ENERGY PREDICTED BY IDOCK:   -5.51 KCAL/MOL
REMARK 923 INTER-LIGAND FREE ENERGY PREDICTED BY IDOCK:   -4.87 KCAL/MOL
REMARK 924 INTRA-LIGAND FREE ENERGY PREDICTED BY IDOCK:   -0.65 KCAL/MOL
REMARK 927      BINDING AFFINITY PREDICTED BY RF-SCORE:    0.00 PKD
ROOT
HETATM    1  C   UNL     1     -10.197  18.288  68.480  1.00  0.00    -0.402 C  
HETATM    2  C   UNL     1     -10.660  16.939  67.971  1.00  0.00    -0.367 C  
ENDROOT
BRANCH   2   3
HETATM    3  C   UNL     1     -11.651  16.272  68.930  1.00  0.00    -0.230 C  
BRANCH   3   4
HETATM    4  C   UNL     1     -11.721  14.793  68.595  1.00  0.00    -0.325 C  
BRANCH   4   5
HETATM    5  O   UNL     1     -11.481  14.520  67.210  1.00  0.00    -0.335 OA 
BRANCH   5   6
HETATM    6  C   UNL     1     -10.915  13.280  67.000  1.00  0.00    -0.276 A  
HETATM    7  C   UNL     1      -9.632  13.095  66.485  1.00  0.00    -0.268 A  
HETATM    8  C   UNL     1      -9.123  11.826  66.270  1.00  0.00    -0.209 A  
HETATM    9  C   UNL     1      -9.877  10.694  66.565  1.00  0.00    -0.204 A  
HETATM   10  C   UNL     1     -11.675  12.154  67.320  1.00  0.00    -0.369 A  
HETATM   11  C   UNL     1     -11.154  10.865  67.101  1.00  0.00    -0.308 A  
BRANCH   9  12
HETATM   12  O   UNL     1      -9.434   9.407  66.354  1.00  0.00    -0.170 OA 
BRANCH  12  13
HETATM   13  C   UNL     1     -10.289   8.401  66.921  1.00  0.00    -0.307 C  
BRANCH  13  14
HETATM   14  C   UNL     1      -9.842   8.032  68.328  1.00  0.00    -0.190 C  
BRANCH  14  15
HETATM   15  C   UNL     1      -8.307   8.011  68.453  1.00  0.00    -0.127 C  
BRANCH  15  16
HETATM   16  N   UNL     1      -7.724   9.201  69.096  1.00  0.00    -0.079 NA 
HETATM   17  C   UNL     1      -8.615   9.841  70.090  1.00  0.00    -0.181 C  
HETATM   18  C   UNL     1      -8.726   9.073  71.416  1.00  0.00    -0.128 C  
HETATM   19  O   UNL     1      -7.437   8.891  72.012  1.00  0.00    -0.314 OA 
HETATM   20  C   UNL     1      -6.566   8.183  71.122  1.00  0.00    -0.043 C  
HETATM   21  C   UNL     1      -6.436   8.897  69.763  1.00  0.00    -0.035 C  
ENDBRANCH  15  16
ENDBRANCH  14  15
ENDBRANCH  13  14
ENDBRANCH  12  13
ENDBRANCH   9  12
ENDBRANCH   5   6
ENDBRANCH   4   5
ENDBRANCH   3   4
ENDBRANCH   2   3
TORSDOF 9
ENDMDL
MODEL      196
REMARK 921   NORMALIZED FREE ENERGY PREDICTED BY IDOCK:   -3.06 KCAL/MOL
REMARK 922        TOTAL FREE ENERGY PREDICTED BY IDOCK:   -5.51 KCAL/MOL
REMARK 923 INTER-LIGAND FREE ENERGY PREDICTED BY IDOCK:   -4.73 KCAL/MOL
REMARK 924 INTRA-LIGAND FREE ENERGY PREDICTED BY IDOCK:   -0.78 KCAL/MOL
REMARK 927      BINDING AFFINITY PREDICTED BY RF-SCORE:    0.00 PKD
ROOT
HETATM    1  C   UNL     1      -6.483   8.163  69.055  1.00  0.00    -0.040 C  
HETATM    2  C   UNL     1      -6.841   8.502  67.624  1.00  0.00    -0.071 C  
ENDROOT
BRANCH   2   3
HETATM    3  C   UNL     1      -8.015   9.484  67.543  1.00  0.00    -0.106 C  
BRANCH   3   4
HETATM    4  C   UNL     1      -9.167   8.796  66.834  1.00  0.00    -0.156 C  
BRANCH   4   5
HETATM    5  O   UNL     1     -10.201   8.369  67.728  1.00  0.00    -0.198 OA 
BRANCH   5   6
HETATM    6  C   UNL     1     -10.746   9.410  68.449  1.00  0.00    -0.168 A  
HETATM    7  C   UNL     1     -11.332  10.532  67.863  1.00  0.00    -0.297 A  
HETATM    8  C   UNL     1     -11.842  11.561  68.636  1.00  0.00    -0.382 A  
HETATM    9  C   UNL     1     -11.787  11.504  70.026  1.00  0.00    -0.355 A  
HETATM   10  C   UNL     1     -10.703   9.330  69.842  1.00  0.00    -0.253 A  
HETATM   11  C   UNL     1     -11.223  10.377  70.626  1.00  0.00    -0.358 A  
BRANCH   9  12
HETATM   12  O   UNL     1     -12.258  12.504  70.848  1.00  0.00    -0.347 OA 
BRANCH  12  13
HETATM   13  C   UNL     1     -12.559  13.727  70.157  1.00  0.00    -0.191 C  
BRANCH  13  14
HETATM   14  C   UNL     1     -11.513  14.793  70.450  1.00  0.00    -0.303 C  
BRANCH  14  15
HETATM   15  C   UNL     1     -10.287  14.661  69.526  1.00  0.00    -0.063 C  
BRANCH  15  16
HETATM   16  N   UNL     1     -10.209  15.674  68.459  1.00  0.00    -0.208 NA 
HETATM   17  C   UNL     1      -8.914  15.688  67.742  1.00  0.00    -0.176 C  
HETATM   18  C   UNL     1      -8.728  14.518  66.763  1.00  0.00    -0.185 C  
HETATM   19  O   UNL     1      -9.783  14.487  65.795  1.00  0.00    -0.314 OA 
HETATM   20  C   UNL     1     -11.056  14.370  66.442  1.00  0.00    -0.326 C  
HETATM   21  C   UNL     1     -11.288  15.507  67.455  1.00  0.00    -0.232 C  
ENDBRANCH  15  16
ENDBRANCH  14  15
ENDBRANCH  13  14
ENDBRANCH  12  13
ENDBRANCH   9  12
ENDBRANCH   5   6
ENDBRANCH   4   5
ENDBRANCH   3   4
ENDBRANCH   2   3
TORSDOF 9
ENDMDL
MODEL      197
REMARK 921   NORMALIZED FREE ENERGY PREDICTED BY IDOCK:   -3.05 KCAL/MOL
REMARK 922        TOTAL FREE ENERGY PREDICTED BY IDOCK:   -5.50 KCAL/MOL
REMARK 923 INTER-LIGAND FREE ENERGY PREDICTED BY IDOCK:   -4.46 KCAL/MOL
REMARK 924 INTRA-LIGAND FREE ENERGY PREDICTED BY IDOCK:   -1.03 KCAL/MOL
REMARK 927      BINDING AFFINITY PREDICTED BY RF-SCORE:    0.00 PKD
ROOT
HETATM    1  C   UNL     1     -11.723   7.737  71.792  1.00  0.00    -0.323 C  
HETATM    2  C   UNL     1     -13.038   8.435  71.517  1.00  0.00    -0.316 C  
ENDROOT
BRANCH   2   3
HETATM    3  C   UNL     1     -13.182   9.728  72.325  1.00  0.00    -0.468 C  
BRANCH   3   4
HETATM    4  C   UNL     1     -13.035  10.905  71.377  1.00  0.00    -0.424 C  
BRANCH   4   5
HETATM    5  O   UNL     1     -12.852  10.507  70.014  1.00  0.00    -0.218 OA 
BRANCH   5   6
HETATM    6  C   UNL     1     -11.706  11.029  69.454  1.00  0.00    -0.323 A  
HETATM    7  C   UNL     1     -10.487  10.350  69.416  1.00  0.00    -0.261 A  
HETATM    8  C   UNL     1      -9.360  10.933  68.864  1.00  0.00    -0.169 A  
HETATM    9  C   UNL     1      -9.409  12.216  68.326  1.00  0.00    -0.198 A  
HETATM   10  C   UNL     1     -11.775  12.309  68.901  1.00  0.00    -0.380 A  
HETATM   11  C   UNL     1     -10.627  12.898  68.339  1.00  0.00    -0.267 A  
BRANCH   9  12
HETATM   12  O   UNL     1      -8.317  12.857  67.782  1.00  0.00    -0.152 OA 
BRANCH  12  13
HETATM   13  C   UNL     1      -7.065  12.219  68.081  1.00  0.00    -0.091 C  
BRANCH  13  14
HETATM   14  C   UNL     1      -6.264  11.966  66.812  1.00  0.00    -0.045 C  
BRANCH  14  15
HETATM   15  C   UNL     1      -6.512  10.552  66.252  1.00  0.00    -0.114 C  
BRANCH  15  16
HETATM   16  N   UNL     1      -7.495  10.488  65.156  1.00  0.00    -0.088 NA 
HETATM   17  C   UNL     1      -6.935   9.996  63.877  1.00  0.00    -0.124 C  
HETATM   18  C   UNL     1      -6.676   8.482  63.849  1.00  0.00    -0.076 C  
HETATM   19  O   UNL     1      -7.875   7.752  64.130  1.00  0.00    -0.126 OA 
HETATM   20  C   UNL     1      -8.401   8.122  65.410  1.00  0.00    -0.155 C  
HETATM   21  C   UNL     1      -8.659   9.638  65.504  1.00  0.00    -0.147 C  
ENDBRANCH  15  16
ENDBRANCH  14  15
ENDBRANCH  13  14
ENDBRANCH  12  13
ENDBRANCH   9  12
ENDBRANCH   5   6
ENDBRANCH   4   5
ENDBRANCH   3   4
ENDBRANCH   2   3
TORSDOF 9
ENDMDL
MODEL      198
REMARK 921   NORMALIZED FREE ENERGY PREDICTED BY IDOCK:   -3.05 KCAL/MOL
REMARK 922        TOTAL FREE ENERGY PREDICTED BY IDOCK:   -5.49 KCAL/MOL
REMARK 923 INTER-LIGAND FREE ENERGY PREDICTED BY IDOCK:   -4.77 KCAL/MOL
REMARK 924 INTRA-LIGAND FREE ENERGY PREDICTED BY IDOCK:   -0.72 KCAL/MOL
REMARK 927      BINDING AFFINITY PREDICTED BY RF-SCORE:    0.00 PKD
ROOT
HETATM    1  C   UNL     1      -8.532   3.109  67.018  1.00  0.00    -0.106 C  
HETATM    2  C   UNL     1      -9.266   4.314  66.470  1.00  0.00    -0.154 C  
ENDROOT
BRANCH   2   3
HETATM    3  C   UNL     1     -10.217   4.926  67.503  1.00  0.00    -0.152 C  
BRANCH   3   4
HETATM    4  C   UNL     1      -9.390   5.675  68.532  1.00  0.00    -0.123 C  
BRANCH   4   5
HETATM    5  O   UNL     1      -8.500   6.632  67.947  1.00  0.00    -0.119 OA 
BRANCH   5   6
HETATM    6  C   UNL     1      -9.092   7.862  67.754  1.00  0.00    -0.134 A  
HETATM    7  C   UNL     1      -9.416   8.734  68.794  1.00  0.00    -0.142 A  
HETATM    8  C   UNL     1     -10.033   9.948  68.544  1.00  0.00    -0.175 A  
HETATM    9  C   UNL     1     -10.346  10.337  67.245  1.00  0.00    -0.232 A  
HETATM   10  C   UNL     1      -9.382   8.248  66.445  1.00  0.00    -0.274 A  
HETATM   11  C   UNL     1     -10.008   9.483  66.194  1.00  0.00    -0.342 A  
BRANCH   9  12
HETATM   12  O   UNL     1     -10.978  11.521  66.936  1.00  0.00    -0.269 OA 
BRANCH  12  13
HETATM   13  C   UNL     1     -11.571  12.174  68.070  1.00  0.00    -0.348 C  
BRANCH  13  14
HETATM   14  C   UNL     1     -12.156  13.523  67.681  1.00  0.00    -0.321 C  
BRANCH  14  15
HETATM   15  C   UNL     1     -11.619  14.659  68.573  1.00  0.00    -0.317 C  
BRANCH  15  16
HETATM   16  N   UNL     1     -11.144  15.846  67.840  1.00  0.00    -0.333 NA 
HETATM   17  C   UNL     1     -10.080  16.597  68.543  1.00  0.00    -0.266 C  
HETATM   18  C   UNL     1      -8.704  15.916  68.504  1.00  0.00    -0.194 C  
HETATM   19  O   UNL     1      -8.282  15.688  67.155  1.00  0.00    -0.175 OA 
HETATM   20  C   UNL     1      -9.237  14.875  66.461  1.00  0.00    -0.285 C  
HETATM   21  C   UNL     1     -10.645  15.499  66.487  1.00  0.00    -0.307 C  
ENDBRANCH  15  16
ENDBRANCH  14  15
ENDBRANCH  13  14
ENDBRANCH  12  13
ENDBRANCH   9  12
ENDBRANCH   5   6
ENDBRANCH   4   5
ENDBRANCH   3   4
ENDBRANCH   2   3
TORSDOF 9
ENDMDL
MODEL      199
REMARK 921   NORMALIZED FREE ENERGY PREDICTED BY IDOCK:   -3.04 KCAL/MOL
REMARK 922        TOTAL FREE ENERGY PREDICTED BY IDOCK:   -5.48 KCAL/MOL
REMARK 923 INTER-LIGAND FREE ENERGY PREDICTED BY IDOCK:   -4.85 KCAL/MOL
REMARK 924 INTRA-LIGAND FREE ENERGY PREDICTED BY IDOCK:   -0.62 KCAL/MOL
REMARK 927      BINDING AFFINITY PREDICTED BY RF-SCORE:    0.00 PKD
ROOT
HETATM    1  C   UNL     1      -5.923   9.701  65.662  1.00  0.00    -0.061 C  
HETATM    2  C   UNL     1      -5.721   8.461  66.508  1.00  0.00    -0.043 C  
ENDROOT
BRANCH   2   3
HETATM    3  C   UNL     1      -5.581   7.198  65.653  1.00  0.00    -0.032 C  
BRANCH   3   4
HETATM    4  C   UNL     1      -6.940   6.528  65.561  1.00  0.00    -0.053 C  
BRANCH   4   5
HETATM    5  O   UNL     1      -7.691   6.939  64.413  1.00  0.00    -0.101 OA 
BRANCH   5   6
HETATM    6  C   UNL     1      -8.483   8.041  64.658  1.00  0.00     0.017 A  
HETATM    7  C   UNL     1      -9.201   8.227  65.840  1.00  0.00    -0.185 A  
HETATM    8  C   UNL     1     -10.002   9.341  66.023  1.00  0.00    -0.325 A  
HETATM    9  C   UNL     1     -10.113  10.312  65.033  1.00  0.00    -0.283 A  
HETATM   10  C   UNL     1      -8.569   9.016  63.664  1.00  0.00    -0.145 A  
HETATM   11  C   UNL     1      -9.383  10.148  63.854  1.00  0.00    -0.336 A  
BRANCH   9  12
HETATM   12  O   UNL     1     -10.909  11.430  65.147  1.00  0.00    -0.286 OA 
BRANCH  12  13
HETATM   13  C   UNL     1     -11.662  11.728  63.960  1.00  0.00    -0.327 C  
BRANCH  13  14
HETATM   14  C   UNL     1     -11.950  13.219  63.855  1.00  0.00    -0.541 C  
BRANCH  14  15
HETATM   15  C   UNL     1     -10.850  14.063  64.527  1.00  0.00    -0.347 C  
BRANCH  15  16
HETATM   16  N   UNL     1     -11.346  15.110  65.437  1.00  0.00    -0.330 NA 
HETATM   17  C   UNL     1     -11.881  14.588  66.714  1.00  0.00    -0.371 C  
HETATM   18  C   UNL     1     -10.800  14.122  67.701  1.00  0.00    -0.260 C  
HETATM   19  O   UNL     1      -9.881  15.181  67.993  1.00  0.00    -0.211 OA 
HETATM   20  C   UNL     1      -9.259  15.651  66.791  1.00  0.00    -0.251 C  
HETATM   21  C   UNL     1     -10.299  16.112  65.752  1.00  0.00    -0.378 C  
ENDBRANCH  15  16
ENDBRANCH  14  15
ENDBRANCH  13  14
ENDBRANCH  12  13
ENDBRANCH   9  12
ENDBRANCH   5   6
ENDBRANCH   4   5
ENDBRANCH   3   4
ENDBRANCH   2   3
TORSDOF 9
ENDMDL
MODEL      200
REMARK 921   NORMALIZED FREE ENERGY PREDICTED BY IDOCK:   -3.04 KCAL/MOL
REMARK 922        TOTAL FREE ENERGY PREDICTED BY IDOCK:   -5.47 KCAL/MOL
REMARK 923 INTER-LIGAND FREE ENERGY PREDICTED BY IDOCK:   -5.06 KCAL/MOL
REMARK 924 INTRA-LIGAND FREE ENERGY PREDICTED BY IDOCK:   -0.41 KCAL/MOL
REMARK 927      BINDING AFFINITY PREDICTED BY RF-SCORE:    0.00 PKD
ROOT
HETATM    1  C   UNL     1      -8.911   5.634  73.341  1.00  0.00    -0.129 C  
HETATM    2  C   UNL     1      -9.814   4.648  72.630  1.00  0.00    -0.197 C  
ENDROOT
BRANCH   2   3
HETATM    3  C   UNL     1     -11.256   5.158  72.531  1.00  0.00    -0.229 C  
BRANCH   3   4
HETATM    4  C   UNL     1     -11.273   6.374  71.623  1.00  0.00    -0.278 C  
BRANCH   4   5
HETATM    5  O   UNL     1     -10.670   6.130  70.347  1.00  0.00    -0.241 OA 
BRANCH   5   6
HETATM    6  C   UNL     1     -10.579   7.266  69.573  1.00  0.00    -0.234 A  
HETATM    7  C   UNL     1     -10.496   8.555  70.101  1.00  0.00    -0.226 A  
HETATM    8  C   UNL     1     -10.433   9.665  69.275  1.00  0.00    -0.232 A  
HETATM    9  C   UNL     1     -10.448   9.526  67.890  1.00  0.00    -0.241 A  
HETATM   10  C   UNL     1     -10.575   7.111  68.186  1.00  0.00    -0.241 A  
HETATM   11  C   UNL     1     -10.510   8.241  67.349  1.00  0.00    -0.353 A  
BRANCH   9  12
HETATM   12  O   UNL     1     -10.409  10.591  67.017  1.00  0.00    -0.215 OA 
BRANCH  12  13
HETATM   13  C   UNL     1      -9.485  11.622  67.405  1.00  0.00    -0.167 C  
BRANCH  13  14
HETATM   14  C   UNL     1     -10.075  13.004  67.163  1.00  0.00    -0.244 C  
BRANCH  14  15
HETATM   15  C   UNL     1     -10.072  13.859  68.444  1.00  0.00    -0.237 C  
BRANCH  15  16
HETATM   16  N   UNL     1      -9.219  15.059  68.382  1.00  0.00    -0.186 NA 
HETATM   17  C   UNL     1      -8.838  15.451  67.007  1.00  0.00    -0.228 C  
HETATM   18  C   UNL     1      -9.972  16.111  66.207  1.00  0.00    -0.317 C  
HETATM   19  O   UNL     1     -10.473  17.267  66.887  1.00  0.00    -0.319 OA 
HETATM   20  C   UNL     1     -10.950  16.916  68.191  1.00  0.00    -0.290 C  
HETATM   21  C   UNL     1      -9.858  16.228  69.032  1.00  0.00    -0.257 C  
ENDBRANCH  15  16
ENDBRANCH  14  15
ENDBRANCH  13  14
ENDBRANCH  12  13
ENDBRANCH   9  12
ENDBRANCH   5   6
ENDBRANCH   4   5
ENDBRANCH   3   4
ENDBRANCH   2   3
TORSDOF 9
ENDMDL
MODEL      201
REMARK 921   NORMALIZED FREE ENERGY PREDICTED BY IDOCK:   -3.03 KCAL/MOL
REMARK 922        TOTAL FREE ENERGY PREDICTED BY IDOCK:   -5.46 KCAL/MOL
REMARK 923 INTER-LIGAND FREE ENERGY PREDICTED BY IDOCK:   -4.55 KCAL/MOL
REMARK 924 INTRA-LIGAND FREE ENERGY PREDICTED BY IDOCK:   -0.91 KCAL/MOL
REMARK 927      BINDING AFFINITY PREDICTED BY RF-SCORE:    0.00 PKD
ROOT
HETATM    1  C   UNL     1      -9.447  11.295  62.845  1.00  0.00    -0.385 C  
HETATM    2  C   UNL     1     -10.741  11.744  63.490  1.00  0.00    -0.501 C  
ENDROOT
BRANCH   2   3
HETATM    3  C   UNL     1     -10.546  12.987  64.364  1.00  0.00    -0.429 C  
BRANCH   3   4
HETATM    4  C   UNL     1     -10.574  12.559  65.820  1.00  0.00    -0.270 C  
BRANCH   4   5
HETATM    5  O   UNL     1      -9.302  12.109  66.297  1.00  0.00    -0.230 OA 
BRANCH   5   6
HETATM    6  C   UNL     1      -9.227  10.736  66.405  1.00  0.00    -0.170 A  
HETATM    7  C   UNL     1      -8.110   9.992  66.023  1.00  0.00    -0.124 A  
HETATM    8  C   UNL     1      -8.098   8.612  66.130  1.00  0.00    -0.108 A  
HETATM    9  C   UNL     1      -9.202   7.924  66.625  1.00  0.00    -0.177 A  
HETATM   10  C   UNL     1     -10.334  10.062  66.922  1.00  0.00    -0.297 A  
HETATM   11  C   UNL     1     -10.318   8.658  67.030  1.00  0.00    -0.368 A  
BRANCH   9  12
HETATM   12  O   UNL     1      -9.259   6.552  66.735  1.00  0.00    -0.137 OA 
BRANCH  12  13
HETATM   13  C   UNL     1      -9.894   6.095  67.941  1.00  0.00    -0.123 C  
BRANCH  13  14
HETATM   14  C   UNL     1      -9.116   4.947  68.567  1.00  0.00    -0.143 C  
BRANCH  14  15
HETATM   15  C   UNL     1      -9.862   4.341  69.771  1.00  0.00    -0.187 C  
BRANCH  15  16
HETATM   16  N   UNL     1      -9.031   4.133  70.970  1.00  0.00    -0.104 NA 
HETATM   17  C   UNL     1      -8.198   5.302  71.331  1.00  0.00    -0.116 C  
HETATM   18  C   UNL     1      -8.985   6.455  71.973  1.00  0.00    -0.137 C  
HETATM   19  O   UNL     1      -9.679   6.013  73.144  1.00  0.00    -0.159 OA 
HETATM   20  C   UNL     1     -10.578   4.944  72.822  1.00  0.00    -0.217 C  
HETATM   21  C   UNL     1      -9.845   3.766  72.153  1.00  0.00    -0.168 C  
ENDBRANCH  15  16
ENDBRANCH  14  15
ENDBRANCH  13  14
ENDBRANCH  12  13
ENDBRANCH   9  12
ENDBRANCH   5   6
ENDBRANCH   4   5
ENDBRANCH   3   4
ENDBRANCH   2   3
TORSDOF 9
ENDMDL
MODEL      202
REMARK 921   NORMALIZED FREE ENERGY PREDICTED BY IDOCK:   -3.01 KCAL/MOL
REMARK 922        TOTAL FREE ENERGY PREDICTED BY IDOCK:   -5.43 KCAL/MOL
REMARK 923 INTER-LIGAND FREE ENERGY PREDICTED BY IDOCK:   -4.49 KCAL/MOL
REMARK 924 INTRA-LIGAND FREE ENERGY PREDICTED BY IDOCK:   -0.94 KCAL/MOL
REMARK 927      BINDING AFFINITY PREDICTED BY RF-SCORE:    0.00 PKD
ROOT
HETATM    1  C   UNL     1     -14.409   8.436  71.857  1.00  0.00    -0.561 C  
HETATM    2  C   UNL     1     -13.875   7.021  71.797  1.00  0.00    -0.320 C  
ENDROOT
BRANCH   2   3
HETATM    3  C   UNL     1     -12.346   6.979  71.899  1.00  0.00    -0.358 C  
BRANCH   3   4
HETATM    4  C   UNL     1     -11.770   7.909  70.847  1.00  0.00    -0.257 C  
BRANCH   4   5
HETATM    5  O   UNL     1     -10.442   8.349  71.154  1.00  0.00    -0.201 OA 
BRANCH   5   6
HETATM    6  C   UNL     1      -9.638   8.439  70.039  1.00  0.00    -0.168 A  
HETATM    7  C   UNL     1     -10.003   7.954  68.783  1.00  0.00    -0.194 A  
HETATM    8  C   UNL     1      -9.144   8.048  67.701  1.00  0.00    -0.144 A  
HETATM    9  C   UNL     1      -7.889   8.635  67.834  1.00  0.00    -0.103 A  
HETATM   10  C   UNL     1      -8.390   9.048  70.182  1.00  0.00    -0.156 A  
HETATM   11  C   UNL     1      -7.520   9.144  69.080  1.00  0.00    -0.072 A  
BRANCH   9  12
HETATM   12  O   UNL     1      -6.983   8.740  66.801  1.00  0.00    -0.078 OA 
BRANCH  12  13
HETATM   13  C   UNL     1      -7.586   8.702  65.498  1.00  0.00    -0.087 C  
BRANCH  13  14
HETATM   14  C   UNL     1      -7.872  10.107  64.987  1.00  0.00    -0.140 C  
BRANCH  14  15
HETATM   15  C   UNL     1      -9.345  10.505  65.200  1.00  0.00    -0.216 C  
BRANCH  15  16
HETATM   16  N   UNL     1      -9.544  11.851  65.764  1.00  0.00    -0.237 NA 
HETATM   17  C   UNL     1     -10.740  12.548  65.240  1.00  0.00    -0.286 C  
HETATM   18  C   UNL     1     -12.068  12.022  65.805  1.00  0.00     0.070 C  
HETATM   19  O   UNL     1     -12.085  12.103  67.234  1.00  0.00    -0.565 OA 
HETATM   20  C   UNL     1     -10.999  11.354  67.793  1.00  0.00    -0.247 C  
HETATM   21  C   UNL     1      -9.639  11.825  67.243  1.00  0.00    -0.176 C  
ENDBRANCH  15  16
ENDBRANCH  14  15
ENDBRANCH  13  14
ENDBRANCH  12  13
ENDBRANCH   9  12
ENDBRANCH   5   6
ENDBRANCH   4   5
ENDBRANCH   3   4
ENDBRANCH   2   3
TORSDOF 9
ENDMDL
MODEL      203
REMARK 921   NORMALIZED FREE ENERGY PREDICTED BY IDOCK:   -3.01 KCAL/MOL
REMARK 922        TOTAL FREE ENERGY PREDICTED BY IDOCK:   -5.43 KCAL/MOL
REMARK 923 INTER-LIGAND FREE ENERGY PREDICTED BY IDOCK:   -4.93 KCAL/MOL
REMARK 924 INTRA-LIGAND FREE ENERGY PREDICTED BY IDOCK:   -0.50 KCAL/MOL
REMARK 927      BINDING AFFINITY PREDICTED BY RF-SCORE:    0.00 PKD
ROOT
HETATM    1  C   UNL     1      -7.681   5.453  69.807  1.00  0.00    -0.077 C  
HETATM    2  C   UNL     1      -8.459   5.684  71.086  1.00  0.00    -0.127 C  
ENDROOT
BRANCH   2   3
HETATM    3  C   UNL     1      -9.846   5.034  71.040  1.00  0.00    -0.266 C  
BRANCH   3   4
HETATM    4  C   UNL     1     -10.839   6.062  70.529  1.00  0.00    -0.314 C  
BRANCH   4   5
HETATM    5  O   UNL     1     -10.567   7.387  70.997  1.00  0.00    -0.222 OA 
BRANCH   5   6
HETATM    6  C   UNL     1     -10.108   8.222  70.000  1.00  0.00    -0.196 A  
HETATM    7  C   UNL     1      -8.871   8.865  70.041  1.00  0.00    -0.165 A  
HETATM    8  C   UNL     1      -8.471   9.714  69.024  1.00  0.00    -0.131 A  
HETATM    9  C   UNL     1      -9.292   9.950  67.925  1.00  0.00    -0.137 A  
HETATM   10  C   UNL     1     -10.934   8.433  68.895  1.00  0.00     0.115 A  
HETATM   11  C   UNL     1     -10.524   9.297  67.862  1.00  0.00    -0.290 A  
BRANCH   9  12
HETATM   12  O   UNL     1      -8.959  10.799  66.893  1.00  0.00    -0.138 OA 
BRANCH  12  13
HETATM   13  C   UNL     1      -9.218  10.254  65.589  1.00  0.00    -0.184 C  
BRANCH  13  14
HETATM   14  C   UNL     1      -9.503  11.357  64.581  1.00  0.00    -0.171 C  
BRANCH  14  15
HETATM   15  C   UNL     1      -9.690  12.724  65.267  1.00  0.00    -0.007 C  
BRANCH  15  16
HETATM   16  N   UNL     1     -11.064  13.003  65.720  1.00  0.00    -0.275 NA 
HETATM   17  C   UNL     1     -11.322  14.433  66.002  1.00  0.00    -0.335 C  
HETATM   18  C   UNL     1     -11.469  15.301  64.743  1.00  0.00    -0.363 C  
HETATM   19  O   UNL     1     -12.516  14.808  63.899  1.00  0.00    -0.811 OA 
HETATM   20  C   UNL     1     -12.256  13.453  63.516  1.00  0.00    -0.400 C  
HETATM   21  C   UNL     1     -12.076  12.538  64.742  1.00  0.00    -0.434 C  
ENDBRANCH  15  16
ENDBRANCH  14  15
ENDBRANCH  13  14
ENDBRANCH  12  13
ENDBRANCH   9  12
ENDBRANCH   5   6
ENDBRANCH   4   5
ENDBRANCH   3   4
ENDBRANCH   2   3
TORSDOF 9
ENDMDL
MODEL      204
REMARK 921   NORMALIZED FREE ENERGY PREDICTED BY IDOCK:   -3.00 KCAL/MOL
REMARK 922        TOTAL FREE ENERGY PREDICTED BY IDOCK:   -5.41 KCAL/MOL
REMARK 923 INTER-LIGAND FREE ENERGY PREDICTED BY IDOCK:   -4.79 KCAL/MOL
REMARK 924 INTRA-LIGAND FREE ENERGY PREDICTED BY IDOCK:   -0.62 KCAL/MOL
REMARK 927      BINDING AFFINITY PREDICTED BY RF-SCORE:    0.00 PKD
ROOT
HETATM    1  C   UNL     1     -12.911  14.159  65.594  1.00  0.00    -0.402 C  
HETATM    2  C   UNL     1     -11.800  13.134  65.693  1.00  0.00    -0.430 C  
ENDROOT
BRANCH   2   3
HETATM    3  C   UNL     1     -10.516  13.611  65.007  1.00  0.00    -0.406 C  
BRANCH   3   4
HETATM    4  C   UNL     1     -10.210  12.670  63.856  1.00  0.00    -0.315 C  
BRANCH   4   5
HETATM    5  O   UNL     1     -10.800  11.376  64.016  1.00  0.00    -0.355 OA 
BRANCH   5   6
HETATM    6  C   UNL     1      -9.925  10.451  64.543  1.00  0.00    -0.331 A  
HETATM    7  C   UNL     1      -8.834   9.935  63.843  1.00  0.00    -0.250 A  
HETATM    8  C   UNL     1      -8.001   8.987  64.413  1.00  0.00    -0.133 A  
HETATM    9  C   UNL     1      -8.226   8.521  65.705  1.00  0.00    -0.130 A  
HETATM   10  C   UNL     1     -10.151  10.008  65.847  1.00  0.00    -0.319 A  
HETATM   11  C   UNL     1      -9.301   9.045  66.424  1.00  0.00    -0.264 A  
BRANCH   9  12
HETATM   12  O   UNL     1      -7.446   7.566  66.317  1.00  0.00    -0.080 OA 
BRANCH  12  13
HETATM   13  C   UNL     1      -8.196   6.462  66.850  1.00  0.00    -0.110 C  
BRANCH  13  14
HETATM   14  C   UNL     1      -8.052   6.382  68.363  1.00  0.00    -0.113 C  
BRANCH  14  15
HETATM   15  C   UNL     1      -9.375   6.712  69.080  1.00  0.00    -0.134 C  
BRANCH  15  16
HETATM   16  N   UNL     1      -9.464   8.085  69.608  1.00  0.00    -0.163 NA 
HETATM   17  C   UNL     1     -10.610   8.303  70.518  1.00  0.00    -0.219 C  
HETATM   18  C   UNL     1     -10.427   7.687  71.914  1.00  0.00    -0.215 C  
HETATM   19  O   UNL     1      -9.244   8.190  72.545  1.00  0.00    -0.199 OA 
HETATM   20  C   UNL     1      -8.089   7.910  71.744  1.00  0.00    -0.109 C  
HETATM   21  C   UNL     1      -8.228   8.486  70.322  1.00  0.00    -0.115 C  
ENDBRANCH  15  16
ENDBRANCH  14  15
ENDBRANCH  13  14
ENDBRANCH  12  13
ENDBRANCH   9  12
ENDBRANCH   5   6
ENDBRANCH   4   5
ENDBRANCH   3   4
ENDBRANCH   2   3
TORSDOF 9
ENDMDL
MODEL      205
REMARK 921   NORMALIZED FREE ENERGY PREDICTED BY IDOCK:   -2.98 KCAL/MOL
REMARK 922        TOTAL FREE ENERGY PREDICTED BY IDOCK:   -5.39 KCAL/MOL
REMARK 923 INTER-LIGAND FREE ENERGY PREDICTED BY IDOCK:   -4.36 KCAL/MOL
REMARK 924 INTRA-LIGAND FREE ENERGY PREDICTED BY IDOCK:   -1.03 KCAL/MOL
REMARK 927      BINDING AFFINITY PREDICTED BY RF-SCORE:    0.00 PKD
ROOT
HETATM    1  C   UNL     1      -6.432  10.340  66.629  1.00  0.00    -0.076 C  
HETATM    2  C   UNL     1      -6.309  11.817  66.939  1.00  0.00    -0.131 C  
ENDROOT
BRANCH   2   3
HETATM    3  C   UNL     1      -7.370  12.284  67.940  1.00  0.00    -0.111 C  
BRANCH   3   4
HETATM    4  C   UNL     1      -8.527  12.888  67.166  1.00  0.00    -0.179 C  
BRANCH   4   5
HETATM    5  O   UNL     1      -9.805  12.430  67.620  1.00  0.00    -0.191 OA 
BRANCH   5   6
HETATM    6  C   UNL     1     -10.000  11.083  67.398  1.00  0.00    -0.182 A  
HETATM    7  C   UNL     1      -9.998  10.503  66.129  1.00  0.00    -0.286 A  
HETATM    8  C   UNL     1     -10.225   9.147  65.962  1.00  0.00    -0.093 A  
HETATM    9  C   UNL     1     -10.460   8.321  67.057  1.00  0.00    -0.314 A  
HETATM   10  C   UNL     1     -10.214  10.264  68.507  1.00  0.00    -0.192 A  
HETATM   11  C   UNL     1     -10.444   8.886  68.333  1.00  0.00    -0.230 A  
BRANCH   9  12
HETATM   12  O   UNL     1     -10.712   6.971  66.953  1.00  0.00    -0.324 OA 
BRANCH  12  13
HETATM   13  C   UNL     1     -11.099   6.358  68.194  1.00  0.00    -0.263 C  
BRANCH  13  14
HETATM   14  C   UNL     1      -9.961   5.531  68.774  1.00  0.00    -0.231 C  
BRANCH  14  15
HETATM   15  C   UNL     1     -10.257   5.083  70.217  1.00  0.00    -0.258 C  
BRANCH  15  16
HETATM   16  N   UNL     1      -9.345   5.636  71.234  1.00  0.00    -0.146 NA 
HETATM   17  C   UNL     1      -9.392   7.111  71.341  1.00  0.00    -0.154 C  
HETATM   18  C   UNL     1     -10.645   7.647  72.050  1.00  0.00    -0.220 C  
HETATM   19  O   UNL     1     -10.767   7.093  73.364  1.00  0.00    -0.347 OA 
HETATM   20  C   UNL     1     -10.828   5.662  73.303  1.00  0.00    -0.282 C  
HETATM   21  C   UNL     1      -9.604   5.070  72.579  1.00  0.00    -0.146 C  
ENDBRANCH  15  16
ENDBRANCH  14  15
ENDBRANCH  13  14
ENDBRANCH  12  13
ENDBRANCH   9  12
ENDBRANCH   5   6
ENDBRANCH   4   5
ENDBRANCH   3   4
ENDBRANCH   2   3
TORSDOF 9
ENDMDL
MODEL      206
REMARK 921   NORMALIZED FREE ENERGY PREDICTED BY IDOCK:   -2.93 KCAL/MOL
REMARK 922        TOTAL FREE ENERGY PREDICTED BY IDOCK:   -5.31 KCAL/MOL
REMARK 923 INTER-LIGAND FREE ENERGY PREDICTED BY IDOCK:   -4.65 KCAL/MOL
REMARK 924 INTRA-LIGAND FREE ENERGY PREDICTED BY IDOCK:   -0.66 KCAL/MOL
REMARK 927      BINDING AFFINITY PREDICTED BY RF-SCORE:    0.00 PKD
ROOT
HETATM    1  C   UNL     1      -9.721   2.608  64.147  1.00  0.00    -0.142 C  
HETATM    2  C   UNL     1      -9.707   4.017  64.701  1.00  0.00    -0.185 C  
ENDROOT
BRANCH   2   3
HETATM    3  C   UNL     1      -8.473   4.802  64.244  1.00  0.00    -0.135 C  
BRANCH   3   4
HETATM    4  C   UNL     1      -8.013   5.683  65.391  1.00  0.00    -0.112 C  
BRANCH   4   5
HETATM    5  O   UNL     1      -8.699   5.410  66.617  1.00  0.00    -0.114 OA 
BRANCH   5   6
HETATM    6  C   UNL     1      -9.152   6.552  67.242  1.00  0.00    -0.117 A  
HETATM    7  C   UNL     1     -10.075   7.429  66.671  1.00  0.00    -0.253 A  
HETATM    8  C   UNL     1     -10.477   8.577  67.333  1.00  0.00    -0.351 A  
HETATM    9  C   UNL     1      -9.973   8.889  68.593  1.00  0.00    -0.177 A  
HETATM   10  C   UNL     1      -8.654   6.842  68.513  1.00  0.00    -0.125 A  
HETATM   11  C   UNL     1      -9.066   8.008  69.184  1.00  0.00    -0.145 A  
BRANCH   9  12
HETATM   12  O   UNL     1     -10.318  10.024  69.291  1.00  0.00    -0.192 OA 
BRANCH  12  13
HETATM   13  C   UNL     1     -11.432  10.735  68.726  1.00  0.00    -0.295 C  
BRANCH  13  14
HETATM   14  C   UNL     1     -11.241  12.240  68.853  1.00  0.00    -0.323 C  
BRANCH  14  15
HETATM   15  C   UNL     1     -10.838  12.880  67.511  1.00  0.00    -0.235 C  
BRANCH  15  16
HETATM   16  N   UNL     1     -11.736  13.952  67.045  1.00  0.00    -0.374 NA 
HETATM   17  C   UNL     1     -12.141  14.898  68.109  1.00  0.00    -0.085 C  
HETATM   18  C   UNL     1     -11.038  15.884  68.522  1.00  0.00    -0.340 C  
HETATM   19  O   UNL     1     -10.577  16.638  67.395  1.00  0.00    -0.318 OA 
HETATM   20  C   UNL     1     -10.078  15.764  66.375  1.00  0.00    -0.291 C  
HETATM   21  C   UNL     1     -11.138  14.735  65.938  1.00  0.00    -0.340 C  
ENDBRANCH  15  16
ENDBRANCH  14  15
ENDBRANCH  13  14
ENDBRANCH  12  13
ENDBRANCH   9  12
ENDBRANCH   5   6
ENDBRANCH   4   5
ENDBRANCH   3   4
ENDBRANCH   2   3
TORSDOF 9
ENDMDL
MODEL      207
REMARK 921   NORMALIZED FREE ENERGY PREDICTED BY IDOCK:   -2.89 KCAL/MOL
REMARK 922        TOTAL FREE ENERGY PREDICTED BY IDOCK:   -5.25 KCAL/MOL
REMARK 923 INTER-LIGAND FREE ENERGY PREDICTED BY IDOCK:   -4.95 KCAL/MOL
REMARK 924 INTRA-LIGAND FREE ENERGY PREDICTED BY IDOCK:   -0.30 KCAL/MOL
REMARK 927      BINDING AFFINITY PREDICTED BY RF-SCORE:    0.00 PKD
ROOT
HETATM    1  C   UNL     1      -9.117   8.131  66.389  1.00  0.00    -0.226 C  
HETATM    2  C   UNL     1     -10.246   9.140  66.384  1.00  0.00    -0.300 C  
ENDROOT
BRANCH   2   3
HETATM    3  C   UNL     1      -9.727  10.582  66.335  1.00  0.00    -0.245 C  
BRANCH   3   4
HETATM    4  C   UNL     1     -10.726  11.475  67.048  1.00  0.00    -0.259 C  
BRANCH   4   5
HETATM    5  O   UNL     1     -10.309  11.841  68.367  1.00  0.00    -0.201 OA 
BRANCH   5   6
HETATM    6  C   UNL     1     -10.817  11.006  69.340  1.00  0.00    -0.231 A  
HETATM    7  C   UNL     1     -12.154  11.012  69.740  1.00  0.00    -0.424 A  
HETATM    8  C   UNL     1     -12.605  10.169  70.741  1.00  0.00    -0.406 A  
HETATM    9  C   UNL     1     -11.738   9.286  71.377  1.00  0.00    -0.361 A  
HETATM   10  C   UNL     1      -9.940  10.112  69.955  1.00  0.00    -0.213 A  
HETATM   11  C   UNL     1     -10.402   9.255  70.972  1.00  0.00    -0.388 A  
BRANCH   9  12
HETATM   12  O   UNL     1     -12.122   8.439  72.393  1.00  0.00    -0.371 OA 
BRANCH  12  13
HETATM   13  C   UNL     1     -11.021   7.813  73.072  1.00  0.00    -0.381 C  
BRANCH  13  14
HETATM   14  C   UNL     1     -10.789   6.402  72.552  1.00  0.00    -0.268 C  
BRANCH  14  15
HETATM   15  C   UNL     1      -9.307   6.155  72.211  1.00  0.00    -0.146 C  
BRANCH  15  16
HETATM   16  N   UNL     1      -8.364   6.469  73.299  1.00  0.00    -0.117 NA 
HETATM   17  C   UNL     1      -7.115   5.676  73.256  1.00  0.00    -0.086 C  
HETATM   18  C   UNL     1      -6.132   6.117  72.161  1.00  0.00    -0.041 C  
HETATM   19  O   UNL     1      -5.788   7.499  72.308  1.00  0.00    -0.037 OA 
HETATM   20  C   UNL     1      -6.962   8.318  72.253  1.00  0.00    -0.093 C  
HETATM   21  C   UNL     1      -7.996   7.905  73.317  1.00  0.00    -0.161 C  
ENDBRANCH  15  16
ENDBRANCH  14  15
ENDBRANCH  13  14
ENDBRANCH  12  13
ENDBRANCH   9  12
ENDBRANCH   5   6
ENDBRANCH   4   5
ENDBRANCH   3   4
ENDBRANCH   2   3
TORSDOF 9
ENDMDL
MODEL      208
REMARK 921   NORMALIZED FREE ENERGY PREDICTED BY IDOCK:   -2.88 KCAL/MOL
REMARK 922        TOTAL FREE ENERGY PREDICTED BY IDOCK:   -5.23 KCAL/MOL
REMARK 923 INTER-LIGAND FREE ENERGY PREDICTED BY IDOCK:   -4.97 KCAL/MOL
REMARK 924 INTRA-LIGAND FREE ENERGY PREDICTED BY IDOCK:   -0.26 KCAL/MOL
REMARK 927      BINDING AFFINITY PREDICTED BY RF-SCORE:    0.00 PKD
ROOT
HETATM    1  C   UNL     1      -5.682  20.302  71.592  1.00  0.00    -0.368 C  
HETATM    2  C   UNL     1      -5.163  19.302  70.581  1.00  0.00    -0.230 C  
ENDROOT
BRANCH   2   3
HETATM    3  C   UNL     1      -5.899  19.405  69.241  1.00  0.00    -0.277 C  
BRANCH   3   4
HETATM    4  C   UNL     1      -5.483  18.231  68.374  1.00  0.00    -0.167 C  
BRANCH   4   5
HETATM    5  O   UNL     1      -5.976  16.976  68.856  1.00  0.00    -0.147 OA 
BRANCH   5   6
HETATM    6  C   UNL     1      -7.204  16.644  68.324  1.00  0.00    -0.169 A  
HETATM    7  C   UNL     1      -8.258  16.128  69.080  1.00  0.00    -0.244 A  
HETATM    8  C   UNL     1      -9.462  15.787  68.489  1.00  0.00    -0.201 A  
HETATM    9  C   UNL     1      -9.659  15.951  67.121  1.00  0.00    -0.218 A  
HETATM   10  C   UNL     1      -7.393  16.832  66.955  1.00  0.00    -0.257 A  
HETATM   11  C   UNL     1      -8.620  16.486  66.357  1.00  0.00    -0.347 A  
BRANCH   9  12
HETATM   12  O   UNL     1     -10.826  15.611  66.472  1.00  0.00    -0.311 OA 
BRANCH  12  13
HETATM   13  C   UNL     1     -11.184  14.227  66.615  1.00  0.00    -0.334 C  
BRANCH  13  14
HETATM   14  C   UNL     1     -10.228  13.332  65.840  1.00  0.00    -0.295 C  
BRANCH  14  15
HETATM   15  C   UNL     1     -10.862  11.968  65.510  1.00  0.00    -0.292 C  
BRANCH  15  16
HETATM   16  N   UNL     1     -10.069  10.800  65.934  1.00  0.00    -0.247 NA 
HETATM   17  C   UNL     1      -8.681  11.131  66.325  1.00  0.00    -0.182 C  
HETATM   18  C   UNL     1      -8.563  11.817  67.695  1.00  0.00    -0.153 C  
HETATM   19  O   UNL     1      -9.144  11.010  68.724  1.00  0.00    -0.172 OA 
HETATM   20  C   UNL     1     -10.524  10.748  68.439  1.00  0.00    -0.183 C  
HETATM   21  C   UNL     1     -10.705  10.079  67.063  1.00  0.00    -0.178 C  
ENDBRANCH  15  16
ENDBRANCH  14  15
ENDBRANCH  13  14
ENDBRANCH  12  13
ENDBRANCH   9  12
ENDBRANCH   5   6
ENDBRANCH   4   5
ENDBRANCH   3   4
ENDBRANCH   2   3
TORSDOF 9
ENDMDL
MODEL      209
REMARK 921   NORMALIZED FREE ENERGY PREDICTED BY IDOCK:   -2.87 KCAL/MOL
REMARK 922        TOTAL FREE ENERGY PREDICTED BY IDOCK:   -5.21 KCAL/MOL
REMARK 923 INTER-LIGAND FREE ENERGY PREDICTED BY IDOCK:   -4.43 KCAL/MOL
REMARK 924 INTRA-LIGAND FREE ENERGY PREDICTED BY IDOCK:   -0.78 KCAL/MOL
REMARK 927      BINDING AFFINITY PREDICTED BY RF-SCORE:    0.00 PKD
ROOT
HETATM    1  C   UNL     1     -10.052  11.231  63.909  1.00  0.00    -0.392 C  
HETATM    2  C   UNL     1      -9.637  10.476  62.664  1.00  0.00    -0.285 C  
ENDROOT
BRANCH   2   3
HETATM    3  C   UNL     1      -8.531   9.455  62.953  1.00  0.00    -0.206 C  
BRANCH   3   4
HETATM    4  C   UNL     1      -8.620   9.053  64.415  1.00  0.00    -0.150 C  
BRANCH   4   5
HETATM    5  O   UNL     1      -8.181   7.712  64.655  1.00  0.00    -0.134 OA 
BRANCH   5   6
HETATM    6  C   UNL     1      -8.360   7.317  65.964  1.00  0.00    -0.140 A  
HETATM    7  C   UNL     1      -9.175   7.997  66.870  1.00  0.00    -0.191 A  
HETATM    8  C   UNL     1      -9.299   7.570  68.181  1.00  0.00    -0.137 A  
HETATM    9  C   UNL     1      -8.614   6.447  68.635  1.00  0.00    -0.123 A  
HETATM   10  C   UNL     1      -7.683   6.177  66.399  1.00  0.00    -0.102 A  
HETATM   11  C   UNL     1      -7.812   5.746  67.733  1.00  0.00    -0.098 A  
BRANCH   9  12
HETATM   12  O   UNL     1      -8.680   5.986  69.931  1.00  0.00    -0.128 OA 
BRANCH  12  13
HETATM   13  C   UNL     1      -9.231   4.664  70.047  1.00  0.00    -0.123 C  
BRANCH  13  14
HETATM   14  C   UNL     1      -9.770   4.417  71.449  1.00  0.00    -0.248 C  
BRANCH  14  15
HETATM   15  C   UNL     1      -9.499   5.611  72.384  1.00  0.00    -0.143 C  
BRANCH  15  16
HETATM   16  N   UNL     1     -10.704   6.204  72.991  1.00  0.00    -0.240 NA 
HETATM   17  C   UNL     1     -10.566   7.643  73.311  1.00  0.00    -0.352 C  
HETATM   18  C   UNL     1     -10.626   8.565  72.083  1.00  0.00    -0.349 C  
HETATM   19  O   UNL     1     -11.847   8.375  71.359  1.00  0.00    -0.280 OA 
HETATM   20  C   UNL     1     -11.975   7.011  70.938  1.00  0.00    -0.364 C  
HETATM   21  C   UNL     1     -11.898   6.037  72.129  1.00  0.00    -0.247 C  
ENDBRANCH  15  16
ENDBRANCH  14  15
ENDBRANCH  13  14
ENDBRANCH  12  13
ENDBRANCH   9  12
ENDBRANCH   5   6
ENDBRANCH   4   5
ENDBRANCH   3   4
ENDBRANCH   2   3
TORSDOF 9
ENDMDL
MODEL      210
REMARK 921   NORMALIZED FREE ENERGY PREDICTED BY IDOCK:   -2.83 KCAL/MOL
REMARK 922        TOTAL FREE ENERGY PREDICTED BY IDOCK:   -5.15 KCAL/MOL
REMARK 923 INTER-LIGAND FREE ENERGY PREDICTED BY IDOCK:   -4.38 KCAL/MOL
REMARK 924 INTRA-LIGAND FREE ENERGY PREDICTED BY IDOCK:   -0.77 KCAL/MOL
REMARK 927      BINDING AFFINITY PREDICTED BY RF-SCORE:    0.00 PKD
ROOT
HETATM    1  C   UNL     1     -11.835  14.394  68.646  1.00  0.00    -0.366 C  
HETATM    2  C   UNL     1     -11.359  14.559  67.218  1.00  0.00    -0.363 C  
ENDROOT
BRANCH   2   3
HETATM    3  C   UNL     1     -10.043  13.817  66.962  1.00  0.00    -0.256 C  
BRANCH   3   4
HETATM    4  C   UNL     1      -9.876  12.754  68.033  1.00  0.00    -0.226 C  
BRANCH   4   5
HETATM    5  O   UNL     1     -10.126  11.429  67.552  1.00  0.00    -0.180 OA 
BRANCH   5   6
HETATM    6  C   UNL     1     -10.374  10.529  68.567  1.00  0.00    -0.179 A  
HETATM    7  C   UNL     1      -9.674   9.333  68.725  1.00  0.00    -0.162 A  
HETATM    8  C   UNL     1      -9.982   8.453  69.749  1.00  0.00    -0.191 A  
HETATM    9  C   UNL     1     -11.001   8.737  70.653  1.00  0.00    -0.238 A  
HETATM   10  C   UNL     1     -11.385  10.837  69.478  1.00  0.00    -0.355 A  
HETATM   11  C   UNL     1     -11.695   9.941  70.518  1.00  0.00    -0.373 A  
BRANCH   9  12
HETATM   12  O   UNL     1     -11.368   7.893  71.678  1.00  0.00    -0.247 OA 
BRANCH  12  13
HETATM   13  C   UNL     1     -10.295   7.068  72.160  1.00  0.00    -0.191 C  
BRANCH  13  14
HETATM   14  C   UNL     1     -10.631   5.591  72.012  1.00  0.00    -0.284 C  
BRANCH  14  15
HETATM   15  C   UNL     1     -10.448   5.105  70.562  1.00  0.00    -0.208 C  
BRANCH  15  16
HETATM   16  N   UNL     1      -9.054   4.828  70.176  1.00  0.00    -0.099 NA 
HETATM   17  C   UNL     1      -8.338   3.940  71.118  1.00  0.00    -0.072 C  
HETATM   18  C   UNL     1      -8.749   2.463  71.020  1.00  0.00    -0.063 C  
HETATM   19  O   UNL     1      -8.557   1.965  69.691  1.00  0.00    -0.046 OA 
HETATM   20  C   UNL     1      -9.316   2.735  68.751  1.00  0.00    -0.168 C  
HETATM   21  C   UNL     1      -8.961   4.232  68.822  1.00  0.00    -0.113 C  
ENDBRANCH  15  16
ENDBRANCH  14  15
ENDBRANCH  13  14
ENDBRANCH  12  13
ENDBRANCH   9  12
ENDBRANCH   5   6
ENDBRANCH   4   5
ENDBRANCH   3   4
ENDBRANCH   2   3
TORSDOF 9
ENDMDL
MODEL      211
REMARK 921   NORMALIZED FREE ENERGY PREDICTED BY IDOCK:   -2.81 KCAL/MOL
REMARK 922        TOTAL FREE ENERGY PREDICTED BY IDOCK:   -5.13 KCAL/MOL
REMARK 923 INTER-LIGAND FREE ENERGY PREDICTED BY IDOCK:   -4.23 KCAL/MOL
REMARK 924 INTRA-LIGAND FREE ENERGY PREDICTED BY IDOCK:   -0.90 KCAL/MOL
REMARK 927      BINDING AFFINITY PREDICTED BY RF-SCORE:    0.00 PKD
ROOT
HETATM    1  C   UNL     1      -9.544   4.000  64.822  1.00  0.00    -0.178 C  
HETATM    2  C   UNL     1      -8.091   3.919  65.237  1.00  0.00    -0.097 C  
ENDROOT
BRANCH   2   3
HETATM    3  C   UNL     1      -7.818   2.715  66.145  1.00  0.00    -0.081 C  
BRANCH   3   4
HETATM    4  C   UNL     1      -7.896   3.177  67.589  1.00  0.00    -0.075 C  
BRANCH   4   5
HETATM    5  O   UNL     1      -9.095   2.755  68.248  1.00  0.00    -0.137 OA 
BRANCH   5   6
HETATM    6  C   UNL     1      -9.573   3.693  69.138  1.00  0.00    -0.102 A  
HETATM    7  C   UNL     1      -9.414   3.597  70.521  1.00  0.00    -0.255 A  
HETATM    8  C   UNL     1      -9.939   4.557  71.370  1.00  0.00    -0.259 A  
HETATM    9  C   UNL     1     -10.640   5.649  70.868  1.00  0.00    -0.258 A  
HETATM   10  C   UNL     1     -10.257   4.794  68.619  1.00  0.00    -0.060 A  
HETATM   11  C   UNL     1     -10.788   5.768  69.486  1.00  0.00    -0.410 A  
BRANCH   9  12
HETATM   12  O   UNL     1     -11.202   6.624  71.663  1.00  0.00    -0.244 OA 
BRANCH  12  13
HETATM   13  C   UNL     1     -12.031   7.551  70.942  1.00  0.00    -0.251 C  
BRANCH  13  14
HETATM   14  C   UNL     1     -11.519   8.975  71.095  1.00  0.00    -0.376 C  
BRANCH  14  15
HETATM   15  C   UNL     1     -10.592   9.378  69.932  1.00  0.00    -0.234 C  
BRANCH  15  16
HETATM   16  N   UNL     1     -11.290   9.864  68.728  1.00  0.00    -0.067 NA 
HETATM   17  C   UNL     1     -11.601  11.310  68.760  1.00  0.00    -0.316 C  
HETATM   18  C   UNL     1     -10.383  12.217  68.525  1.00  0.00    -0.221 C  
HETATM   19  O   UNL     1      -9.752  11.915  67.275  1.00  0.00    -0.182 OA 
HETATM   20  C   UNL     1      -9.340  10.543  67.238  1.00  0.00    -0.146 C  
HETATM   21  C   UNL     1     -10.520   9.586  67.492  1.00  0.00    -0.275 C  
ENDBRANCH  15  16
ENDBRANCH  14  15
ENDBRANCH  13  14
ENDBRANCH  12  13
ENDBRANCH   9  12
ENDBRANCH   5   6
ENDBRANCH   4   5
ENDBRANCH   3   4
ENDBRANCH   2   3
TORSDOF 9
ENDMDL
MODEL      212
REMARK 921   NORMALIZED FREE ENERGY PREDICTED BY IDOCK:   -2.80 KCAL/MOL
REMARK 922        TOTAL FREE ENERGY PREDICTED BY IDOCK:   -5.11 KCAL/MOL
REMARK 923 INTER-LIGAND FREE ENERGY PREDICTED BY IDOCK:   -4.58 KCAL/MOL
REMARK 924 INTRA-LIGAND FREE ENERGY PREDICTED BY IDOCK:   -0.53 KCAL/MOL
REMARK 927      BINDING AFFINITY PREDICTED BY RF-SCORE:    0.00 PKD
ROOT
HETATM    1  C   UNL     1      -9.172   1.716  64.525  1.00  0.00    -0.129 C  
HETATM    2  C   UNL     1      -9.319   3.188  64.846  1.00  0.00    -0.149 C  
ENDROOT
BRANCH   2   3
HETATM    3  C   UNL     1      -8.601   4.074  63.824  1.00  0.00    -0.100 C  
BRANCH   3   4
HETATM    4  C   UNL     1      -7.977   5.246  64.560  1.00  0.00    -0.113 C  
BRANCH   4   5
HETATM    5  O   UNL     1      -8.739   5.664  65.697  1.00  0.00    -0.146 OA 
BRANCH   5   6
HETATM    6  C   UNL     1      -8.949   7.027  65.729  1.00  0.00    -0.005 A  
HETATM    7  C   UNL     1      -9.717   7.666  66.703  1.00  0.00    -0.283 A  
HETATM    8  C   UNL     1      -9.916   9.036  66.671  1.00  0.00    -0.349 A  
HETATM    9  C   UNL     1      -9.353   9.818  65.667  1.00  0.00    -0.227 A  
HETATM   10  C   UNL     1      -8.362   7.800  64.726  1.00  0.00    -0.051 A  
HETATM   11  C   UNL     1      -8.566   9.192  64.698  1.00  0.00    -0.206 A  
BRANCH   9  12
HETATM   12  O   UNL     1      -9.532  11.180  65.571  1.00  0.00    -0.208 OA 
BRANCH  12  13
HETATM   13  C   UNL     1      -9.745  11.826  66.836  1.00  0.00    -0.198 C  
BRANCH  13  14
HETATM   14  C   UNL     1      -9.390  13.304  66.763  1.00  0.00    -0.254 C  
BRANCH  14  15
HETATM   15  C   UNL     1      -9.907  14.078  67.990  1.00  0.00    -0.228 C  
BRANCH  15  16
HETATM   16  N   UNL     1     -11.113  14.888  67.744  1.00  0.00    -0.297 NA 
HETATM   17  C   UNL     1     -11.269  16.026  68.677  1.00  0.00    -0.366 C  
HETATM   18  C   UNL     1     -10.319  17.200  68.397  1.00  0.00    -0.362 C  
HETATM   19  O   UNL     1     -10.482  17.684  67.059  1.00  0.00    -0.336 OA 
HETATM   20  C   UNL     1     -10.239  16.636  66.112  1.00  0.00    -0.348 C  
HETATM   21  C   UNL     1     -11.151  15.420  66.361  1.00  0.00    -0.230 C  
ENDBRANCH  15  16
ENDBRANCH  14  15
ENDBRANCH  13  14
ENDBRANCH  12  13
ENDBRANCH   9  12
ENDBRANCH   5   6
ENDBRANCH   4   5
ENDBRANCH   3   4
ENDBRANCH   2   3
TORSDOF 9
ENDMDL
MODEL      213
REMARK 921   NORMALIZED FREE ENERGY PREDICTED BY IDOCK:   -2.78 KCAL/MOL
REMARK 922        TOTAL FREE ENERGY PREDICTED BY IDOCK:   -5.08 KCAL/MOL
REMARK 923 INTER-LIGAND FREE ENERGY PREDICTED BY IDOCK:   -4.26 KCAL/MOL
REMARK 924 INTRA-LIGAND FREE ENERGY PREDICTED BY IDOCK:   -0.82 KCAL/MOL
REMARK 927      BINDING AFFINITY PREDICTED BY RF-SCORE:    0.00 PKD
ROOT
HETATM    1  C   UNL     1     -14.251   8.458  71.857  1.00  0.00    -0.541 C  
HETATM    2  C   UNL     1     -13.238   7.377  71.548  1.00  0.00    -0.426 C  
ENDROOT
BRANCH   2   3
HETATM    3  C   UNL     1     -11.801   7.852  71.783  1.00  0.00    -0.333 C  
BRANCH   3   4
HETATM    4  C   UNL     1     -11.750   9.353  71.561  1.00  0.00    -0.394 C  
BRANCH   4   5
HETATM    5  O   UNL     1     -11.858   9.720  70.182  1.00  0.00    -0.196 OA 
BRANCH   5   6
HETATM    6  C   UNL     1     -10.650  10.096  69.633  1.00  0.00    -0.257 A  
HETATM    7  C   UNL     1      -9.421   9.580  70.045  1.00  0.00    -0.265 A  
HETATM    8  C   UNL     1      -8.235  10.012  69.476  1.00  0.00    -0.173 A  
HETATM    9  C   UNL     1      -8.235  10.975  68.471  1.00  0.00    -0.146 A  
HETATM   10  C   UNL     1     -10.666  11.047  68.612  1.00  0.00    -0.234 A  
HETATM   11  C   UNL     1      -9.459  11.483  68.034  1.00  0.00    -0.181 A  
BRANCH   9  12
HETATM   12  O   UNL     1      -7.088  11.459  67.881  1.00  0.00    -0.071 OA 
BRANCH  12  13
HETATM   13  C   UNL     1      -6.097  10.450  67.627  1.00  0.00    -0.052 C  
BRANCH  13  14
HETATM   14  C   UNL     1      -6.229   9.897  66.215  1.00  0.00    -0.067 C  
BRANCH  14  15
HETATM   15  C   UNL     1      -6.777   8.458  66.214  1.00  0.00    -0.065 C  
BRANCH  15  16
HETATM   16  N   UNL     1      -8.026   8.275  65.455  1.00  0.00    -0.119 NA 
HETATM   17  C   UNL     1      -8.000   7.121  64.528  1.00  0.00    -0.104 C  
HETATM   18  C   UNL     1      -8.123   5.757  65.225  1.00  0.00    -0.130 C  
HETATM   19  O   UNL     1      -9.321   5.685  66.005  1.00  0.00    -0.160 OA 
HETATM   20  C   UNL     1      -9.343   6.727  66.989  1.00  0.00    -0.143 C  
HETATM   21  C   UNL     1      -9.200   8.120  66.347  1.00  0.00    -0.199 C  
ENDBRANCH  15  16
ENDBRANCH  14  15
ENDBRANCH  13  14
ENDBRANCH  12  13
ENDBRANCH   9  12
ENDBRANCH   5   6
ENDBRANCH   4   5
ENDBRANCH   3   4
ENDBRANCH   2   3
TORSDOF 9
ENDMDL
MODEL      214
REMARK 921   NORMALIZED FREE ENERGY PREDICTED BY IDOCK:   -2.77 KCAL/MOL
REMARK 922        TOTAL FREE ENERGY PREDICTED BY IDOCK:   -5.06 KCAL/MOL
REMARK 923 INTER-LIGAND FREE ENERGY PREDICTED BY IDOCK:   -4.33 KCAL/MOL
REMARK 924 INTRA-LIGAND FREE ENERGY PREDICTED BY IDOCK:   -0.73 KCAL/MOL
REMARK 927      BINDING AFFINITY PREDICTED BY RF-SCORE:    0.00 PKD
ROOT
HETATM    1  C   UNL     1     -12.014  11.960  69.755  1.00  0.00    -0.377 C  
HETATM    2  C   UNL     1     -11.173  12.743  68.769  1.00  0.00    -0.327 C  
ENDROOT
BRANCH   2   3
HETATM    3  C   UNL     1     -11.739  12.672  67.347  1.00  0.00    -0.432 C  
BRANCH   3   4
HETATM    4  C   UNL     1     -11.067  11.521  66.621  1.00  0.00    -0.295 C  
BRANCH   4   5
HETATM    5  O   UNL     1      -9.868  11.076  67.264  1.00  0.00    -0.175 OA 
BRANCH   5   6
HETATM    6  C   UNL     1      -9.921   9.750  67.636  1.00  0.00    -0.174 A  
HETATM    7  C   UNL     1     -10.410   8.736  66.812  1.00  0.00    -0.328 A  
HETATM    8  C   UNL     1     -10.464   7.423  67.247  1.00  0.00    -0.385 A  
HETATM    9  C   UNL     1     -10.029   7.074  68.522  1.00  0.00    -0.155 A  
HETATM   10  C   UNL     1      -9.462   9.412  68.910  1.00  0.00    -0.154 A  
HETATM   11  C   UNL     1      -9.517   8.075  69.349  1.00  0.00    -0.159 A  
BRANCH   9  12
HETATM   12  O   UNL     1     -10.077   5.790  69.019  1.00  0.00    -0.161 OA 
BRANCH  12  13
HETATM   13  C   UNL     1      -8.850   5.060  68.853  1.00  0.00    -0.093 C  
BRANCH  13  14
HETATM   14  C   UNL     1      -8.209   4.754  70.199  1.00  0.00    -0.068 C  
BRANCH  14  15
HETATM   15  C   UNL     1      -9.165   5.055  71.369  1.00  0.00    -0.146 C  
BRANCH  15  16
HETATM   16  N   UNL     1      -8.853   4.340  72.619  1.00  0.00    -0.104 NA 
HETATM   17  C   UNL     1      -9.769   4.661  73.736  1.00  0.00    -0.136 C  
HETATM   18  C   UNL     1     -11.157   4.014  73.613  1.00  0.00    -0.247 C  
HETATM   19  O   UNL     1     -11.052   2.590  73.507  1.00  0.00    -0.189 OA 
HETATM   20  C   UNL     1     -10.254   2.228  72.373  1.00  0.00    -0.152 C  
HETATM   21  C   UNL     1      -8.854   2.869  72.432  1.00  0.00    -0.075 C  
ENDBRANCH  15  16
ENDBRANCH  14  15
ENDBRANCH  13  14
ENDBRANCH  12  13
ENDBRANCH   9  12
ENDBRANCH   5   6
ENDBRANCH   4   5
ENDBRANCH   3   4
ENDBRANCH   2   3
TORSDOF 9
ENDMDL
MODEL      215
REMARK 921   NORMALIZED FREE ENERGY PREDICTED BY IDOCK:   -2.72 KCAL/MOL
REMARK 922        TOTAL FREE ENERGY PREDICTED BY IDOCK:   -4.98 KCAL/MOL
REMARK 923 INTER-LIGAND FREE ENERGY PREDICTED BY IDOCK:   -3.93 KCAL/MOL
REMARK 924 INTRA-LIGAND FREE ENERGY PREDICTED BY IDOCK:   -1.05 KCAL/MOL
REMARK 927      BINDING AFFINITY PREDICTED BY RF-SCORE:    0.00 PKD
ROOT
HETATM    1  C   UNL     1      -7.021  10.585  67.294  1.00  0.00    -0.087 C  
HETATM    2  C   UNL     1      -6.429  11.901  67.753  1.00  0.00    -0.084 C  
ENDROOT
BRANCH   2   3
HETATM    3  C   UNL     1      -6.414  12.022  69.281  1.00  0.00    -0.111 C  
BRANCH   3   4
HETATM    4  C   UNL     1      -5.426  13.108  69.666  1.00  0.00    -0.091 C  
BRANCH   4   5
HETATM    5  O   UNL     1      -6.004  14.125  70.491  1.00  0.00    -0.157 OA 
BRANCH   5   6
HETATM    6  C   UNL     1      -6.453  15.210  69.768  1.00  0.00    -0.166 A  
HETATM    7  C   UNL     1      -5.604  16.143  69.171  1.00  0.00    -0.114 A  
HETATM    8  C   UNL     1      -6.110  17.230  68.478  1.00  0.00    -0.155 A  
HETATM    9  C   UNL     1      -7.482  17.422  68.353  1.00  0.00    -0.234 A  
HETATM   10  C   UNL     1      -7.832  15.379  69.634  1.00  0.00    -0.149 A  
HETATM   11  C   UNL     1      -8.342  16.484  68.927  1.00  0.00    -0.241 A  
BRANCH   9  12
HETATM   12  O   UNL     1      -8.045  18.493  67.694  1.00  0.00    -0.246 OA 
BRANCH  12  13
HETATM   13  C   UNL     1      -9.452  18.345  67.446  1.00  0.00    -0.273 C  
BRANCH  13  14
HETATM   14  C   UNL     1      -9.727  18.126  65.965  1.00  0.00    -0.115 C  
BRANCH  14  15
HETATM   15  C   UNL     1     -10.998  17.285  65.738  1.00  0.00     0.133 C  
BRANCH  15  16
HETATM   16  N   UNL     1     -10.805  16.093  64.894  1.00  0.00    -0.643 NA 
HETATM   17  C   UNL     1      -9.771  15.163  65.401  1.00  0.00    -0.204 C  
HETATM   18  C   UNL     1     -10.214  14.337  66.618  1.00  0.00    -0.272 C  
HETATM   19  O   UNL     1     -11.396  13.584  66.323  1.00  0.00    -0.299 OA 
HETATM   20  C   UNL     1     -12.461  14.456  65.925  1.00  0.00    -0.300 C  
HETATM   21  C   UNL     1     -12.063  15.328  64.719  1.00  0.00    -0.122 C  
ENDBRANCH  15  16
ENDBRANCH  14  15
ENDBRANCH  13  14
ENDBRANCH  12  13
ENDBRANCH   9  12
ENDBRANCH   5   6
ENDBRANCH   4   5
ENDBRANCH   3   4
ENDBRANCH   2   3
TORSDOF 9
ENDMDL
MODEL      216
REMARK 921   NORMALIZED FREE ENERGY PREDICTED BY IDOCK:   -2.71 KCAL/MOL
REMARK 922        TOTAL FREE ENERGY PREDICTED BY IDOCK:   -4.97 KCAL/MOL
REMARK 923 INTER-LIGAND FREE ENERGY PREDICTED BY IDOCK:   -4.07 KCAL/MOL
REMARK 924 INTRA-LIGAND FREE ENERGY PREDICTED BY IDOCK:   -0.90 KCAL/MOL
REMARK 927      BINDING AFFINITY PREDICTED BY RF-SCORE:    0.00 PKD
ROOT
HETATM    1  C   UNL     1     -11.956  13.983  67.977  1.00  0.00    -0.386 C  
HETATM    2  C   UNL     1     -10.759  14.353  67.128  1.00  0.00    -0.283 C  
ENDROOT
BRANCH   2   3
HETATM    3  C   UNL     1     -10.929  13.910  65.671  1.00  0.00    -0.290 C  
BRANCH   3   4
HETATM    4  C   UNL     1     -10.447  12.476  65.547  1.00  0.00    -0.279 C  
BRANCH   4   5
HETATM    5  O   UNL     1      -9.356  12.173  66.423  1.00  0.00    -0.221 OA 
BRANCH   5   6
HETATM    6  C   UNL     1      -9.613  11.094  67.242  1.00  0.00    -0.165 A  
HETATM    7  C   UNL     1     -10.335   9.972  66.836  1.00  0.00    -0.297 A  
HETATM    8  C   UNL     1     -10.586   8.927  67.710  1.00  0.00    -0.266 A  
HETATM    9  C   UNL     1     -10.120   8.964  69.021  1.00  0.00    -0.197 A  
HETATM   10  C   UNL     1      -9.123  11.137  68.548  1.00  0.00    -0.175 A  
HETATM   11  C   UNL     1      -9.378  10.072  69.433  1.00  0.00    -0.237 A  
BRANCH   9  12
HETATM   12  O   UNL     1     -10.354   7.967  69.941  1.00  0.00    -0.210 OA 
BRANCH  12  13
HETATM   13  C   UNL     1     -11.216   6.924  69.457  1.00  0.00    -0.200 C  
BRANCH  13  14
HETATM   14  C   UNL     1     -10.633   5.550  69.754  1.00  0.00    -0.388 C  
BRANCH  14  15
HETATM   15  C   UNL     1      -9.166   5.640  70.215  1.00  0.00    -0.151 C  
BRANCH  15  16
HETATM   16  N   UNL     1      -8.171   5.485  69.139  1.00  0.00    -0.094 NA 
HETATM   17  C   UNL     1      -6.777   5.723  69.575  1.00  0.00    -0.059 C  
HETATM   18  C   UNL     1      -6.179   4.580  70.409  1.00  0.00    -0.022 C  
HETATM   19  O   UNL     1      -6.225   3.342  69.691  1.00  0.00    -0.027 OA 
HETATM   20  C   UNL     1      -7.575   3.017  69.336  1.00  0.00    -0.044 C  
HETATM   21  C   UNL     1      -8.234   4.142  68.515  1.00  0.00    -0.083 C  
ENDBRANCH  15  16
ENDBRANCH  14  15
ENDBRANCH  13  14
ENDBRANCH  12  13
ENDBRANCH   9  12
ENDBRANCH   5   6
ENDBRANCH   4   5
ENDBRANCH   3   4
ENDBRANCH   2   3
TORSDOF 9
ENDMDL
MODEL      217
REMARK 921   NORMALIZED FREE ENERGY PREDICTED BY IDOCK:   -2.70 KCAL/MOL
REMARK 922        TOTAL FREE ENERGY PREDICTED BY IDOCK:   -4.96 KCAL/MOL
REMARK 923 INTER-LIGAND FREE ENERGY PREDICTED BY IDOCK:   -3.96 KCAL/MOL
REMARK 924 INTRA-LIGAND FREE ENERGY PREDICTED BY IDOCK:   -1.00 KCAL/MOL
REMARK 927      BINDING AFFINITY PREDICTED BY RF-SCORE:    0.00 PKD
ROOT
HETATM    1  C   UNL     1      -9.439   3.867  67.421  1.00  0.00    -0.236 C  
HETATM    2  C   UNL     1      -9.453   3.570  65.937  1.00  0.00    -0.143 C  
ENDROOT
BRANCH   2   3
HETATM    3  C   UNL     1      -9.060   4.793  65.102  1.00  0.00    -0.155 C  
BRANCH   3   4
HETATM    4  C   UNL     1      -9.072   6.013  66.004  1.00  0.00    -0.129 C  
BRANCH   4   5
HETATM    5  O   UNL     1      -7.981   6.906  65.754  1.00  0.00    -0.103 OA 
BRANCH   5   6
HETATM    6  C   UNL     1      -7.983   8.000  66.592  1.00  0.00    -0.102 A  
HETATM    7  C   UNL     1      -8.649   8.033  67.818  1.00  0.00    -0.128 A  
HETATM    8  C   UNL     1      -8.640   9.169  68.608  1.00  0.00    -0.128 A  
HETATM    9  C   UNL     1      -7.961  10.315  68.204  1.00  0.00    -0.109 A  
HETATM   10  C   UNL     1      -7.282   9.136  66.183  1.00  0.00    -0.090 A  
HETATM   11  C   UNL     1      -7.273  10.289  66.990  1.00  0.00    -0.091 A  
BRANCH   9  12
HETATM   12  O   UNL     1      -7.933  11.482  68.936  1.00  0.00    -0.131 OA 
BRANCH  12  13
HETATM   13  C   UNL     1      -7.816  12.666  68.131  1.00  0.00    -0.145 C  
BRANCH  13  14
HETATM   14  C   UNL     1      -9.180  13.287  67.871  1.00  0.00    -0.213 C  
BRANCH  14  15
HETATM   15  C   UNL     1      -9.335  13.733  66.404  1.00  0.00    -0.196 C  
BRANCH  15  16
HETATM   16  N   UNL     1     -10.659  13.468  65.816  1.00  0.00    -0.278 NA 
HETATM   17  C   UNL     1     -10.657  13.410  64.337  1.00  0.00    -0.407 C  
HETATM   18  C   UNL     1     -10.049  12.121  63.763  1.00  0.00    -0.379 C  
HETATM   19  O   UNL     1     -10.733  10.965  64.262  1.00  0.00    -0.353 OA 
HETATM   20  C   UNL     1     -10.673  10.925  65.693  1.00  0.00    -0.108 C  
HETATM   21  C   UNL     1     -11.250  12.206  66.324  1.00  0.00    -0.334 C  
ENDBRANCH  15  16
ENDBRANCH  14  15
ENDBRANCH  13  14
ENDBRANCH  12  13
ENDBRANCH   9  12
ENDBRANCH   5   6
ENDBRANCH   4   5
ENDBRANCH   3   4
ENDBRANCH   2   3
TORSDOF 9
ENDMDL
MODEL      218
REMARK 921   NORMALIZED FREE ENERGY PREDICTED BY IDOCK:   -2.64 KCAL/MOL
REMARK 922        TOTAL FREE ENERGY PREDICTED BY IDOCK:   -4.86 KCAL/MOL
REMARK 923 INTER-LIGAND FREE ENERGY PREDICTED BY IDOCK:   -3.98 KCAL/MOL
REMARK 924 INTRA-LIGAND FREE ENERGY PREDICTED BY IDOCK:   -0.89 KCAL/MOL
REMARK 927      BINDING AFFINITY PREDICTED BY RF-SCORE:    0.00 PKD
ROOT
HETATM    1  C   UNL     1      -9.302  12.465  66.656  1.00  0.00    -0.227 C  
HETATM    2  C   UNL     1      -8.825  11.038  66.493  1.00  0.00    -0.173 C  
ENDROOT
BRANCH   2   3
HETATM    3  C   UNL     1      -9.974  10.031  66.606  1.00  0.00    -0.274 C  
BRANCH   3   4
HETATM    4  C   UNL     1      -9.852   9.312  67.938  1.00  0.00    -0.167 C  
BRANCH   4   5
HETATM    5  O   UNL     1     -10.849   9.713  68.884  1.00  0.00    -0.221 OA 
BRANCH   5   6
HETATM    6  C   UNL     1     -10.742   9.048  70.087  1.00  0.00    -0.233 A  
HETATM    7  C   UNL     1      -9.793   9.362  71.061  1.00  0.00    -0.317 A  
HETATM    8  C   UNL     1      -9.713   8.643  72.241  1.00  0.00    -0.357 A  
HETATM    9  C   UNL     1     -10.581   7.585  72.493  1.00  0.00    -0.270 A  
HETATM   10  C   UNL     1     -11.631   8.002  70.335  1.00  0.00    -0.075 A  
HETATM   11  C   UNL     1     -11.549   7.274  71.536  1.00  0.00    -0.306 A  
BRANCH   9  12
HETATM   12  O   UNL     1     -10.538   6.820  73.638  1.00  0.00    -0.314 OA 
BRANCH  12  13
HETATM   13  C   UNL     1     -10.958   5.460  73.441  1.00  0.00    -0.297 C  
BRANCH  13  14
HETATM   14  C   UNL     1      -9.876   4.484  73.878  1.00  0.00    -0.175 C  
BRANCH  14  15
HETATM   15  C   UNL     1      -8.779   4.330  72.808  1.00  0.00    -0.104 C  
BRANCH  15  16
HETATM   16  N   UNL     1      -9.258   4.414  71.418  1.00  0.00    -0.127 NA 
HETATM   17  C   UNL     1      -8.237   4.897  70.461  1.00  0.00    -0.096 C  
HETATM   18  C   UNL     1      -7.160   3.856  70.118  1.00  0.00    -0.041 C  
HETATM   19  O   UNL     1      -7.750   2.664  69.588  1.00  0.00    -0.043 OA 
HETATM   20  C   UNL     1      -8.675   2.101  70.527  1.00  0.00    -0.062 C  
HETATM   21  C   UNL     1      -9.768   3.112  70.926  1.00  0.00    -0.100 C  
ENDBRANCH  15  16
ENDBRANCH  14  15
ENDBRANCH  13  14
ENDBRANCH  12  13
ENDBRANCH   9  12
ENDBRANCH   5   6
ENDBRANCH   4   5
ENDBRANCH   3   4
ENDBRANCH   2   3
TORSDOF 9
ENDMDL
MODEL      219
REMARK 921   NORMALIZED FREE ENERGY PREDICTED BY IDOCK:   -2.60 KCAL/MOL
REMARK 922        TOTAL FREE ENERGY PREDICTED BY IDOCK:   -4.81 KCAL/MOL
REMARK 923 INTER-LIGAND FREE ENERGY PREDICTED BY IDOCK:   -4.08 KCAL/MOL
REMARK 924 INTRA-LIGAND FREE ENERGY PREDICTED BY IDOCK:   -0.73 KCAL/MOL
REMARK 927      BINDING AFFINITY PREDICTED BY RF-SCORE:    0.00 PKD
ROOT
HETATM    1  C   UNL     1      -6.505  19.892  65.239  1.00  0.00    -0.308 C  
HETATM    2  C   UNL     1      -7.253  19.253  66.390  1.00  0.00    -0.252 C  
ENDROOT
BRANCH   2   3
HETATM    3  C   UNL     1      -6.325  18.438  67.297  1.00  0.00    -0.192 C  
BRANCH   3   4
HETATM    4  C   UNL     1      -7.180  17.589  68.219  1.00  0.00    -0.217 C  
BRANCH   4   5
HETATM    5  O   UNL     1      -8.484  17.326  67.691  1.00  0.00    -0.205 OA 
BRANCH   5   6
HETATM    6  C   UNL     1      -8.830  15.993  67.760  1.00  0.00    -0.176 A  
HETATM    7  C   UNL     1     -10.040  15.537  68.285  1.00  0.00    -0.218 A  
HETATM    8  C   UNL     1     -10.325  14.184  68.353  1.00  0.00    -0.249 A  
HETATM    9  C   UNL     1      -9.413  13.237  67.897  1.00  0.00    -0.214 A  
HETATM   10  C   UNL     1      -7.914  15.056  67.280  1.00  0.00    -0.234 A  
HETATM   11  C   UNL     1      -8.208  13.681  67.350  1.00  0.00    -0.187 A  
BRANCH   9  12
HETATM   12  O   UNL     1      -9.630  11.878  67.958  1.00  0.00    -0.180 OA 
BRANCH  12  13
HETATM   13  C   UNL     1      -9.334  11.190  66.732  1.00  0.00    -0.177 C  
BRANCH  13  14
HETATM   14  C   UNL     1      -8.309  10.089  66.956  1.00  0.00    -0.121 C  
BRANCH  14  15
HETATM   15  C   UNL     1      -8.977   8.712  67.129  1.00  0.00    -0.132 C  
BRANCH  15  16
HETATM   16  N   UNL     1      -8.525   7.951  68.308  1.00  0.00    -0.124 NA 
HETATM   17  C   UNL     1      -8.334   8.781  69.518  1.00  0.00    -0.119 C  
HETATM   18  C   UNL     1      -9.645   9.213  70.193  1.00  0.00    -0.206 C  
HETATM   19  O   UNL     1     -10.441   8.075  70.543  1.00  0.00    -0.208 OA 
HETATM   20  C   UNL     1     -10.738   7.293  69.380  1.00  0.00    -0.225 C  
HETATM   21  C   UNL     1      -9.457   6.850  68.648  1.00  0.00    -0.134 C  
ENDBRANCH  15  16
ENDBRANCH  14  15
ENDBRANCH  13  14
ENDBRANCH  12  13
ENDBRANCH   9  12
ENDBRANCH   5   6
ENDBRANCH   4   5
ENDBRANCH   3   4
ENDBRANCH   2   3
TORSDOF 9
ENDMDL
MODEL      220
REMARK 921   NORMALIZED FREE ENERGY PREDICTED BY IDOCK:   -2.56 KCAL/MOL
REMARK 922        TOTAL FREE ENERGY PREDICTED BY IDOCK:   -4.74 KCAL/MOL
REMARK 923 INTER-LIGAND FREE ENERGY PREDICTED BY IDOCK:   -4.24 KCAL/MOL
REMARK 924 INTRA-LIGAND FREE ENERGY PREDICTED BY IDOCK:   -0.50 KCAL/MOL
REMARK 927      BINDING AFFINITY PREDICTED BY RF-SCORE:    0.00 PKD
ROOT
HETATM    1  C   UNL     1     -10.193  14.807  65.784  1.00  0.00    -0.359 C  
HETATM    2  C   UNL     1      -9.815  13.406  66.217  1.00  0.00    -0.295 C  
ENDROOT
BRANCH   2   3
HETATM    3  C   UNL     1     -10.818  12.823  67.218  1.00  0.00    -0.277 C  
BRANCH   3   4
HETATM    4  C   UNL     1     -11.274  11.469  66.707  1.00  0.00    -0.285 C  
BRANCH   4   5
HETATM    5  O   UNL     1     -10.195  10.547  66.520  1.00  0.00    -0.217 OA 
BRANCH   5   6
HETATM    6  C   UNL     1      -9.909   9.821  67.657  1.00  0.00    -0.165 A  
HETATM    7  C   UNL     1     -10.886   9.237  68.464  1.00  0.00    -0.119 A  
HETATM    8  C   UNL     1     -10.544   8.539  69.610  1.00  0.00    -0.221 A  
HETATM    9  C   UNL     1      -9.213   8.397  69.990  1.00  0.00    -0.158 A  
HETATM   10  C   UNL     1      -8.569   9.670  68.015  1.00  0.00    -0.119 A  
HETATM   11  C   UNL     1      -8.225   8.959  69.180  1.00  0.00    -0.118 A  
BRANCH   9  12
HETATM   12  O   UNL     1      -8.812   7.734  71.129  1.00  0.00    -0.133 OA 
BRANCH  12  13
HETATM   13  C   UNL     1      -9.112   8.438  72.345  1.00  0.00    -0.256 C  
BRANCH  13  14
HETATM   14  C   UNL     1     -10.104   7.660  73.197  1.00  0.00    -0.382 C  
BRANCH  14  15
HETATM   15  C   UNL     1      -9.394   6.800  74.259  1.00  0.00    -0.233 C  
BRANCH  15  16
HETATM   16  N   UNL     1     -10.055   5.517  74.556  1.00  0.00    -0.253 NA 
HETATM   17  C   UNL     1     -11.154   5.181  73.623  1.00  0.00    -0.234 C  
HETATM   18  C   UNL     1     -10.678   4.714  72.239  1.00  0.00    -0.078 C  
HETATM   19  O   UNL     1      -9.813   3.578  72.350  1.00  0.00    -0.144 OA 
HETATM   20  C   UNL     1      -8.676   3.890  73.165  1.00  0.00    -0.094 C  
HETATM   21  C   UNL     1      -9.095   4.387  74.561  1.00  0.00    -0.102 C  
ENDBRANCH  15  16
ENDBRANCH  14  15
ENDBRANCH  13  14
ENDBRANCH  12  13
ENDBRANCH   9  12
ENDBRANCH   5   6
ENDBRANCH   4   5
ENDBRANCH   3   4
ENDBRANCH   2   3
TORSDOF 9
ENDMDL
MODEL      221
REMARK 921   NORMALIZED FREE ENERGY PREDICTED BY IDOCK:   -2.54 KCAL/MOL
REMARK 922        TOTAL FREE ENERGY PREDICTED BY IDOCK:   -4.72 KCAL/MOL
REMARK 923 INTER-LIGAND FREE ENERGY PREDICTED BY IDOCK:   -3.81 KCAL/MOL
REMARK 924 INTRA-LIGAND FREE ENERGY PREDICTED BY IDOCK:   -0.91 KCAL/MOL
REMARK 927      BINDING AFFINITY PREDICTED BY RF-SCORE:    0.00 PKD
ROOT
HETATM    1  C   UNL     1      -5.616  10.231  64.682  1.00  0.00    -0.132 C  
HETATM    2  C   UNL     1      -6.589   9.730  65.727  1.00  0.00    -0.088 C  
ENDROOT
BRANCH   2   3
HETATM    3  C   UNL     1      -5.915   9.520  67.087  1.00  0.00    -0.052 C  
BRANCH   3   4
HETATM    4  C   UNL     1      -6.580   8.342  67.775  1.00  0.00    -0.062 C  
BRANCH   4   5
HETATM    5  O   UNL     1      -7.947   8.167  67.389  1.00  0.00    -0.114 OA 
BRANCH   5   6
HETATM    6  C   UNL     1      -8.831   8.443  68.411  1.00  0.00    -0.140 A  
HETATM    7  C   UNL     1     -10.161   8.022  68.415  1.00  0.00    -0.239 A  
HETATM    8  C   UNL     1     -11.013   8.350  69.457  1.00  0.00    -0.051 A  
HETATM    9  C   UNL     1     -10.565   9.108  70.534  1.00  0.00    -0.235 A  
HETATM   10  C   UNL     1      -8.363   9.187  69.495  1.00  0.00    -0.126 A  
HETATM   11  C   UNL     1      -9.230   9.518  70.552  1.00  0.00    -0.284 A  
BRANCH   9  12
HETATM   12  O   UNL     1     -11.368   9.484  71.588  1.00  0.00    -0.383 OA 
BRANCH  12  13
HETATM   13  C   UNL     1     -11.991   8.378  72.262  1.00  0.00    -0.389 C  
BRANCH  13  14
HETATM   14  C   UNL     1     -10.957   7.513  72.967  1.00  0.00    -0.443 C  
BRANCH  14  15
HETATM   15  C   UNL     1     -11.137   6.020  72.635  1.00  0.00    -0.275 C  
BRANCH  15  16
HETATM   16  N   UNL     1     -10.107   5.458  71.744  1.00  0.00    -0.190 NA 
HETATM   17  C   UNL     1      -8.781   6.100  71.884  1.00  0.00    -0.137 C  
HETATM   18  C   UNL     1      -8.022   5.697  73.157  1.00  0.00    -0.111 C  
HETATM   19  O   UNL     1      -7.848   4.277  73.223  1.00  0.00    -0.084 OA 
HETATM   20  C   UNL     1      -9.118   3.614  73.194  1.00  0.00    -0.098 C  
HETATM   21  C   UNL     1      -9.934   4.000  71.946  1.00  0.00    -0.176 C  
ENDBRANCH  15  16
ENDBRANCH  14  15
ENDBRANCH  13  14
ENDBRANCH  12  13
ENDBRANCH   9  12
ENDBRANCH   5   6
ENDBRANCH   4   5
ENDBRANCH   3   4
ENDBRANCH   2   3
TORSDOF 9
ENDMDL
MODEL      222
REMARK 921   NORMALIZED FREE ENERGY PREDICTED BY IDOCK:   -2.53 KCAL/MOL
REMARK 922        TOTAL FREE ENERGY PREDICTED BY IDOCK:   -4.70 KCAL/MOL
REMARK 923 INTER-LIGAND FREE ENERGY PREDICTED BY IDOCK:   -3.37 KCAL/MOL
REMARK 924 INTRA-LIGAND FREE ENERGY PREDICTED BY IDOCK:   -1.33 KCAL/MOL
REMARK 927      BINDING AFFINITY PREDICTED BY RF-SCORE:    0.00 PKD
ROOT
HETATM    1  C   UNL     1      -9.624   9.133  71.212  1.00  0.00    -0.331 C  
HETATM    2  C   UNL     1     -11.058   8.863  71.615  1.00  0.00    -0.420 C  
ENDROOT
BRANCH   2   3
HETATM    3  C   UNL     1     -11.613   7.597  70.953  1.00  0.00    -0.299 C  
BRANCH   3   4
HETATM    4  C   UNL     1     -11.980   6.608  72.044  1.00  0.00    -0.319 C  
BRANCH   4   5
HETATM    5  O   UNL     1     -10.925   6.397  72.989  1.00  0.00    -0.252 OA 
BRANCH   5   6
HETATM    6  C   UNL     1      -9.919   5.593  72.496  1.00  0.00    -0.168 A  
HETATM    7  C   UNL     1      -8.576   5.970  72.466  1.00  0.00    -0.119 A  
HETATM    8  C   UNL     1      -7.610   5.133  71.935  1.00  0.00    -0.096 A  
HETATM    9  C   UNL     1      -7.950   3.887  71.417  1.00  0.00    -0.068 A  
HETATM   10  C   UNL     1     -10.272   4.338  71.998  1.00  0.00    -0.220 A  
HETATM   11  C   UNL     1      -9.287   3.489  71.460  1.00  0.00    -0.209 A  
BRANCH   9  12
HETATM   12  O   UNL     1      -7.038   3.019  70.857  1.00  0.00    -0.033 OA 
BRANCH  12  13
HETATM   13  C   UNL     1      -6.251   3.605  69.807  1.00  0.00    -0.028 C  
BRANCH  13  14
HETATM   14  C   UNL     1      -6.813   3.248  68.439  1.00  0.00    -0.049 C  
BRANCH  14  15
HETATM   15  C   UNL     1      -7.800   4.316  67.930  1.00  0.00    -0.079 C  
BRANCH  15  16
HETATM   16  N   UNL     1      -7.242   5.676  67.835  1.00  0.00    -0.071 NA 
HETATM   17  C   UNL     1      -7.081   6.162  66.446  1.00  0.00    -0.068 C  
HETATM   18  C   UNL     1      -8.400   6.563  65.768  1.00  0.00    -0.143 C  
HETATM   19  O   UNL     1      -9.080   7.570  66.525  1.00  0.00    -0.153 OA 
HETATM   20  C   UNL     1      -9.349   7.104  67.853  1.00  0.00    -0.128 C  
HETATM   21  C   UNL     1      -8.062   6.665  68.575  1.00  0.00    -0.119 C  
ENDBRANCH  15  16
ENDBRANCH  14  15
ENDBRANCH  13  14
ENDBRANCH  12  13
ENDBRANCH   9  12
ENDBRANCH   5   6
ENDBRANCH   4   5
ENDBRANCH   3   4
ENDBRANCH   2   3
TORSDOF 9
ENDMDL
MODEL      223
REMARK 921   NORMALIZED FREE ENERGY PREDICTED BY IDOCK:   -2.48 KCAL/MOL
REMARK 922        TOTAL FREE ENERGY PREDICTED BY IDOCK:   -4.62 KCAL/MOL
REMARK 923 INTER-LIGAND FREE ENERGY PREDICTED BY IDOCK:   -3.43 KCAL/MOL
REMARK 924 INTRA-LIGAND FREE ENERGY PREDICTED BY IDOCK:   -1.19 KCAL/MOL
REMARK 927      BINDING AFFINITY PREDICTED BY RF-SCORE:    0.00 PKD
ROOT
HETATM    1  C   UNL     1      -5.928  10.036  64.268  1.00  0.00    -0.130 C  
HETATM    2  C   UNL     1      -7.119  10.124  65.198  1.00  0.00    -0.137 C  
ENDROOT
BRANCH   2   3
HETATM    3  C   UNL     1      -6.780  10.860  66.499  1.00  0.00    -0.133 C  
BRANCH   3   4
HETATM    4  C   UNL     1      -7.318  10.048  67.663  1.00  0.00    -0.089 C  
BRANCH   4   5
HETATM    5  O   UNL     1      -6.285   9.499  68.488  1.00  0.00    -0.047 OA 
BRANCH   5   6
HETATM    6  C   UNL     1      -6.603   8.254  68.986  1.00  0.00    -0.048 A  
HETATM    7  C   UNL     1      -6.360   7.864  70.303  1.00  0.00    -0.037 A  
HETATM    8  C   UNL     1      -6.676   6.590  70.744  1.00  0.00    -0.058 A  
HETATM    9  C   UNL     1      -7.251   5.659  69.883  1.00  0.00    -0.069 A  
HETATM   10  C   UNL     1      -7.197   7.337  68.117  1.00  0.00    -0.091 A  
HETATM   11  C   UNL     1      -7.518   6.043  68.568  1.00  0.00    -0.087 A  
BRANCH   9  12
HETATM   12  O   UNL     1      -7.568   4.371  70.256  1.00  0.00    -0.049 OA 
BRANCH  12  13
HETATM   13  C   UNL     1      -8.547   4.298  71.306  1.00  0.00    -0.101 C  
BRANCH  13  14
HETATM   14  C   UNL     1      -9.953   4.491  70.757  1.00  0.00    -0.269 C  
BRANCH  14  15
HETATM   15  C   UNL     1     -10.717   5.593  71.516  1.00  0.00    -0.242 C  
BRANCH  15  16
HETATM   16  N   UNL     1     -11.499   6.501  70.660  1.00  0.00    -0.352 NA 
HETATM   17  C   UNL     1     -12.444   7.362  71.407  1.00  0.00    -0.368 C  
HETATM   18  C   UNL     1     -11.772   8.517  72.165  1.00  0.00    -0.378 C  
HETATM   19  O   UNL     1     -11.014   9.342  71.275  1.00  0.00    -0.317 OA 
HETATM   20  C   UNL     1     -10.014   8.568  70.601  1.00  0.00    -0.189 C  
HETATM   21  C   UNL     1     -10.629   7.379  69.840  1.00  0.00    -0.236 C  
ENDBRANCH  15  16
ENDBRANCH  14  15
ENDBRANCH  13  14
ENDBRANCH  12  13
ENDBRANCH   9  12
ENDBRANCH   5   6
ENDBRANCH   4   5
ENDBRANCH   3   4
ENDBRANCH   2   3
TORSDOF 9
ENDMDL
MODEL      224
REMARK 921   NORMALIZED FREE ENERGY PREDICTED BY IDOCK:   -2.39 KCAL/MOL
REMARK 922        TOTAL FREE ENERGY PREDICTED BY IDOCK:   -4.49 KCAL/MOL
REMARK 923 INTER-LIGAND FREE ENERGY PREDICTED BY IDOCK:   -3.67 KCAL/MOL
REMARK 924 INTRA-LIGAND FREE ENERGY PREDICTED BY IDOCK:   -0.83 KCAL/MOL
REMARK 927      BINDING AFFINITY PREDICTED BY RF-SCORE:    0.00 PKD
ROOT
HETATM    1  C   UNL     1     -12.030  13.787  68.328  1.00  0.00    -0.392 C  
HETATM    2  C   UNL     1     -11.497  14.503  67.105  1.00  0.00    -0.383 C  
ENDROOT
BRANCH   2   3
HETATM    3  C   UNL     1      -9.986  14.312  66.940  1.00  0.00    -0.263 C  
BRANCH   3   4
HETATM    4  C   UNL     1      -9.429  13.752  68.236  1.00  0.00    -0.214 C  
BRANCH   4   5
HETATM    5  O   UNL     1      -8.203  13.036  68.057  1.00  0.00    -0.140 OA 
BRANCH   5   6
HETATM    6  C   UNL     1      -8.393  11.771  67.543  1.00  0.00    -0.154 A  
HETATM    7  C   UNL     1      -7.652  11.250  66.481  1.00  0.00    -0.111 A  
HETATM    8  C   UNL     1      -7.902   9.981  65.987  1.00  0.00    -0.119 A  
HETATM    9  C   UNL     1      -8.901   9.184  66.538  1.00  0.00    -0.134 A  
HETATM   10  C   UNL     1      -9.384  10.975  68.118  1.00  0.00    -0.173 A  
HETATM   11  C   UNL     1      -9.635   9.685  67.615  1.00  0.00    -0.167 A  
BRANCH   9  12
HETATM   12  O   UNL     1      -9.211   7.924  66.078  1.00  0.00    -0.172 OA 
BRANCH  12  13
HETATM   13  C   UNL     1      -8.286   7.422  65.099  1.00  0.00    -0.113 C  
BRANCH  13  14
HETATM   14  C   UNL     1      -7.922   5.972  65.383  1.00  0.00    -0.118 C  
BRANCH  14  15
HETATM   15  C   UNL     1      -8.545   5.014  64.350  1.00  0.00    -0.135 C  
BRANCH  15  16
HETATM   16  N   UNL     1      -9.770   4.332  64.802  1.00  0.00    -0.173 NA 
HETATM   17  C   UNL     1     -10.205   3.231  63.914  1.00  0.00    -0.207 C  
HETATM   18  C   UNL     1      -9.351   1.959  64.031  1.00  0.00    -0.123 C  
HETATM   19  O   UNL     1      -9.333   1.475  65.379  1.00  0.00    -0.085 OA 
HETATM   20  C   UNL     1      -8.821   2.477  66.266  1.00  0.00    -0.130 C  
HETATM   21  C   UNL     1      -9.627   3.787  66.174  1.00  0.00    -0.160 C  
ENDBRANCH  15  16
ENDBRANCH  14  15
ENDBRANCH  13  14
ENDBRANCH  12  13
ENDBRANCH   9  12
ENDBRANCH   5   6
ENDBRANCH   4   5
ENDBRANCH   3   4
ENDBRANCH   2   3
TORSDOF 9
ENDMDL
MODEL      225
REMARK 921   NORMALIZED FREE ENERGY PREDICTED BY IDOCK:   -2.36 KCAL/MOL
REMARK 922        TOTAL FREE ENERGY PREDICTED BY IDOCK:   -4.44 KCAL/MOL
REMARK 923 INTER-LIGAND FREE ENERGY PREDICTED BY IDOCK:   -3.78 KCAL/MOL
REMARK 924 INTRA-LIGAND FREE ENERGY PREDICTED BY IDOCK:   -0.66 KCAL/MOL
REMARK 927      BINDING AFFINITY PREDICTED BY RF-SCORE:    0.00 PKD
ROOT
HETATM    1  C   UNL     1     -10.031  17.849  67.715  1.00  0.00    -0.331 C  
HETATM    2  C   UNL     1      -9.087  17.983  66.539  1.00  0.00    -0.283 C  
ENDROOT
BRANCH   2   3
HETATM    3  C   UNL     1      -8.422  16.650  66.182  1.00  0.00    -0.308 C  
BRANCH   3   4
HETATM    4  C   UNL     1      -7.151  16.514  67.000  1.00  0.00    -0.212 C  
BRANCH   4   5
HETATM    5  O   UNL     1      -7.353  15.825  68.239  1.00  0.00    -0.115 OA 
BRANCH   5   6
HETATM    6  C   UNL     1      -7.662  14.493  68.066  1.00  0.00    -0.135 A  
HETATM    7  C   UNL     1      -8.922  13.953  68.323  1.00  0.00    -0.187 A  
HETATM    8  C   UNL     1      -9.171  12.601  68.157  1.00  0.00    -0.209 A  
HETATM    9  C   UNL     1      -8.168  11.739  67.724  1.00  0.00    -0.144 A  
HETATM   10  C   UNL     1      -6.652  13.643  67.612  1.00  0.00    -0.176 A  
HETATM   11  C   UNL     1      -6.908  12.269  67.443  1.00  0.00    -0.145 A  
BRANCH   9  12
HETATM   12  O   UNL     1      -8.347  10.383  67.560  1.00  0.00    -0.114 OA 
BRANCH  12  13
HETATM   13  C   UNL     1      -9.397   9.836  68.375  1.00  0.00    -0.133 C  
BRANCH  13  14
HETATM   14  C   UNL     1      -8.847   9.302  69.689  1.00  0.00    -0.159 C  
BRANCH  14  15
HETATM   15  C   UNL     1      -8.829   7.762  69.718  1.00  0.00    -0.139 C  
BRANCH  15  16
HETATM   16  N   UNL     1      -9.709   7.117  68.728  1.00  0.00    -0.144 NA 
HETATM   17  C   UNL     1      -8.984   6.502  67.594  1.00  0.00    -0.114 C  
HETATM   18  C   UNL     1      -8.273   5.186  67.947  1.00  0.00    -0.098 C  
HETATM   19  O   UNL     1      -9.199   4.226  68.468  1.00  0.00    -0.120 OA 
HETATM   20  C   UNL     1      -9.854   4.742  69.633  1.00  0.00    -0.221 C  
HETATM   21  C   UNL     1     -10.567   6.076  69.343  1.00  0.00    -0.298 C  
ENDBRANCH  15  16
ENDBRANCH  14  15
ENDBRANCH  13  14
ENDBRANCH  12  13
ENDBRANCH   9  12
ENDBRANCH   5   6
ENDBRANCH   4   5
ENDBRANCH   3   4
ENDBRANCH   2   3
TORSDOF 9
ENDMDL
MODEL      226
REMARK 921   NORMALIZED FREE ENERGY PREDICTED BY IDOCK:   -2.31 KCAL/MOL
REMARK 922        TOTAL FREE ENERGY PREDICTED BY IDOCK:   -4.37 KCAL/MOL
REMARK 923 INTER-LIGAND FREE ENERGY PREDICTED BY IDOCK:   -3.40 KCAL/MOL
REMARK 924 INTRA-LIGAND FREE ENERGY PREDICTED BY IDOCK:   -0.97 KCAL/MOL
REMARK 927      BINDING AFFINITY PREDICTED BY RF-SCORE:    0.00 PKD
ROOT
HETATM    1  C   UNL     1     -12.030  13.871  68.297  1.00  0.00    -0.392 C  
HETATM    2  C   UNL     1     -11.594  14.422  66.956  1.00  0.00    -0.402 C  
ENDROOT
BRANCH   2   3
HETATM    3  C   UNL     1     -10.068  14.444  66.813  1.00  0.00    -0.266 C  
BRANCH   3   4
HETATM    4  C   UNL     1      -9.456  14.100  68.158  1.00  0.00    -0.213 C  
BRANCH   4   5
HETATM    5  O   UNL     1      -8.292  13.273  68.049  1.00  0.00    -0.142 OA 
BRANCH   5   6
HETATM    6  C   UNL     1      -8.598  11.946  67.831  1.00  0.00    -0.162 A  
HETATM    7  C   UNL     1      -8.015  11.176  66.824  1.00  0.00    -0.156 A  
HETATM    8  C   UNL     1      -8.378   9.854  66.633  1.00  0.00    -0.125 A  
HETATM    9  C   UNL     1      -9.337   9.252  67.442  1.00  0.00    -0.127 A  
HETATM   10  C   UNL     1      -9.547  11.350  68.663  1.00  0.00    -0.179 A  
HETATM   11  C   UNL     1      -9.913  10.005  68.466  1.00  0.00    -0.177 A  
BRANCH   9  12
HETATM   12  O   UNL     1      -9.755   7.949  67.288  1.00  0.00    -0.153 OA 
BRANCH  12  13
HETATM   13  C   UNL     1      -8.967   7.195  66.352  1.00  0.00    -0.155 C  
BRANCH  13  14
HETATM   14  C   UNL     1      -8.355   5.970  67.013  1.00  0.00    -0.105 C  
BRANCH  14  15
HETATM   15  C   UNL     1      -9.153   5.533  68.256  1.00  0.00    -0.108 C  
BRANCH  15  16
HETATM   16  N   UNL     1      -8.477   5.782  69.542  1.00  0.00    -0.111 NA 
HETATM   17  C   UNL     1      -9.222   5.278  70.717  1.00  0.00    -0.152 C  
HETATM   18  C   UNL     1      -9.166   3.752  70.886  1.00  0.00    -0.125 C  
HETATM   19  O   UNL     1      -7.812   3.295  70.976  1.00  0.00    -0.049 OA 
HETATM   20  C   UNL     1      -7.074   3.673  69.808  1.00  0.00    -0.042 C  
HETATM   21  C   UNL     1      -7.115   5.195  69.575  1.00  0.00    -0.056 C  
ENDBRANCH  15  16
ENDBRANCH  14  15
ENDBRANCH  13  14
ENDBRANCH  12  13
ENDBRANCH   9  12
ENDBRANCH   5   6
ENDBRANCH   4   5
ENDBRANCH   3   4
ENDBRANCH   2   3
TORSDOF 9
ENDMDL
MODEL      227
REMARK 921   NORMALIZED FREE ENERGY PREDICTED BY IDOCK:   -2.31 KCAL/MOL
REMARK 922        TOTAL FREE ENERGY PREDICTED BY IDOCK:   -4.36 KCAL/MOL
REMARK 923 INTER-LIGAND FREE ENERGY PREDICTED BY IDOCK:   -3.84 KCAL/MOL
REMARK 924 INTRA-LIGAND FREE ENERGY PREDICTED BY IDOCK:   -0.51 KCAL/MOL
REMARK 927      BINDING AFFINITY PREDICTED BY RF-SCORE:    0.00 PKD
ROOT
HETATM    1  C   UNL     1      -7.162  10.279  65.490  1.00  0.00    -0.149 C  
HETATM    2  C   UNL     1      -7.436   9.771  64.091  1.00  0.00    -0.135 C  
ENDROOT
BRANCH   2   3
HETATM    3  C   UNL     1      -6.856   8.371  63.864  1.00  0.00    -0.075 C  
BRANCH   3   4
HETATM    4  C   UNL     1      -7.197   7.509  65.066  1.00  0.00    -0.066 C  
BRANCH   4   5
HETATM    5  O   UNL     1      -8.361   6.701  64.863  1.00  0.00    -0.120 OA 
BRANCH   5   6
HETATM    6  C   UNL     1      -9.117   6.556  66.007  1.00  0.00    -0.086 A  
HETATM    7  C   UNL     1      -9.378   5.324  66.609  1.00  0.00    -0.139 A  
HETATM    8  C   UNL     1     -10.166   5.234  67.744  1.00  0.00    -0.211 A  
HETATM    9  C   UNL     1     -10.721   6.372  68.320  1.00  0.00    -0.285 A  
HETATM   10  C   UNL     1      -9.651   7.708  66.586  1.00  0.00    -0.271 A  
HETATM   11  C   UNL     1     -10.451   7.613  67.740  1.00  0.00    -0.282 A  
BRANCH   9  12
HETATM   12  O   UNL     1     -11.529   6.345  69.435  1.00  0.00    -0.401 OA 
BRANCH  12  13
HETATM   13  C   UNL     1     -10.952   5.647  70.551  1.00  0.00    -0.197 C  
BRANCH  13  14
HETATM   14  C   UNL     1     -11.037   6.481  71.821  1.00  0.00    -0.299 C  
BRANCH  14  15
HETATM   15  C   UNL     1     -10.774   7.974  71.543  1.00  0.00    -0.227 C  
BRANCH  15  16
HETATM   16  N   UNL     1      -9.547   8.509  72.161  1.00  0.00    -0.290 NA 
HETATM   17  C   UNL     1      -8.832   7.533  73.012  1.00  0.00    -0.154 C  
HETATM   18  C   UNL     1      -8.069   6.456  72.225  1.00  0.00    -0.107 C  
HETATM   19  O   UNL     1      -7.126   7.051  71.325  1.00  0.00    -0.071 OA 
HETATM   20  C   UNL     1      -7.791   7.931  70.410  1.00  0.00    -0.089 C  
HETATM   21  C   UNL     1      -8.594   9.020  71.147  1.00  0.00    -0.190 C  
ENDBRANCH  15  16
ENDBRANCH  14  15
ENDBRANCH  13  14
ENDBRANCH  12  13
ENDBRANCH   9  12
ENDBRANCH   5   6
ENDBRANCH   4   5
ENDBRANCH   3   4
ENDBRANCH   2   3
TORSDOF 9
ENDMDL
MODEL      228
REMARK 921   NORMALIZED FREE ENERGY PREDICTED BY IDOCK:   -2.11 KCAL/MOL
REMARK 922        TOTAL FREE ENERGY PREDICTED BY IDOCK:   -4.06 KCAL/MOL
REMARK 923 INTER-LIGAND FREE ENERGY PREDICTED BY IDOCK:   -3.28 KCAL/MOL
REMARK 924 INTRA-LIGAND FREE ENERGY PREDICTED BY IDOCK:   -0.78 KCAL/MOL
REMARK 927      BINDING AFFINITY PREDICTED BY RF-SCORE:    0.00 PKD
ROOT
HETATM    1  C   UNL     1      -6.066  10.206  64.891  1.00  0.00    -0.125 C  
HETATM    2  C   UNL     1      -7.073  10.185  66.021  1.00  0.00    -0.118 C  
ENDROOT
BRANCH   2   3
HETATM    3  C   UNL     1      -6.395  10.188  67.395  1.00  0.00    -0.066 C  
BRANCH   3   4
HETATM    4  C   UNL     1      -7.085   9.157  68.271  1.00  0.00    -0.077 C  
BRANCH   4   5
HETATM    5  O   UNL     1      -8.503   9.122  68.085  1.00  0.00    -0.123 OA 
BRANCH   5   6
HETATM    6  C   UNL     1      -9.187   8.806  69.240  1.00  0.00    -0.149 A  
HETATM    7  C   UNL     1     -10.446   8.205  69.252  1.00  0.00    -0.221 A  
HETATM    8  C   UNL     1     -11.099   7.933  70.442  1.00  0.00    -0.249 A  
HETATM    9  C   UNL     1     -10.515   8.249  71.665  1.00  0.00    -0.238 A  
HETATM   10  C   UNL     1      -8.581   9.110  70.460  1.00  0.00    -0.252 A  
HETATM   11  C   UNL     1      -9.246   8.832  71.668  1.00  0.00    -0.333 A  
BRANCH   9  12
HETATM   12  O   UNL     1     -11.123   8.023  72.880  1.00  0.00    -0.392 OA 
BRANCH  12  13
HETATM   13  C   UNL     1     -11.276   6.630  73.200  1.00  0.00    -0.086 C  
BRANCH  13  14
HETATM   14  C   UNL     1     -10.119   6.135  74.055  1.00  0.00    -0.282 C  
BRANCH  14  15
HETATM   15  C   UNL     1      -9.103   5.324  73.229  1.00  0.00    -0.128 C  
BRANCH  15  16
HETATM   16  N   UNL     1      -8.575   4.126  73.905  1.00  0.00    -0.094 NA 
HETATM   17  C   UNL     1      -9.506   2.975  73.898  1.00  0.00    -0.087 C  
HETATM   18  C   UNL     1      -9.612   2.266  72.539  1.00  0.00    -0.101 C  
HETATM   19  O   UNL     1      -8.328   1.815  72.094  1.00  0.00    -0.051 OA 
HETATM   20  C   UNL     1      -7.417   2.916  71.988  1.00  0.00    -0.048 C  
HETATM   21  C   UNL     1      -7.288   3.680  73.319  1.00  0.00    -0.057 C  
ENDBRANCH  15  16
ENDBRANCH  14  15
ENDBRANCH  13  14
ENDBRANCH  12  13
ENDBRANCH   9  12
ENDBRANCH   5   6
ENDBRANCH   4   5
ENDBRANCH   3   4
ENDBRANCH   2   3
TORSDOF 9
ENDMDL
MODEL      229
REMARK 921   NORMALIZED FREE ENERGY PREDICTED BY IDOCK:   -2.06 KCAL/MOL
REMARK 922        TOTAL FREE ENERGY PREDICTED BY IDOCK:   -3.98 KCAL/MOL
REMARK 923 INTER-LIGAND FREE ENERGY PREDICTED BY IDOCK:   -4.02 KCAL/MOL
REMARK 924 INTRA-LIGAND FREE ENERGY PREDICTED BY IDOCK:    0.04 KCAL/MOL
REMARK 927      BINDING AFFINITY PREDICTED BY RF-SCORE:    0.00 PKD
ROOT
HETATM    1  C   UNL     1     -10.082  13.652  66.060  1.00  0.00    -0.320 C  
HETATM    2  C   UNL     1      -9.500  12.277  66.311  1.00  0.00    -0.234 C  
ENDROOT
BRANCH   2   3
HETATM    3  C   UNL     1     -10.585  11.244  66.631  1.00  0.00    -0.309 C  
BRANCH   3   4
HETATM    4  C   UNL     1     -10.313   9.994  65.814  1.00  0.00    -0.121 C  
BRANCH   4   5
HETATM    5  O   UNL     1      -9.205   9.233  66.306  1.00  0.00    -0.160 OA 
BRANCH   5   6
HETATM    6  C   UNL     1      -9.585   8.247  67.192  1.00  0.00    -0.180 A  
HETATM    7  C   UNL     1      -9.855   6.932  66.814  1.00  0.00    -0.243 A  
HETATM    8  C   UNL     1     -10.259   5.988  67.743  1.00  0.00    -0.219 A  
HETATM    9  C   UNL     1     -10.405   6.323  69.085  1.00  0.00    -0.216 A  
HETATM   10  C   UNL     1      -9.708   8.593  68.539  1.00  0.00    -0.174 A  
HETATM   11  C   UNL     1     -10.118   7.631  69.481  1.00  0.00    -0.192 A  
BRANCH   9  12
HETATM   12  O   UNL     1     -10.823   5.435  70.052  1.00  0.00    -0.293 OA 
BRANCH  12  13
HETATM   13  C   UNL     1      -9.985   4.274  70.170  1.00  0.00    -0.136 C  
BRANCH  13  14
HETATM   14  C   UNL     1      -8.800   4.544  71.086  1.00  0.00    -0.151 C  
BRANCH  14  15
HETATM   15  C   UNL     1      -9.047   4.015  72.511  1.00  0.00    -0.110 C  
BRANCH  15  16
HETATM   16  N   UNL     1      -8.743   4.975  73.587  1.00  0.00    -0.107 NA 
HETATM   17  C   UNL     1      -7.738   5.995  73.211  1.00  0.00    -0.101 C  
HETATM   18  C   UNL     1      -8.275   7.086  72.272  1.00  0.00    -0.099 C  
HETATM   19  O   UNL     1      -9.404   7.751  72.851  1.00  0.00    -0.173 OA 
HETATM   20  C   UNL     1     -10.447   6.812  73.138  1.00  0.00    -0.270 C  
HETATM   21  C   UNL     1      -9.958   5.680  74.061  1.00  0.00    -0.212 C  
ENDBRANCH  15  16
ENDBRANCH  14  15
ENDBRANCH  13  14
ENDBRANCH  12  13
ENDBRANCH   9  12
ENDBRANCH   5   6
ENDBRANCH   4   5
ENDBRANCH   3   4
ENDBRANCH   2   3
TORSDOF 9
ENDMDL
MODEL      230
REMARK 921   NORMALIZED FREE ENERGY PREDICTED BY IDOCK:   -2.05 KCAL/MOL
REMARK 922        TOTAL FREE ENERGY PREDICTED BY IDOCK:   -3.96 KCAL/MOL
REMARK 923 INTER-LIGAND FREE ENERGY PREDICTED BY IDOCK:   -3.70 KCAL/MOL
REMARK 924 INTRA-LIGAND FREE ENERGY PREDICTED BY IDOCK:   -0.27 KCAL/MOL
REMARK 927      BINDING AFFINITY PREDICTED BY RF-SCORE:    0.00 PKD
ROOT
HETATM    1  C   UNL     1     -14.347   8.915  72.261  1.00  0.00    -0.418 C  
HETATM    2  C   UNL     1     -13.526   7.709  71.858  1.00  0.00    -0.311 C  
ENDROOT
BRANCH   2   3
HETATM    3  C   UNL     1     -12.025   8.016  71.838  1.00  0.00    -0.359 C  
BRANCH   3   4
HETATM    4  C   UNL     1     -11.843   9.505  71.603  1.00  0.00    -0.397 C  
BRANCH   4   5
HETATM    5  O   UNL     1     -11.714   9.842  70.218  1.00  0.00    -0.253 OA 
BRANCH   5   6
HETATM    6  C   UNL     1     -10.402   9.995  69.825  1.00  0.00    -0.255 A  
HETATM    7  C   UNL     1      -9.375   9.135  70.216  1.00  0.00    -0.253 A  
HETATM    8  C   UNL     1      -8.068   9.350  69.812  1.00  0.00    -0.134 A  
HETATM    9  C   UNL     1      -7.740  10.431  68.999  1.00  0.00    -0.116 A  
HETATM   10  C   UNL     1     -10.091  11.072  68.994  1.00  0.00    -0.197 A  
HETATM   11  C   UNL     1      -8.762  11.287  68.584  1.00  0.00    -0.136 A  
BRANCH   9  12
HETATM   12  O   UNL     1      -6.457  10.710  68.582  1.00  0.00    -0.050 OA 
BRANCH  12  13
HETATM   13  C   UNL     1      -5.630   9.543  68.438  1.00  0.00    -0.036 C  
BRANCH  13  14
HETATM   14  C   UNL     1      -5.545   9.109  66.982  1.00  0.00    -0.041 C  
BRANCH  14  15
HETATM   15  C   UNL     1      -6.727   8.205  66.585  1.00  0.00    -0.063 C  
BRANCH  15  16
HETATM   16  N   UNL     1      -7.678   8.813  65.639  1.00  0.00    -0.089 NA 
HETATM   17  C   UNL     1      -7.259  10.142  65.141  1.00  0.00    -0.141 C  
HETATM   18  C   UNL     1      -6.126  10.093  64.104  1.00  0.00    -0.137 C  
HETATM   19  O   UNL     1      -6.493   9.283  62.982  1.00  0.00    -0.094 OA 
HETATM   20  C   UNL     1      -6.811   7.952  63.406  1.00  0.00    -0.075 C  
HETATM   21  C   UNL     1      -7.928   7.942  64.466  1.00  0.00    -0.140 C  
ENDBRANCH  15  16
ENDBRANCH  14  15
ENDBRANCH  13  14
ENDBRANCH  12  13
ENDBRANCH   9  12
ENDBRANCH   5   6
ENDBRANCH   4   5
ENDBRANCH   3   4
ENDBRANCH   2   3
TORSDOF 9
ENDMDL
MODEL      231
REMARK 921   NORMALIZED FREE ENERGY PREDICTED BY IDOCK:   -1.71 KCAL/MOL
REMARK 922        TOTAL FREE ENERGY PREDICTED BY IDOCK:   -3.45 KCAL/MOL
REMARK 923 INTER-LIGAND FREE ENERGY PREDICTED BY IDOCK:   -3.94 KCAL/MOL
REMARK 924 INTRA-LIGAND FREE ENERGY PREDICTED BY IDOCK:    0.49 KCAL/MOL
REMARK 927      BINDING AFFINITY PREDICTED BY RF-SCORE:    0.00 PKD
ROOT
HETATM    1  C   UNL     1      -8.904  18.311  69.105  1.00  0.00     0.098 C  
HETATM    2  C   UNL     1     -10.366  18.634  68.882  1.00  0.00    -0.127 C  
ENDROOT
BRANCH   2   3
HETATM    3  C   UNL     1     -10.601  19.331  67.537  1.00  0.00    -0.581 C  
BRANCH   3   4
HETATM    4  C   UNL     1      -9.258  19.766  66.981  1.00  0.00    -0.352 C  
BRANCH   4   5
HETATM    5  O   UNL     1      -8.878  19.046  65.804  1.00  0.00    -0.396 OA 
BRANCH   5   6
HETATM    6  C   UNL     1      -9.257  17.721  65.843  1.00  0.00     0.126 A  
HETATM    7  C   UNL     1      -8.375  16.673  66.109  1.00  0.00    -0.305 A  
HETATM    8  C   UNL     1      -8.805  15.357  66.109  1.00  0.00    -0.222 A  
HETATM    9  C   UNL     1     -10.134  15.040  65.847  1.00  0.00    -0.320 A  
HETATM   10  C   UNL     1     -10.598  17.419  65.598  1.00  0.00    -0.158 A  
HETATM   11  C   UNL     1     -11.032  16.080  65.601  1.00  0.00    -0.175 A  
BRANCH   9  12
HETATM   12  O   UNL     1     -10.618  13.750  65.813  1.00  0.00    -0.281 OA 
BRANCH  12  13
HETATM   13  C   UNL     1      -9.607  12.749  66.016  1.00  0.00    -0.178 C  
BRANCH  13  14
HETATM   14  C   UNL     1      -9.868  11.525  65.149  1.00  0.00    -0.294 C  
BRANCH  14  15
HETATM   15  C   UNL     1      -8.557  10.833  64.729  1.00  0.00    -0.075 C  
BRANCH  15  16
HETATM   16  N   UNL     1      -8.737   9.569  63.993  1.00  0.00    -0.210 NA 
HETATM   17  C   UNL     1      -7.991   9.509  62.716  1.00  0.00    -0.126 C  
HETATM   18  C   UNL     1      -6.479   9.296  62.884  1.00  0.00    -0.094 C  
HETATM   19  O   UNL     1      -6.209   8.100  63.624  1.00  0.00    -0.069 OA 
HETATM   20  C   UNL     1      -6.830   8.157  64.914  1.00  0.00    -0.062 C  
HETATM   21  C   UNL     1      -8.348   8.393  64.807  1.00  0.00    -0.141 C  
ENDBRANCH  15  16
ENDBRANCH  14  15
ENDBRANCH  13  14
ENDBRANCH  12  13
ENDBRANCH   9  12
ENDBRANCH   5   6
ENDBRANCH   4   5
ENDBRANCH   3   4
ENDBRANCH   2   3
TORSDOF 9
ENDMDL
MODEL      232
REMARK 921   NORMALIZED FREE ENERGY PREDICTED BY IDOCK:   -1.70 KCAL/MOL
REMARK 922        TOTAL FREE ENERGY PREDICTED BY IDOCK:   -3.44 KCAL/MOL
REMARK 923 INTER-LIGAND FREE ENERGY PREDICTED BY IDOCK:   -3.41 KCAL/MOL
REMARK 924 INTRA-LIGAND FREE ENERGY PREDICTED BY IDOCK:   -0.03 KCAL/MOL
REMARK 927      BINDING AFFINITY PREDICTED BY RF-SCORE:    0.00 PKD
ROOT
HETATM    1  C   UNL     1     -14.216   8.481  71.298  1.00  0.00    -0.285 C  
HETATM    2  C   UNL     1     -13.654   7.102  71.575  1.00  0.00    -0.408 C  
ENDROOT
BRANCH   2   3
HETATM    3  C   UNL     1     -12.147   7.141  71.849  1.00  0.00    -0.357 C  
BRANCH   3   4
HETATM    4  C   UNL     1     -11.682   8.583  71.769  1.00  0.00    -0.327 C  
BRANCH   4   5
HETATM    5  O   UNL     1     -11.813   9.143  70.458  1.00  0.00    -0.218 OA 
BRANCH   5   6
HETATM    6  C   UNL     1     -10.619   9.175  69.769  1.00  0.00    -0.229 A  
HETATM    7  C   UNL     1     -10.022   8.046  69.208  1.00  0.00    -0.191 A  
HETATM    8  C   UNL     1      -8.807   8.132  68.548  1.00  0.00    -0.134 A  
HETATM    9  C   UNL     1      -8.147   9.350  68.422  1.00  0.00    -0.109 A  
HETATM   10  C   UNL     1      -9.978  10.407  69.633  1.00  0.00    -0.209 A  
HETATM   11  C   UNL     1      -8.745  10.491  68.960  1.00  0.00    -0.160 A  
BRANCH   9  12
HETATM   12  O   UNL     1      -6.929   9.496  67.795  1.00  0.00    -0.078 OA 
BRANCH  12  13
HETATM   13  C   UNL     1      -6.526   8.342  67.039  1.00  0.00    -0.057 C  
BRANCH  13  14
HETATM   14  C   UNL     1      -6.801   8.537  65.555  1.00  0.00    -0.071 C  
BRANCH  14  15
HETATM   15  C   UNL     1      -7.241   7.225  64.878  1.00  0.00    -0.071 C  
BRANCH  15  16
HETATM   16  N   UNL     1      -7.127   6.026  65.726  1.00  0.00    -0.071 NA 
HETATM   17  C   UNL     1      -8.411   5.322  65.941  1.00  0.00    -0.124 C  
HETATM   18  C   UNL     1      -8.897   4.521  64.723  1.00  0.00    -0.149 C  
HETATM   19  O   UNL     1      -7.915   3.560  64.317  1.00  0.00    -0.084 OA 
HETATM   20  C   UNL     1      -6.679   4.210  63.998  1.00  0.00    -0.044 C  
HETATM   21  C   UNL     1      -6.155   5.050  65.179  1.00  0.00    -0.030 C  
ENDBRANCH  15  16
ENDBRANCH  14  15
ENDBRANCH  13  14
ENDBRANCH  12  13
ENDBRANCH   9  12
ENDBRANCH   5   6
ENDBRANCH   4   5
ENDBRANCH   3   4
ENDBRANCH   2   3
TORSDOF 9
ENDMDL
